MODEL 3
REMARK VINA RESULT: -7.150515552      2.170      4.467
REMARK  6 active torsions:
REMARK  status: ('A' for Active; 'I' for Inactive)
REMARK       I    between atoms: C1_2  and  N5_14
REMARK       I    between atoms: N2_3  and  C2_5
REMARK       I    between atoms: C2_5  and  N3_6
REMARK       I    between atoms: C2_5  and  N4_10
REMARK    1  A    between atoms: N5_14  and  C3_16
REMARK    2  A    between atoms: C3_16  and  C4_17
REMARK    3  A    between atoms: C4_17  and  N6_18
REMARK    4  A    between atoms: N6_18  and  C5_19
REMARK    5  A    between atoms: N6_18  and  S1_29
REMARK    6  A    between atoms: S1_29  and  N9_30
ROOT
HETATM    1  C4  UNL     1      -6.298  47.258  54.904  1.00  0.00     0.129 C
ENDROOT
BRANCH   1   2
HETATM    2  C3  UNL     1      -5.339  46.526  55.818  1.00  0.00     0.138 C
BRANCH   2   3
HETATM    3  N5  UNL     1      -4.021  46.580  55.265  1.00  0.00    -0.363 N
HETATM    4  C1  UNL     1      -3.494  45.815  54.204  1.00  0.00     0.186 C
HETATM    5  N1  UNL     1      -3.813  44.456  53.930  1.00  0.00    -0.064 NA
HETATM    6  N2  UNL     1      -2.657  46.412  53.430  1.00  0.00    -0.315 N
HETATM    7  C2  UNL     1      -1.983  45.884  52.298  1.00  0.00     0.482 C
ATOM      8  H2  UNL     1      -2.453  47.385  53.658  1.00  0.00     0.165 HD
HETATM    9  N3  UNL     1      -2.764  44.876  51.661  1.00  0.00    -0.033 N
HETATM   10  N4  UNL     1      -1.722  47.015  51.399  1.00  0.00    -0.033 N
ATOM     11  H33 UNL     1      -3.034  44.141  52.316  1.00  0.00     0.278 HD
ATOM     12  H32 UNL     1      -3.694  45.218  51.420  1.00  0.00     0.278 HD
ATOM     13  H31 UNL     1      -2.279  44.496  50.848  1.00  0.00     0.278 HD
ATOM     14  H43 UNL     1      -2.563  47.541  51.160  1.00  0.00     0.278 HD
ATOM     15  H42 UNL     1      -1.218  47.779  51.848  1.00  0.00     0.278 HD
ATOM     16  H41 UNL     1      -1.238  46.635  50.586  1.00  0.00     0.278 HD
ATOM     17  H5  UNL     1      -3.385  47.254  55.691  1.00  0.00     0.162 HD
ENDBRANCH   2   3
ENDBRANCH   1   2
BRANCH   1  18
HETATM   18  N6  UNL     1      -6.088  48.662  54.893  1.00  0.00    -0.177 NA
BRANCH  18  19
HETATM   19  C5  UNL     1      -5.754  49.174  53.622  1.00  0.00     0.186 C
HETATM   20  C6  UNL     1      -5.957  48.284  52.431  1.00  0.00     0.154 C
HETATM   21  N7  UNL     1      -5.808  49.158  51.249  1.00  0.00    -0.341 N
HETATM   22  C7  UNL     1      -4.755  50.098  51.166  1.00  0.00     0.322 C
ATOM     23  H7  UNL     1      -6.476  49.083  50.481  1.00  0.00     0.164 HD
HETATM   24  O1  UNL     1      -4.463  50.721  50.111  1.00  0.00    -0.247 OA
HETATM   25  N8  UNL     1      -3.982  50.351  52.341  1.00  0.00    -0.278 N
HETATM   26  C8  UNL     1      -4.323  49.640  53.527  1.00  0.00     0.246 C
ATOM     27  H8  UNL     1      -3.212  51.020  52.331  1.00  0.00     0.173 HD
HETATM   28  O2  UNL     1      -3.509  49.401  54.440  1.00  0.00    -0.271 OA
ENDBRANCH  18  19
BRANCH  18  29
HETATM   29  S1  UNL     1      -7.396  49.546  55.587  1.00  0.00     0.297 S
HETATM   30  O3  UNL     1      -8.010  50.491  54.590  1.00  0.00    -0.189 OA
HETATM   31  O4  UNL     1      -8.403  48.612  56.180  1.00  0.00    -0.189 OA
BRANCH  29  32
HETATM   32  N9  UNL     1      -6.767  50.536  56.855  1.00  0.00    -0.316 N
ATOM     33  H92 UNL     1      -7.332  51.048  57.533  1.00  0.00     0.170 HD
ATOM     34  H91 UNL     1      -5.749  50.515  56.802  1.00  0.00     0.170 HD
ENDBRANCH  29  32
ENDBRANCH  18  29
ENDBRANCH   1  18
TORSDOF 6
ENDMDL