MODEL 4
REMARK VINA RESULT: -7.644198352      2.180      3.434
REMARK  7 active torsions:
REMARK  status: ('A' for Active; 'I' for Inactive)
REMARK    1  A    between atoms: N3_4  and  C2_6
REMARK    2  A    between atoms: C2_6  and  C3_7
REMARK    3  A    between atoms: C3_7  and  C4_8
REMARK    4  A    between atoms: C4_8  and  N4_9
REMARK    5  A    between atoms: C4_8  and  C5_13
REMARK    6  A    between atoms: C5_13  and  N5_14
REMARK    7  A    between atoms: C8_23  and  C9_24
REMARK       I    between atoms: C9_24  and  N8_26
ROOT
HETATM    1  N5  UNL     1      -3.773  48.311  51.818  1.00  0.00    -0.276 N
HETATM    2  N6  UNL     1      -3.279  49.306  51.057  1.00  0.00    -0.248 N
ATOM      3  H6  UNL     1      -2.561  49.109  50.360  1.00  0.00     0.192 HD
HETATM    4  C6  UNL     1      -3.734  50.548  51.219  1.00  0.00     0.341 A
HETATM    5  O1  UNL     1      -3.254  51.478  50.488  1.00  0.00    -0.245 OA
HETATM    6  N7  UNL     1      -4.683  50.815  52.140  1.00  0.00    -0.272 N
ATOM      7  H7  UNL     1      -5.028  51.768  52.261  1.00  0.00     0.174 HD
HETATM    8  C7  UNL     1      -5.168  49.824  52.893  1.00  0.00     0.283 A
HETATM    9  O2  UNL     1      -6.049  50.114  53.736  1.00  0.00    -0.265 OA
HETATM   10  C8  UNL     1      -4.709  48.495  52.750  1.00  0.00     0.187 A
ENDROOT
BRANCH   1  11
HETATM   11  C5  UNL     1      -3.282  47.006  51.489  1.00  0.00     0.182 C
BRANCH  11  12
HETATM   12  C4  UNL     1      -1.775  46.894  51.597  1.00  0.00     0.204 C
BRANCH  12  13
HETATM   13  C3  UNL     1      -1.298  47.049  53.013  1.00  0.00     0.054 C
BRANCH  13  14
HETATM   14  C2  UNL     1      -1.068  45.728  53.698  1.00  0.00     0.124 C
BRANCH  14  15
HETATM   15  N3  UNL     1      -2.226  45.435  54.513  1.00  0.00    -0.367 N
HETATM   16  C1  UNL     1      -3.078  44.515  54.219  1.00  0.00     0.196 C
HETATM   17  N1  UNL     1      -2.925  43.712  53.047  1.00  0.00    -0.067 NA
HETATM   18  N2  UNL     1      -4.179  44.312  55.089  1.00  0.00    -0.067 NA
ATOM     19  H3  UNL     1      -2.376  45.983  55.361  1.00  0.00     0.161 HD
ENDBRANCH  14  15
ENDBRANCH  13  14
ENDBRANCH  12  13
BRANCH  12  20
HETATM   20  N4  UNL     1      -1.308  45.690  51.021  1.00  0.00    -0.073 N
ATOM     21  H43 UNL     1      -1.389  45.706  50.005  1.00  0.00     0.274 HD
ATOM     22  H42 UNL     1      -0.294  45.609  51.097  1.00  0.00     0.274 HD
ATOM     23  H41 UNL     1      -1.778  44.878  51.420  1.00  0.00     0.274 HD
ENDBRANCH  12  20
ENDBRANCH  11  12
ENDBRANCH   1  11
BRANCH  10  24
HETATM   24  C9  UNL     1      -5.243  47.519  53.671  1.00  0.00     0.281 C
HETATM   25  O3  UNL     1      -5.991  46.591  53.165  1.00  0.00    -0.265 OA
HETATM   26  N8  UNL     1      -5.090  47.405  55.051  1.00  0.00    -0.298 N
HETATM   27  C10 UNL     1      -6.028  47.088  55.875  1.00  0.00     0.203 C
ATOM     28  H8  UNL     1      -4.165  47.586  55.438  1.00  0.00     0.171 HD
HETATM   29  N9  UNL     1      -5.766  47.000  57.257  1.00  0.00    -0.066 NA
HETATM   30  N10 UNL     1      -7.363  46.816  55.442  1.00  0.00    -0.066 NA
ENDBRANCH  10  24
TORSDOF 7
ENDMDL