MODEL 5
REMARK VINA RESULT: -8.709339194      1.816      2.950
REMARK  6 active torsions:
REMARK  status: ('A' for Active; 'I' for Inactive)
REMARK       I    between atoms: N5_14  and  C4_16
REMARK    1  A    between atoms: C4_16  and  C5_18
REMARK    2  A    between atoms: C5_18  and  N6_19
REMARK       I    between atoms: N6_19  and  C6_21
REMARK    3  A    between atoms: C6_21  and  C7_23
REMARK    4  A    between atoms: C7_23  and  N7_24
REMARK       I    between atoms: N7_24  and  C8_26
REMARK    5  A    between atoms: C8_26  and  C9_28
REMARK    6  A    between atoms: C9_28  and  N8_29
REMARK       I    between atoms: N8_29  and  C10_31
ROOT
HETATM    1  N1  UNL     1      -3.343  43.983  52.719  1.00  0.00    -0.382 N
ATOM      2  H11 UNL     1      -3.711  44.324  51.831  1.00  0.00     0.157 HD
ATOM      3  H12 UNL     1      -3.867  43.284  53.244  1.00  0.00     0.157 HD
HETATM    4  C1  UNL     1      -2.244  44.460  53.107  1.00  0.00     0.149 A
HETATM    5  N2  UNL     1      -1.748  44.000  54.303  1.00  0.00    -0.291 N
ATOM      6  H2  UNL     1      -2.268  43.302  54.834  1.00  0.00     0.172 HD
HETATM    7  C2  UNL     1      -0.593  44.462  54.773  1.00  0.00     0.340 A
HETATM    8  O1  UNL     1      -0.149  44.030  55.875  1.00  0.00    -0.245 OA
HETATM    9  N3  UNL     1       0.104  45.386  54.083  1.00  0.00    -0.250 N
ATOM     10  H3  UNL     1       0.989  45.734  54.451  1.00  0.00     0.192 HD
HETATM   11  N4  UNL     1      -0.346  45.835  52.951  1.00  0.00    -0.278 N
ATOM     12  H4  UNL     1       0.200  46.533  52.447  1.00  0.00     0.189 HD
HETATM   13  C3  UNL     1      -1.541  45.399  52.402  1.00  0.00     0.167 A
HETATM   14  N5  UNL     1      -1.825  45.933  51.308  1.00  0.00    -0.308 N
ATOM     15  H5  UNL     1      -1.099  46.598  51.040  1.00  0.00     0.170 HD
HETATM   16  C4  UNL     1      -2.797  45.899  50.376  1.00  0.00     0.241 C
HETATM   17  O2  UNL     1      -2.781  45.034  49.433  1.00  0.00    -0.271 OA
ENDROOT
BRANCH  16  18
HETATM   18  C5  UNL     1      -3.933  46.871  50.405  1.00  0.00     0.225 C
BRANCH  18  19
HETATM   19  N6  UNL     1      -3.968  47.597  51.680  1.00  0.00    -0.351 N
HETATM   20  C6  UNL     1      -5.199  47.773  52.297  1.00  0.00     0.235 C
HETATM   21  O3  UNL     1      -6.240  47.296  51.726  1.00  0.00    -0.272 OA
ATOM     22  H6  UNL     1      -3.112  47.961  52.100  1.00  0.00     0.163 HD
BRANCH  20  23
HETATM   23  C7  UNL     1      -5.422  48.462  53.556  1.00  0.00     0.225 C
BRANCH  23  24
HETATM   24  N7  UNL     1      -4.966  47.744  54.704  1.00  0.00    -0.351 N
HETATM   25  C8  UNL     1      -5.901  46.907  55.388  1.00  0.00     0.235 C
HETATM   26  O4  UNL     1      -7.067  46.827  54.974  1.00  0.00    -0.272 OA
ATOM     27  H7  UNL     1      -4.001  47.826  55.026  1.00  0.00     0.163 HD
BRANCH  25  28
HETATM   28  C9  UNL     1      -5.433  46.162  56.576  1.00  0.00     0.226 C
BRANCH  28  29
HETATM   29  N8  UNL     1      -5.143  46.996  57.712  1.00  0.00    -0.337 N
HETATM   30  C10 UNL     1      -5.809  46.878  58.952  1.00  0.00     0.329 C
HETATM   31  N9  UNL     1      -5.470  47.736  60.039  1.00  0.00    -0.040 NA
HETATM   32  O5  UNL     1      -6.701  46.012  59.086  1.00  0.00    -0.251 OA
ATOM     33  H8  UNL     1      -4.420  47.709  57.616  1.00  0.00     0.164 HD
ENDBRANCH  28  29
ENDBRANCH  25  28
ENDBRANCH  23  24
ENDBRANCH  20  23
ENDBRANCH  18  19
ENDBRANCH  16  18
TORSDOF 6
ENDMDL