MODEL 3
REMARK VINA RESULT: -7.226530878      2.635      5.188
REMARK  8 active torsions:
REMARK  status: ('A' for Active; 'I' for Inactive)
REMARK    1  A    between atoms: N2_4  and  N3_6
REMARK       I    between atoms: C1_8  and  N5_10
REMARK    2  A    between atoms: C2_11  and  O1_12
REMARK    3  A    between atoms: C5_22  and  C6_23
REMARK    4  A    between atoms: C5_22  and  C7_28
REMARK    5  A    between atoms: C6_23  and  N8_24
REMARK    6  A    between atoms: C7_28  and  C8_29
REMARK    7  A    between atoms: C8_29  and  C9_30
REMARK    8  A    between atoms: C9_30  and  N9_31
ROOT
HETATM    1  N3  UNL     1      -4.017  44.662  53.813  1.00  0.00    -0.259 N
ATOM      2  H3  UNL     1      -4.720  44.588  53.077  1.00  0.00     0.191 HD
HETATM    3  C1  UNL     1      -3.028  45.437  53.603  1.00  0.00     0.210 C
HETATM    4  N4  UNL     1      -2.013  45.600  54.565  1.00  0.00    -0.062 NA
HETATM    5  N5  UNL     1      -2.941  46.145  52.384  1.00  0.00    -0.290 N
HETATM    6  C2  UNL     1      -2.348  45.400  51.311  1.00  0.00     0.336 C
HETATM    7  N6  UNL     1      -1.178  46.052  50.720  1.00  0.00    -0.299 N
ATOM      8  H6  UNL     1      -0.707  45.493  50.008  1.00  0.00     0.168 HD
HETATM    9  C3  UNL     1      -0.577  47.318  50.954  1.00  0.00     0.326 C
HETATM   10  O2  UNL     1       0.576  47.430  50.454  1.00  0.00    -0.247 OA
HETATM   11  N7  UNL     1      -1.118  48.409  51.659  1.00  0.00    -0.277 N
ATOM     12  H7  UNL     1      -0.666  49.313  51.523  1.00  0.00     0.173 HD
HETATM   13  C4  UNL     1      -2.242  48.377  52.553  1.00  0.00     0.256 C
HETATM   14  O3  UNL     1      -2.132  49.181  53.501  1.00  0.00    -0.270 OA
HETATM   15  C5  UNL     1      -3.470  47.505  52.452  1.00  0.00     0.144 C
ENDROOT
BRANCH  15  16
HETATM   16  C6  UNL     1      -4.240  47.931  51.258  1.00  0.00     0.270 C
BRANCH  16  17
HETATM   17  N8  UNL     1      -5.234  47.047  50.763  1.00  0.00    -0.076 N
ATOM     18  H83 UNL     1      -5.931  46.882  51.490  1.00  0.00     0.274 HD
ATOM     19  H82 UNL     1      -5.797  47.531  50.064  1.00  0.00     0.274 HD
ATOM     20  H81 UNL     1      -4.926  46.151  50.385  1.00  0.00     0.274 HD
ENDBRANCH  16  17
ENDBRANCH  15  16
BRANCH  15  21
HETATM   21  C7  UNL     1      -4.294  47.714  53.662  1.00  0.00     0.045 C
BRANCH  21  22
HETATM   22  C8  UNL     1      -5.462  48.649  53.543  1.00  0.00     0.023 C
BRANCH  22  23
HETATM   23  C9  UNL     1      -6.259  48.409  54.848  1.00  0.00     0.122 C
BRANCH  23  24
HETATM   24  N9  UNL     1      -6.242  46.997  55.151  1.00  0.00    -0.367 N
HETATM   25  C10 UNL     1      -6.919  46.527  56.134  1.00  0.00     0.196 C
HETATM   26  N10 UNL     1      -6.919  45.145  56.451  1.00  0.00    -0.067 NA
HETATM   27  N11 UNL     1      -7.688  47.421  56.920  1.00  0.00    -0.067 NA
ATOM     28  H9  UNL     1      -5.685  46.365  54.577  1.00  0.00     0.161 HD
ENDBRANCH  23  24
ENDBRANCH  22  23
ENDBRANCH  21  22
ENDBRANCH  15  21
BRANCH   6  29
HETATM   29  O1  UNL     1      -3.257  44.975  50.344  1.00  0.00    -0.359 OA
ATOM     30  H1  UNL     1      -3.059  44.122  49.973  1.00  0.00     0.214 HD
ENDBRANCH   6  29
BRANCH   1  31
HETATM   31  N2  UNL     1      -4.217  43.912  54.960  1.00  0.00    -0.247 N
HETATM   32  N1  UNL     1      -4.101  44.453  56.103  1.00  0.00    -0.331 N
ATOM     33  H12 UNL     1      -3.859  45.442  56.159  1.00  0.00     0.178 HD
ATOM     34  H11 UNL     1      -4.248  43.900  56.948  1.00  0.00     0.178 HD
ATOM     35  H2  UNL     1      -4.458  42.923  54.886  1.00  0.00     0.207 HD
ENDBRANCH   1  31
TORSDOF 8
ENDMDL