MODEL 5
REMARK VINA RESULT: -7.162423672      1.639      5.346
REMARK  7 active torsions:
REMARK  status: ('A' for Active; 'I' for Inactive)
REMARK       I    between atoms: C1_2  and  N3_4
REMARK    1  A    between atoms: N3_4  and  C2_6
REMARK    2  A    between atoms: C2_6  and  C3_7
REMARK    3  A    between atoms: C3_7  and  N4_8
REMARK       I    between atoms: N4_8  and  C4_10
REMARK       I    between atoms: C4_10  and  N6_14
REMARK    4  A    between atoms: C6_17  and  C7_18
REMARK    5  A    between atoms: N7_19  and  N8_21
REMARK       I    between atoms: N8_21  and  C8_22
REMARK    6  A    between atoms: C9_28  and  C10_29
REMARK    7  A    between atoms: N12_31  and  N13_32
ROOT
HETATM    1  N4  UNL     1      -5.817  48.693  53.722  1.00  0.00    -0.222 N
ATOM      2  H4  UNL     1      -5.438  49.640  53.691  1.00  0.00     0.178 HD
HETATM    3  C4  UNL     1      -5.780  47.904  52.755  1.00  0.00     0.673 C
HETATM    4  N5  UNL     1      -5.771  47.026  51.767  1.00  0.00    -0.235 N
ATOM      5  H51 UNL     1      -5.742  46.381  50.977  1.00  0.00     0.174 HD
ATOM      6  H52 UNL     1      -6.077  47.732  51.097  1.00  0.00     0.174 HD
HETATM    7  N6  UNL     1      -5.245  46.666  53.929  1.00  0.00    -0.177 N
ATOM      8  H6  UNL     1      -5.764  46.210  54.679  1.00  0.00     0.185 HD
HETATM    9  C5  UNL     1      -3.990  46.509  53.553  1.00  0.00     0.152 C
HETATM   10  C6  UNL     1      -3.128  47.067  52.555  1.00  0.00     0.298 C
HETATM   11  N11 UNL     1      -2.212  45.904  52.227  1.00  0.00    -0.030 N
ATOM     12 1H11 UNL     1      -1.363  46.141  51.713  1.00  0.00     0.281 HD
ATOM     13 2H11 UNL     1      -2.558  45.253  51.523  1.00  0.00     0.281 HD
HETATM   14  C9  UNL     1      -2.006  45.338  53.583  1.00  0.00     0.370 C
HETATM   15  N12 UNL     1      -3.273  45.419  54.187  1.00  0.00    -0.246 N
ENDROOT
BRANCH  10  16
HETATM   16  C7  UNL     1      -2.269  48.214  52.987  1.00  0.00     0.135 C
HETATM   17  N7  UNL     1      -2.508  49.323  52.574  1.00  0.00    -0.246 N
ATOM     18  H7  UNL     1      -1.858  50.018  52.940  1.00  0.00     0.200 HD
BRANCH  17  19
HETATM   19  N8  UNL     1      -3.403  49.858  51.765  1.00  0.00    -0.295 NA
HETATM   20  C8  UNL     1      -3.955  50.513  50.888  1.00  0.00     0.298 C
HETATM   21  N9  UNL     1      -3.301  51.369  49.981  1.00  0.00    -0.051 NA
HETATM   22  N10 UNL     1      -5.390  50.508  50.787  1.00  0.00    -0.051 NA
ENDBRANCH  17  19
ENDBRANCH  10  16
BRANCH  15  23
HETATM   23  N13 UNL     1      -3.828  44.578  55.268  1.00  0.00    -0.339 N
ATOM     24 2H13 UNL     1      -4.805  44.454  55.534  1.00  0.00     0.177 HD
ATOM     25 1H13 UNL     1      -3.264  44.005  55.895  1.00  0.00     0.177 HD
ENDBRANCH  15  23
BRANCH  14  26
HETATM   26  C10 UNL     1      -1.477  44.026  53.460  1.00  0.00     0.287 C
HETATM   27  O1  UNL     1      -0.759  43.680  54.448  1.00  0.00    -0.303 OA
ENDBRANCH  14  26
BRANCH   1  28
HETATM   28  C3  UNL     1      -6.488  48.092  54.958  1.00  0.00     0.182 C
BRANCH  28  29
HETATM   29  C2  UNL     1      -6.133  48.766  56.178  1.00  0.00     0.083 C
BRANCH  29  30
HETATM   30  N3  UNL     1      -5.394  48.011  57.151  1.00  0.00    -0.345 N
HETATM   31  C1  UNL     1      -6.060  47.255  57.952  1.00  0.00     0.200 C
HETATM   32  N1  UNL     1      -5.252  46.512  58.896  1.00  0.00    -0.067 NA
HETATM   33  N2  UNL     1      -7.457  47.081  58.036  1.00  0.00    -0.067 NA
ATOM     34  H3  UNL     1      -4.377  48.071  57.205  1.00  0.00     0.167 HD
ENDBRANCH  29  30
ENDBRANCH  28  29
ENDBRANCH   1  28
TORSDOF 7
ENDMDL