MODEL 4
REMARK VINA RESULT: -8.153487372      1.036      1.411
REMARK  6 active torsions:
REMARK  status: ('A' for Active; 'I' for Inactive)
REMARK    1  A    between atoms: N3_4  and  C2_6
REMARK    2  A    between atoms: C2_6  and  C3_7
REMARK    3  A    between atoms: C3_7  and  C4_8
REMARK    4  A    between atoms: C4_8  and  C5_9
REMARK    5  A    between atoms: C9_19  and  C10_20
REMARK    6  A    between atoms: C10_20  and  N6_21
ROOT
HETATM    1  C5  UNL     1      -2.120  48.435  51.939  1.00  0.00     0.176 C
HETATM    2  N4  UNL     1      -3.170  47.516  51.510  1.00  0.00    -0.346 N
ATOM      3  H4  UNL     1      -3.059  46.514  51.671  1.00  0.00     0.163 HD
HETATM    4  C6  UNL     1      -4.336  47.991  50.876  1.00  0.00     0.236 C
HETATM    5  O1  UNL     1      -4.964  47.215  50.120  1.00  0.00    -0.272 OA
HETATM    6  C7  UNL     1      -4.814  49.359  51.086  1.00  0.00     0.225 C
HETATM    7  N5  UNL     1      -5.528  49.535  52.335  1.00  0.00    -0.350 N
ATOM      8  H5  UNL     1      -6.007  50.428  52.453  1.00  0.00     0.163 HD
HETATM    9  C8  UNL     1      -5.642  48.637  53.396  1.00  0.00     0.242 C
HETATM   10  O2  UNL     1      -6.829  48.360  53.801  1.00  0.00    -0.271 OA
HETATM   11  C9  UNL     1      -4.542  47.955  54.123  1.00  0.00     0.194 C
HETATM   12  N9  UNL     1      -3.334  48.720  54.197  1.00  0.00    -0.344 N
ATOM     13  H9  UNL     1      -2.997  48.938  55.135  1.00  0.00     0.163 HD
HETATM   14  C12 UNL     1      -2.558  49.204  53.133  1.00  0.00     0.241 C
HETATM   15  O3  UNL     1      -2.195  50.420  53.195  1.00  0.00    -0.271 OA
ENDROOT
BRANCH   1  16
HETATM   16  C4  UNL     1      -0.861  47.693  52.291  1.00  0.00     0.036 C
BRANCH  16  17
HETATM   17  C3  UNL     1      -0.626  46.501  51.406  1.00  0.00     0.022 C
BRANCH  17  18
HETATM   18  C2  UNL     1      -0.645  45.187  52.132  1.00  0.00     0.122 C
BRANCH  18  19
HETATM   19  N3  UNL     1      -1.996  44.834  52.533  1.00  0.00    -0.367 N
HETATM   20  C1  UNL     1      -2.289  44.501  53.745  1.00  0.00     0.196 C
HETATM   21  N1  UNL     1      -3.613  44.162  54.105  1.00  0.00    -0.067 NA
HETATM   22  N2  UNL     1      -1.235  44.485  54.700  1.00  0.00    -0.067 NA
ATOM     23  H3  UNL     1      -2.737  44.850  51.834  1.00  0.00     0.161 HD
ENDBRANCH  18  19
ENDBRANCH  17  18
ENDBRANCH  16  17
ENDBRANCH   1  16
BRANCH  11  24
HETATM   24  C10 UNL     1      -5.023  47.662  55.556  1.00  0.00     0.156 C
BRANCH  24  25
HETATM   25  N6  UNL     1      -5.415  46.296  55.704  1.00  0.00    -0.364 N
HETATM   26  C11 UNL     1      -6.479  46.036  56.393  1.00  0.00     0.197 C
HETATM   27  N7  UNL     1      -7.262  47.057  57.002  1.00  0.00    -0.067 NA
HETATM   28  N8  UNL     1      -6.925  44.688  56.580  1.00  0.00    -0.067 NA
ATOM     29  H6  UNL     1      -4.871  45.546  55.277  1.00  0.00     0.161 HD
ENDBRANCH  24  25
ENDBRANCH  11  24
TORSDOF 6
ENDMDL