MODEL 3
REMARK VINA RESULT: -7.488392277      2.686      4.421
REMARK  10 active torsions:
REMARK  status: ('A' for Active; 'I' for Inactive)
REMARK       I    between atoms: C1_4  and  N3_6
REMARK    1  A    between atoms: N3_6  and  C2_8
REMARK    2  A    between atoms: C2_8  and  C3_9
REMARK    3  A    between atoms: C4_10  and  O1_11
REMARK    4  A    between atoms: C6_15  and  C7_16
REMARK    5  A    between atoms: C7_16  and  N5_18
REMARK    6  A    between atoms: N5_18  and  C8_20
REMARK    7  A    between atoms: C8_20  and  C9_21
REMARK    8  A    between atoms: C9_21  and  C10_22
REMARK    9  A    between atoms: C10_22  and  C11_23
REMARK   10  A    between atoms: N6_24  and  N7_26
ROOT
HETATM    1  C3  UNL     1      -2.589  44.429  53.887  1.00  0.00     0.034 A
HETATM    2  C4  UNL     1      -1.381  44.240  53.364  1.00  0.00     0.129 A
HETATM    3  C5  UNL     1      -1.188  45.307  52.680  1.00  0.00     0.220 A
HETATM    4  O2  UNL     1      -0.207  45.711  51.967  1.00  0.00    -0.284 OA
HETATM    5  C6  UNL     1      -2.368  45.790  53.016  1.00  0.00     0.072 A
ENDROOT
BRANCH   5   6
HETATM    6  C7  UNL     1      -3.121  46.767  52.680  1.00  0.00     0.131 C
HETATM    7  N4  UNL     1      -4.055  46.766  51.551  1.00  0.00    -0.082 NA
BRANCH   6   8
HETATM    8  N5  UNL     1      -3.177  48.046  53.336  1.00  0.00    -0.357 N
ATOM      9  H5  UNL     1      -3.870  48.112  54.082  1.00  0.00     0.166 HD
BRANCH   8  10
HETATM   10  C8  UNL     1      -2.438  49.212  53.119  1.00  0.00     0.062 C
BRANCH  10  11
HETATM   11  C9  UNL     1      -3.209  50.397  52.528  1.00  0.00     0.049 C
BRANCH  11  12
HETATM   12  C10 UNL     1      -3.528  50.054  51.075  1.00  0.00     0.051 C
BRANCH  12  13
HETATM   13  C11 UNL     1      -4.780  50.652  50.614  1.00  0.00     0.080 C
HETATM   14  N6  UNL     1      -5.908  50.185  50.939  1.00  0.00    -0.314 N
ATOM     15  H6  UNL     1      -6.767  50.627  50.611  1.00  0.00     0.185 HD
BRANCH  14  16
HETATM   16  N7  UNL     1      -5.958  49.042  51.765  1.00  0.00    -0.277 N
HETATM   17  C12 UNL     1      -6.426  49.057  52.966  1.00  0.00     0.215 C
HETATM   18  N8  UNL     1      -6.484  47.916  53.814  1.00  0.00    -0.065 NA
HETATM   19  N9  UNL     1      -6.922  50.229  53.515  1.00  0.00    -0.065 NA
ATOM     20  H7  UNL     1      -5.607  48.159  51.392  1.00  0.00     0.189 HD
ENDBRANCH  14  16
ENDBRANCH  12  13
ENDBRANCH  11  12
ENDBRANCH  10  11
ENDBRANCH   8  10
ENDBRANCH   6   8
ENDBRANCH   5   6
BRANCH   1  21
HETATM   21  C2  UNL     1      -3.776  44.635  54.410  1.00  0.00     0.106 C
BRANCH  21  22
HETATM   22  N3  UNL     1      -4.058  45.025  55.717  1.00  0.00    -0.340 N
HETATM   23  C1  UNL     1      -5.178  45.695  56.253  1.00  0.00     0.185 C
HETATM   24  N1  UNL     1      -5.071  46.917  56.575  1.00  0.00    -0.374 N
HETATM   25  N2  UNL     1      -6.384  44.982  56.442  1.00  0.00    -0.064 NA
ATOM     26  H12 UNL     1      -5.880  47.401  56.963  1.00  0.00     0.158 HD
ATOM     27  H11 UNL     1      -4.201  47.431  56.438  1.00  0.00     0.158 HD
ATOM     28  H3  UNL     1      -3.337  44.788  56.398  1.00  0.00     0.167 HD
ENDBRANCH  21  22
ENDBRANCH   1  21
BRANCH   2  29
HETATM   29  O1  UNL     1      -0.630  43.138  53.577  1.00  0.00    -0.356 OA
ATOM     30  H1  UNL     1       0.197  42.967  53.143  1.00  0.00     0.218 HD
ENDBRANCH   2  29
TORSDOF 10
ENDMDL