MODEL 1
REMARK VINA RESULT: -8.695034929      0.000      0.000
REMARK  8 active torsions:
REMARK  status: ('A' for Active; 'I' for Inactive)
REMARK    1  A    between atoms: C2_9  and  N4_10
REMARK    2  A    between atoms: N4_10  and  S1_12
REMARK    3  A    between atoms: S1_12  and  C3_15
REMARK    4  A    between atoms: C3_15  and  C4_16
REMARK    5  A    between atoms: C4_16  and  N5_17
REMARK       I    between atoms: N5_17  and  C5_19
REMARK    6  A    between atoms: C5_19  and  C6_21
REMARK       I    between atoms: C6_21  and  N6_23
REMARK    7  A    between atoms: N6_23  and  C7_25
REMARK    8  A    between atoms: C7_25  and  C8_26
ROOT
HETATM    1  S1  UNL     1      -5.783  46.588  55.478  1.00  0.00     0.245 S
HETATM    2  O1  UNL     1      -6.344  46.987  54.130  1.00  0.00    -0.205 OA
HETATM    3  O2  UNL     1      -6.915  45.878  56.231  1.00  0.00    -0.205 OA
ENDROOT
BRANCH   1   4
HETATM    4  N4  UNL     1      -4.500  45.534  55.392  1.00  0.00    -0.115 N
ATOM      5  H4  UNL     1      -4.251  45.158  56.307  1.00  0.00     0.197 HD
BRANCH   4   6
HETATM    6  C2  UNL     1      -3.763  45.088  54.486  1.00  0.00     0.721 A
HETATM    7  N3  UNL     1      -3.885  45.051  53.159  1.00  0.00    -0.117 N
HETATM    8  N2  UNL     1      -2.811  44.458  52.604  1.00  0.00    -0.118 N
ATOM      9  H3  UNL     1      -4.680  45.420  52.638  1.00  0.00     0.206 HD
HETATM   10  C1  UNL     1      -2.005  44.121  53.619  1.00  0.00     0.705 A
ATOM     11  H2  UNL     1      -2.645  44.298  51.609  1.00  0.00     0.206 HD
HETATM   12  N1  UNL     1      -0.858  43.524  53.495  1.00  0.00    -0.233 N
HETATM   13  N8  UNL     1      -2.563  44.494  54.761  1.00  0.00    -0.019 N
ATOM     14  H12 UNL     1      -0.429  43.237  52.615  1.00  0.00     0.174 HD
ATOM     15  H11 UNL     1      -0.244  43.267  54.268  1.00  0.00     0.174 HD
ATOM     16  H8  UNL     1      -2.163  44.360  55.690  1.00  0.00     0.203 HD
ENDBRANCH   4   6
ENDBRANCH   1   4
BRANCH   1  17
HETATM   17  C3  UNL     1      -5.422  48.046  56.405  1.00  0.00     0.183 C
BRANCH  17  18
HETATM   18  C4  UNL     1      -5.836  47.815  57.854  1.00  0.00     0.140 C
BRANCH  18  19
HETATM   19  N5  UNL     1      -5.104  46.709  58.424  1.00  0.00    -0.352 N
HETATM   20  C5  UNL     1      -4.813  46.708  59.814  1.00  0.00     0.309 C
HETATM   21  O3  UNL     1      -5.184  47.652  60.543  1.00  0.00    -0.262 OA
ATOM     22  H5  UNL     1      -4.799  45.935  57.833  1.00  0.00     0.162 HD
BRANCH  20  23
HETATM   23  C6  UNL     1      -4.076  45.613  60.443  1.00  0.00     0.309 C
HETATM   24  O4  UNL     1      -4.710  44.869  61.231  1.00  0.00    -0.262 OA
HETATM   25  N6  UNL     1      -2.702  45.385  60.185  1.00  0.00    -0.345 N
ATOM     26  H6  UNL     1      -2.188  45.990  59.544  1.00  0.00     0.163 HD
BRANCH  25  27
HETATM   27  C7  UNL     1      -2.044  44.289  60.839  1.00  0.00     0.222 C
BRANCH  27  28
HETATM   28  C8  UNL     1      -1.234  43.482  59.900  1.00  0.00     0.248 C
HETATM   29  N7  UNL     1      -0.475  42.406  60.427  1.00  0.00    -0.061 NA
HETATM   30  O5  UNL     1      -1.182  43.694  58.668  1.00  0.00    -0.275 OA
ENDBRANCH  27  28
ENDBRANCH  25  27
ENDBRANCH  20  23
ENDBRANCH  18  19
ENDBRANCH  17  18
ENDBRANCH   1  17
TORSDOF 8
ENDMDL