MODEL 2
REMARK VINA RESULT: -5.778457766      1.109      1.319
REMARK  1 active torsions:
REMARK  status: ('A' for Active; 'I' for Inactive)
REMARK    1  A    between atoms: C3_3  and  O1_4
ROOT
HETATM    1  C1  UNL     1     -18.760 -53.876 -13.328  1.00  0.00     0.015 C
HETATM    2  C2  UNL     1     -19.447 -53.237 -12.568  1.00  0.00    -0.076 C
HETATM    3  C3  UNL     1     -20.293 -52.437 -11.652  1.00  0.00     0.151 C
HETATM    4  C4  UNL     1     -19.596 -51.147 -11.424  1.00  0.00     0.059 C
HETATM    5  C5  UNL     1     -20.448 -49.949 -11.299  1.00  0.00    -0.006 C
HETATM    6  C6  UNL     1     -19.831 -48.662 -11.750  1.00  0.00     0.005 C
HETATM    7  C7  UNL     1     -21.033 -47.751 -11.882  1.00  0.00     0.001 C
HETATM    8  C8  UNL     1     -22.244 -48.665 -12.033  1.00  0.00     0.005 C
HETATM    9  C9  UNL     1     -21.652 -49.999 -12.254  1.00  0.00    -0.008 C
HETATM   10  C10 UNL     1     -22.459 -51.163 -11.795  1.00  0.00     0.046 C
HETATM   11  C11 UNL     1     -21.651 -52.380 -12.217  1.00  0.00     0.217 C
HETATM   12  F1  UNL     1     -22.400 -53.490 -11.948  1.00  0.00    -0.245 F
ENDROOT
BRANCH   3  13
HETATM   13  O1  UNL     1     -20.347 -53.193 -10.458  1.00  0.00    -0.374 OA
ATOM     14  H1  UNL     1     -20.872 -52.670  -9.863  1.00  0.00     0.212 HD
ENDBRANCH   3  13
TORSDOF 1
ENDMDL