MODEL 5
REMARK VINA RESULT: -5.000127612      1.626      3.052
REMARK  1 active torsions:
REMARK  status: ('A' for Active; 'I' for Inactive)
REMARK    1  A    between atoms: C2_2  and  O1_3
ROOT
HETATM    1  C1  UNL     1     -18.826 -53.403 -12.809  1.00  0.00     0.050 C
HETATM    2  C2  UNL     1     -20.047 -52.572 -13.011  1.00  0.00     0.094 C
HETATM    3  C3  UNL     1     -20.745 -52.918 -14.290  1.00  0.00     0.024 C
HETATM    4  C4  UNL     1     -21.762 -51.851 -14.593  1.00  0.00     0.012 C
HETATM    5  C5  UNL     1     -22.725 -51.765 -13.441  1.00  0.00    -0.010 C
HETATM    6  C6  UNL     1     -23.488 -53.057 -13.319  1.00  0.00     0.009 C
HETATM    7  C7  UNL     1     -22.507 -54.187 -13.109  1.00  0.00    -0.010 C
HETATM    8  C8  UNL     1     -21.456 -54.246 -14.184  1.00  0.00     0.012 C
HETATM    9  C9  UNL     1     -21.777 -53.927 -11.794  1.00  0.00     0.051 C
HETATM   10  C10 UNL     1     -21.026 -52.626 -11.880  1.00  0.00     0.135 C
HETATM   11  F1  UNL     1     -20.447 -52.397 -10.651  1.00  0.00    -0.240 F
HETATM   12  C11 UNL     1     -22.043 -51.507 -12.121  1.00  0.00     0.051 C
ENDROOT
BRANCH   2  13
HETATM   13  O1  UNL     1     -19.631 -51.223 -13.125  1.00  0.00    -0.386 OA
ATOM     14  H1  UNL     1     -19.851 -50.929 -14.001  1.00  0.00     0.210 HD
ENDBRANCH   2  13
TORSDOF 1
ENDMDL