MODEL 2
REMARK VINA RESULT: -4.915819842      1.998      2.963
REMARK  1 active torsions:
REMARK  status: ('A' for Active; 'I' for Inactive)
REMARK    1  A    between atoms: O1_1  and  C1_3
ROOT
HETATM    1  C1  UNL     1     -22.008 -51.083 -12.859  1.00  0.00     0.062 C
HETATM    2  C2  UNL     1     -22.594 -52.119 -11.948  1.00  0.00     0.042 C
HETATM    3  C3  UNL     1     -21.993 -53.464 -12.048  1.00  0.00    -0.009 C
HETATM    4  C4  UNL     1     -20.719 -53.629 -11.232  1.00  0.00     0.005 C
HETATM    5  C5  UNL     1     -19.567 -52.933 -11.866  1.00  0.00     0.008 C
HETATM    6  C6  UNL     1     -19.908 -52.091 -13.048  1.00  0.00     0.028 C
HETATM    7  C7  UNL     1     -20.552 -50.812 -12.558  1.00  0.00     0.045 C
HETATM    8  C8  UNL     1     -20.827 -52.716 -14.036  1.00  0.00     0.110 C
HETATM    9  F1  UNL     1     -20.220 -53.092 -15.197  1.00  0.00    -0.242 F
HETATM   10  C9  UNL     1     -21.622 -53.873 -13.462  1.00  0.00     0.048 C
HETATM   11  C10 UNL     1     -21.881 -51.623 -14.276  1.00  0.00     0.081 C
ENDROOT
BRANCH   1  12
HETATM   12  O1  UNL     1     -22.756 -49.932 -12.802  1.00  0.00    -0.390 OA
ATOM     13  H1  UNL     1     -22.295 -49.224 -13.237  1.00  0.00     0.210 HD
ENDBRANCH   1  12
TORSDOF 1
ENDMDL