MODEL 3
REMARK VINA RESULT: -4.987985330      1.521      2.643
REMARK  2 active torsions:
REMARK  status: ('A' for Active; 'I' for Inactive)
REMARK    1  A    between atoms: N1_1  and  C1_5
REMARK    2  A    between atoms: C1_5  and  C2_6
ROOT
HETATM    1  C2  UNL     1     -21.475 -51.578 -12.418  1.00  0.00    -0.013 C
HETATM    2  C3  UNL     1     -20.321 -51.759 -11.439  1.00  0.00     0.016 C
HETATM    3  C4  UNL     1     -19.776 -53.169 -11.582  1.00  0.00    -0.010 C
HETATM    4  C5  UNL     1     -19.270 -53.291 -13.010  1.00  0.00     0.009 C
HETATM    5  C6  UNL     1     -20.414 -53.155 -13.976  1.00  0.00    -0.010 C
HETATM    6  C7  UNL     1     -21.459 -54.194 -13.640  1.00  0.00     0.048 C
HETATM    7  C8  UNL     1     -22.008 -53.948 -12.273  1.00  0.00     0.105 C
HETATM    8  F1  UNL     1     -22.997 -54.874 -11.982  1.00  0.00    -0.243 F
HETATM    9  C9  UNL     1     -20.867 -54.158 -11.276  1.00  0.00     0.048 C
HETATM   10  C10 UNL     1     -22.540 -52.564 -12.068  1.00  0.00     0.054 C
HETATM   11  C11 UNL     1     -21.007 -51.790 -13.843  1.00  0.00     0.016 C
ENDROOT
BRANCH   1  12
HETATM   12  C1  UNL     1     -21.920 -50.142 -12.304  1.00  0.00     0.239 C
BRANCH  12  13
HETATM   13  N1  UNL     1     -22.814 -49.910 -11.200  1.00  0.00    -0.079 N
ATOM     14  H13 UNL     1     -23.663 -49.438 -11.514  1.00  0.00     0.274 HD
ATOM     15  H12 UNL     1     -23.221 -50.786 -10.872  1.00  0.00     0.274 HD
ATOM     16  H11 UNL     1     -22.380 -49.401 -10.430  1.00  0.00     0.274 HD
ENDBRANCH  12  13
ENDBRANCH   1  12
TORSDOF 2
ENDMDL