MODEL 2
REMARK VINA RESULT: -4.987899450      1.982      3.040
REMARK  1 active torsions:
REMARK  status: ('A' for Active; 'I' for Inactive)
REMARK    1  A    between atoms: N1_1  and  C1_5
ROOT
HETATM    1  C1  UNL     1     -20.426 -52.010 -12.640  1.00  0.00     0.127 C
HETATM    2  C2  UNL     1     -20.681 -51.988 -14.100  1.00  0.00     0.043 C
HETATM    3  C3  UNL     1     -22.067 -52.302 -14.523  1.00  0.00    -0.012 C
HETATM    4  C4  UNL     1     -22.278 -53.766 -14.710  1.00  0.00     0.008 C
HETATM    5  C5  UNL     1     -21.541 -54.635 -13.751  1.00  0.00     0.044 C
HETATM    6  C6  UNL     1     -21.564 -54.174 -12.334  1.00  0.00     0.106 C
HETATM    7  F1  UNL     1     -21.492 -55.314 -11.518  1.00  0.00    -0.243 F
HETATM    8  C7  UNL     1     -22.807 -53.461 -11.979  1.00  0.00     0.048 C
HETATM    9  C8  UNL     1     -22.807 -51.994 -12.154  1.00  0.00    -0.009 C
HETATM   10  C9  UNL     1     -23.094 -51.663 -13.615  1.00  0.00     0.009 C
HETATM   11  C10 UNL     1     -21.495 -51.322 -11.821  1.00  0.00     0.043 C
HETATM   12  C11 UNL     1     -20.295 -53.402 -12.065  1.00  0.00     0.082 C
ENDROOT
BRANCH   1  13
HETATM   13  N1  UNL     1     -19.158 -51.299 -12.402  1.00  0.00    -0.070 N
ATOM     14  H13 UNL     1     -18.391 -51.925 -12.159  1.00  0.00     0.275 HD
ATOM     15  H12 UNL     1     -18.751 -50.914 -13.256  1.00  0.00     0.275 HD
ATOM     16  H11 UNL     1     -19.334 -50.590 -11.690  1.00  0.00     0.275 HD
ENDBRANCH   1  13
TORSDOF 1
ENDMDL