MODEL 4
REMARK VINA RESULT: -4.718761066      1.782      2.505
REMARK  0 active torsions:
REMARK  status: ('A' for Active; 'I' for Inactive)
ROOT
HETATM    1  C1  UNL     1     -22.952 -51.847 -14.228  1.00  0.00     0.015 C
HETATM    2  C2  UNL     1     -22.242 -52.050 -12.885  1.00  0.00    -0.040 C
HETATM    3  C3  UNL     1     -23.336 -51.941 -11.838  1.00  0.00     0.015 C
HETATM    4  C4  UNL     1     -21.574 -53.381 -12.830  1.00  0.00     0.046 C
HETATM    5  C5  UNL     1     -20.111 -53.414 -12.843  1.00  0.00     0.171 C
HETATM    6  F1  UNL     1     -19.603 -53.655 -14.130  1.00  0.00    -0.249 F
HETATM    7  C6  UNL     1     -19.386 -52.233 -12.313  1.00  0.00     0.044 C
HETATM    8  C7  UNL     1     -20.315 -51.287 -11.629  1.00  0.00     0.020 C
HETATM    9  C8  UNL     1     -19.739 -49.939 -11.340  1.00  0.00     0.237 C
HETATM   10  N1  UNL     1     -20.774 -48.956 -11.596  1.00  0.00    -0.074 N
ATOM     11  H11 UNL     1     -20.468 -48.203 -12.212  1.00  0.00     0.277 HD
ATOM     12  H12 UNL     1     -20.988 -48.379 -10.782  1.00  0.00     0.277 HD
HETATM   13  C9  UNL     1     -21.927 -49.677 -12.104  1.00  0.00     0.238 C
HETATM   14  C10 UNL     1     -21.324 -50.886 -12.721  1.00  0.00     0.025 C
ENDROOT
TORSDOF 0
ENDMDL