MODEL 5
REMARK VINA RESULT: -5.148148088      1.604      2.909
REMARK  1 active torsions:
REMARK  status: ('A' for Active; 'I' for Inactive)
REMARK    1  A    between atoms: O1_1  and  C1_3
ROOT
HETATM    1  C1  UNL     1     -22.441 -52.399 -14.039  1.00  0.00     0.162 C
HETATM    2  C2  UNL     1     -23.039 -52.448 -12.681  1.00  0.00     0.018 C
HETATM    3  C3  UNL     1     -22.999 -53.802 -12.057  1.00  0.00     0.012 C
HETATM    4  C4  UNL     1     -21.551 -54.282 -11.974  1.00  0.00    -0.014 C
HETATM    5  C5  UNL     1     -21.040 -54.760 -13.292  1.00  0.00     0.008 C
HETATM    6  C6  UNL     1     -20.365 -53.753 -14.133  1.00  0.00     0.046 C
HETATM    7  C7  UNL     1     -20.962 -52.380 -14.094  1.00  0.00     0.130 C
HETATM    8  F1  UNL     1     -20.592 -51.751 -15.293  1.00  0.00    -0.240 F
HETATM    9  C8  UNL     1     -20.297 -51.607 -12.993  1.00  0.00     0.051 C
HETATM   10  C9  UNL     1     -20.923 -51.870 -11.634  1.00  0.00    -0.010 C
HETATM   11  C10 UNL     1     -20.695 -53.290 -11.282  1.00  0.00     0.009 C
HETATM   12  C11 UNL     1     -22.373 -51.475 -11.736  1.00  0.00     0.012 C
ENDROOT
BRANCH   1  13
HETATM   13  O1  UNL     1     -23.036 -51.332 -14.732  1.00  0.00    -0.392 OA
ATOM     14  H1  UNL     1     -23.347 -51.665 -15.566  1.00  0.00     0.210 HD
ENDBRANCH   1  13
TORSDOF 1
ENDMDL