MODEL 1
REMARK VINA RESULT: -4.779555086      0.000      0.000
REMARK  1 active torsions:
REMARK  status: ('A' for Active; 'I' for Inactive)
REMARK    1  A    between atoms: N1_1  and  C1_5
ROOT
HETATM    1  C1  UNL     1     -21.924 -51.053 -12.571  1.00  0.00     0.125 C
HETATM    2  C2  UNL     1     -21.297 -51.497 -13.865  1.00  0.00     0.045 C
HETATM    3  C3  UNL     1     -20.528 -52.771 -13.739  1.00  0.00     0.007 C
HETATM    4  C4  UNL     1     -21.383 -53.877 -13.121  1.00  0.00     0.011 C
HETATM    5  C5  UNL     1     -21.675 -53.234 -11.758  1.00  0.00    -0.006 C
HETATM    6  C6  UNL     1     -22.783 -52.210 -12.046  1.00  0.00     0.043 C
HETATM    7  C7  UNL     1     -20.448 -52.455 -11.420  1.00  0.00     0.011 C
HETATM    8  C8  UNL     1     -20.894 -50.989 -11.444  1.00  0.00     0.045 C
HETATM    9  C9  UNL     1     -19.502 -52.575 -12.623  1.00  0.00     0.091 C
HETATM   10 CL1  UNL     1     -18.402 -53.923 -12.472  1.00  0.00    -0.124 Cl
ENDROOT
BRANCH   1  11
HETATM   11  N1  UNL     1     -22.658 -49.848 -12.729  1.00  0.00    -0.070 N
ATOM     12  H13 UNL     1     -22.737 -49.587 -13.712  1.00  0.00     0.275 HD
ATOM     13  H12 UNL     1     -23.647 -49.983 -12.521  1.00  0.00     0.275 HD
ATOM     14  H11 UNL     1     -22.261 -49.090 -12.174  1.00  0.00     0.275 HD
ENDBRANCH   1  11
TORSDOF 1
ENDMDL