MODEL 1
REMARK VINA RESULT: -5.391569308      0.000      0.000
REMARK  2 active torsions:
REMARK  status: ('A' for Active; 'I' for Inactive)
REMARK    1  A    between atoms: C1_4  and  N2_5
REMARK    2  A    between atoms: C1_4  and  C2_8
ROOT
HETATM    1  C2  UNL     1     -20.998 -50.481 -11.586  1.00  0.00     0.058 C
HETATM    2  C3  UNL     1     -22.069 -50.181 -12.608  1.00  0.00     0.020 C
HETATM    3  C4  UNL     1     -22.138 -51.531 -13.326  1.00  0.00     0.021 C
HETATM    4  C5  UNL     1     -20.624 -51.714 -13.548  1.00  0.00     0.013 C
HETATM    5  C6  UNL     1     -20.273 -51.723 -12.055  1.00  0.00    -0.000 C
HETATM    6  C7  UNL     1     -21.109 -52.900 -11.608  1.00  0.00     0.043 C
HETATM    7  C8  UNL     1     -22.405 -52.663 -12.386  1.00  0.00     0.174 C
HETATM    8  F1  UNL     1     -23.469 -52.443 -11.548  1.00  0.00    -0.249 F
ENDROOT
BRANCH   1   9
HETATM    9  C1  UNL     1     -20.027 -49.399 -11.373  1.00  0.00     0.086 C
HETATM   10  N1  UNL     1     -18.837 -49.520 -10.917  1.00  0.00    -0.388 N
ATOM     11  H12 UNL     1     -18.163 -48.769 -10.769  1.00  0.00     0.157 HD
ATOM     12  H11 UNL     1     -18.531 -50.463 -10.676  1.00  0.00     0.157 HD
BRANCH   9  13
HETATM   13  N2  UNL     1     -20.454 -48.082 -11.710  1.00  0.00    -0.309 N
HETATM   14  S1  UNL     1     -19.464 -46.831 -11.801  1.00  0.00     0.043 SA
ATOM     15  H2  UNL     1     -21.445 -47.930 -11.904  1.00  0.00     0.176 HD
ENDBRANCH   9  13
ENDBRANCH   1   9
TORSDOF 2
ENDMDL