MODEL 4
REMARK VINA RESULT: -4.924979252      1.690      2.273
REMARK  1 active torsions:
REMARK  status: ('A' for Active; 'I' for Inactive)
REMARK    1  A    between atoms: C6_6  and  O1_8
ROOT
HETATM    1  C1  UNL     1     -20.795 -56.045 -11.326  1.00  0.00     0.014 C
HETATM    2  C2  UNL     1     -20.586 -54.563 -11.414  1.00  0.00     0.030 C
HETATM    3  C3  UNL     1     -21.609 -53.890 -12.303  1.00  0.00    -0.032 C
HETATM    4  C4  UNL     1     -22.986 -54.443 -12.227  1.00  0.00     0.016 C
HETATM    5  C5  UNL     1     -21.577 -52.399 -12.189  1.00  0.00     0.047 C
HETATM    6  C6  UNL     1     -20.195 -51.823 -12.448  1.00  0.00     0.058 C
HETATM    7  C7  UNL     1     -20.002 -50.691 -11.453  1.00  0.00     0.046 C
HETATM    8  C8  UNL     1     -19.105 -52.841 -12.286  1.00  0.00     0.081 C
HETATM    9  C9  UNL     1     -19.573 -54.239 -12.520  1.00  0.00     0.111 C
HETATM   10  F1  UNL     1     -18.619 -55.173 -12.727  1.00  0.00    -0.242 F
HETATM   11  C10 UNL     1     -20.769 -54.294 -13.480  1.00  0.00     0.053 C
ENDROOT
BRANCH   6  12
HETATM   12  O1  UNL     1     -20.154 -51.227 -13.730  1.00  0.00    -0.390 OA
ATOM     13  H1  UNL     1     -20.132 -50.280 -13.645  1.00  0.00     0.210 HD
ENDBRANCH   6  12
TORSDOF 1
ENDMDL