MODEL 1
REMARK VINA RESULT: -4.118847818      0.000      0.000
REMARK  2 active torsions:
REMARK  status: ('A' for Active; 'I' for Inactive)
REMARK    1  A    between atoms: C4_5  and  N1_6
REMARK    2  A    between atoms: N1_6  and  C5_8
ROOT
HETATM    1  C1  UNL     1      52.893  20.348  11.416  1.00  0.00     0.041 C
HETATM    2  C2  UNL     1      51.739  19.825  12.232  1.00  0.00     0.194 C
HETATM    3  C3  UNL     1      50.398  20.273  11.638  1.00  0.00     0.110 C
HETATM    4  S1  UNL     1      50.367  21.993  12.295  1.00  0.00    -0.114 SA
HETATM    5  C4  UNL     1      51.788  21.833  13.413  1.00  0.00     0.344 C
HETATM    6  N2  UNL     1      51.808  20.364  13.552  1.00  0.00    -0.041 N
ATOM      7  H21 UNL     1      52.607  20.021  14.085  1.00  0.00     0.281 HD
ATOM      8  H22 UNL     1      51.079  20.008  14.170  1.00  0.00     0.281 HD
ENDROOT
BRANCH   5   9
HETATM    9  N1  UNL     1      51.649  22.446  14.669  1.00  0.00    -0.380 N
ATOM     10  H1  UNL     1      50.778  22.358  15.193  1.00  0.00     0.156 HD
BRANCH   9  11
HETATM   11  C5  UNL     1      52.732  23.188  15.199  1.00  0.00     0.017 C
HETATM   12  C6  UNL     1      53.924  22.372  15.605  1.00  0.00     0.037 C
HETATM   13  C7  UNL     1      53.187  24.145  14.095  1.00  0.00     0.037 C
HETATM   14  C8  UNL     1      52.309  24.043  16.379  1.00  0.00     0.037 C
ENDBRANCH   9  11
ENDBRANCH   5   9
TORSDOF 2
ENDMDL