MODEL 2
REMARK VINA RESULT: -4.896003672      1.180      1.541
REMARK  2 active torsions:
REMARK  status: ('A' for Active; 'I' for Inactive)
REMARK    1  A    between atoms: O1_1  and  C1_3
REMARK    2  A    between atoms: C8_11  and  O2_12
ROOT
HETATM    1  C1  UNL     1      52.912  19.310  12.188  1.00  0.00     0.157 C
HETATM    2  C2  UNL     1      54.122  20.105  12.620  1.00  0.00     0.035 C
HETATM    3  C3  UNL     1      54.550  21.120  11.591  1.00  0.00     0.003 C
HETATM    4  C4  UNL     1      55.103  22.361  12.230  1.00  0.00     0.000 C
HETATM    5  C5  UNL     1      54.091  23.144  13.004  1.00  0.00     0.001 C
HETATM    6  C6  UNL     1      52.919  23.601  12.211  1.00  0.00     0.010 C
HETATM    7  C7  UNL     1      51.614  22.963  12.704  1.00  0.00     0.076 C
HETATM    8  S1  UNL     1      51.237  21.445  11.820  1.00  0.00    -0.135 SA
HETATM    9  C8  UNL     1      51.653  19.970  12.740  1.00  0.00     0.208 C
ENDROOT
BRANCH   1  10
HETATM   10  O1  UNL     1      52.967  18.042  12.805  1.00  0.00    -0.392 OA
ATOM     11  H1  UNL     1      52.104  17.834  13.144  1.00  0.00     0.210 HD
ENDBRANCH   1  10
BRANCH   9  12
HETATM   12  O2  UNL     1      51.863  20.223  14.100  1.00  0.00    -0.383 OA
ATOM     13  H2  UNL     1      51.670  21.139  14.259  1.00  0.00     0.211 HD
ENDBRANCH   9  12
TORSDOF 2
ENDMDL