MODEL 2
REMARK VINA RESULT: -5.716620259      1.414      1.948
REMARK  3 active torsions:
REMARK  status: ('A' for Active; 'I' for Inactive)
REMARK    1  A    between atoms: O1_2  and  C2_3
REMARK    2  A    between atoms: C2_3  and  O2_7
REMARK    3  A    between atoms: O2_7  and  C3_8
ROOT
HETATM    1  C3  UNL     1      50.271  20.555  12.184  1.00  0.00     0.160 C
HETATM    2  C4  UNL     1      51.208  19.406  12.130  1.00  0.00     0.265 C
HETATM    3  N2  UNL     1      52.335  19.895  12.944  1.00  0.00    -0.065 N
ATOM      4  H21 UNL     1      53.211  19.409  12.748  1.00  0.00     0.278 HD
ATOM      5  H22 UNL     1      52.261  19.636  13.928  1.00  0.00     0.278 HD
HETATM    6  C5  UNL     1      52.416  21.303  12.739  1.00  0.00     0.121 C
HETATM    7  C6  UNL     1      52.209  22.060  14.058  1.00  0.00     0.046 C
HETATM    8  C7  UNL     1      53.748  21.693  12.183  1.00  0.00     0.046 C
HETATM    9  C8  UNL     1      51.260  21.700  11.833  1.00  0.00     0.072 C
ENDROOT
BRANCH   1  10
HETATM   10  O2  UNL     1      49.181  20.572  11.347  1.00  0.00    -0.310 OA
BRANCH  10  11
HETATM   11  C2  UNL     1      47.925  20.225  11.707  1.00  0.00     0.258 C
HETATM   12  N1  UNL     1      47.510  19.054  11.425  1.00  0.00    -0.359 N
ATOM     13  H12 UNL     1      46.562  18.793  11.697  1.00  0.00     0.160 HD
ATOM     14  H11 UNL     1      48.190  18.469  10.941  1.00  0.00     0.160 HD
BRANCH  11  15
HETATM   15  O1  UNL     1      46.989  21.033  12.375  1.00  0.00    -0.322 OA
HETATM   16  C1  UNL     1      45.623  20.640  12.350  1.00  0.00     0.213 C
ENDBRANCH  11  15
ENDBRANCH  10  11
ENDBRANCH   1  10
TORSDOF 3
ENDMDL