MODEL 1
REMARK VINA RESULT: -4.893319891      0.000      0.000
REMARK  1 active torsions:
REMARK  status: ('A' for Active; 'I' for Inactive)
REMARK    1  A    between atoms: C8_12  and  O1_13
ROOT
HETATM    1  N1  UNL     1      51.323  23.505  13.846  1.00  0.00    -0.395 N
ATOM      2  H11 UNL     1      51.916  23.916  14.567  1.00  0.00     0.156 HD
ATOM      3  H12 UNL     1      50.664  24.255  13.637  1.00  0.00     0.156 HD
HETATM    4  C1  UNL     1      51.445  22.337  13.377  1.00  0.00     0.070 C
HETATM    5  S1  UNL     1      50.409  21.618  12.115  1.00  0.00    -0.114 SA
HETATM    6  C2  UNL     1      51.613  20.340  11.566  1.00  0.00     0.093 C
HETATM    7  C3  UNL     1      52.835  20.638  12.385  1.00  0.00     0.001 C
HETATM    8  C4  UNL     1      53.567  19.366  12.675  1.00  0.00     0.013 C
HETATM    9  C5  UNL     1      54.971  19.825  13.019  1.00  0.00     0.001 C
HETATM   10  C6  UNL     1      55.100  21.240  12.527  1.00  0.00     0.001 C
HETATM   11  C7  UNL     1      53.852  21.474  11.686  1.00  0.00     0.013 C
HETATM   12  C8  UNL     1      52.400  21.251  13.680  1.00  0.00     0.183 C
ENDROOT
BRANCH  12  13
HETATM   13  O1  UNL     1      51.710  20.278  14.400  1.00  0.00    -0.388 OA
ATOM     14  H1  UNL     1      51.881  19.442  13.983  1.00  0.00     0.210 HD
ENDBRANCH  12  13
TORSDOF 1
ENDMDL