MODEL 2
REMARK VINA RESULT: -5.552035890      2.376      4.236
REMARK  1 active torsions:
REMARK  status: ('A' for Active; 'I' for Inactive)
REMARK    1  A    between atoms: O1_1  and  N1_3
ROOT
HETATM    1  N1  UNL     1      54.347  18.146  13.129  1.00  0.00    -0.257 N
ATOM      2  H1  UNL     1      55.303  18.136  12.773  1.00  0.00     0.195 HD
HETATM    3  C1  UNL     1      53.465  18.847  12.492  1.00  0.00     0.098 C
HETATM    4  C2  UNL     1      53.738  19.648  11.269  1.00  0.00     0.080 C
HETATM    5  C3  UNL     1      52.805  20.837  11.483  1.00  0.00     0.038 C
HETATM    6  C4  UNL     1      51.601  20.266  12.171  1.00  0.00     0.032 C
HETATM    7  C5  UNL     1      51.203  21.181  13.305  1.00  0.00     0.031 C
HETATM    8  C6  UNL     1      50.482  22.356  12.740  1.00  0.00     0.002 C
HETATM    9  C7  UNL     1      49.159  21.914  12.191  1.00  0.00     0.000 C
HETATM   10  C8  UNL     1      49.162  20.531  11.630  1.00  0.00     0.002 C
HETATM   11  C9  UNL     1      50.511  20.055  11.175  1.00  0.00     0.031 C
HETATM   12  N2  UNL     1      52.082  19.034  12.769  1.00  0.00    -0.369 N
ATOM     13  H2  UNL     1      51.508  18.391  13.314  1.00  0.00     0.161 HD
ENDROOT
BRANCH   1  14
HETATM   14  O1  UNL     1      54.074  17.424  14.244  1.00  0.00    -0.288 OA
ATOM     15  H1  UNL     1      54.473  17.587  15.091  1.00  0.00     0.244 HD
ENDBRANCH   1  14
TORSDOF 1
ENDMDL