MODEL 3
REMARK VINA RESULT: -4.614633099      1.404      4.512
REMARK  0 active torsions:
REMARK  status: ('A' for Active; 'I' for Inactive)
ROOT
HETATM    1  C1  UNL     1      51.295  21.929  12.127  1.00  0.00     0.002 C
HETATM    2  C2  UNL     1      51.034  22.971  13.146  1.00  0.00     0.002 C
HETATM    3  C3  UNL     1      52.191  23.478  13.896  1.00  0.00     0.027 C
HETATM    4  C4  UNL     1      53.502  22.834  13.614  1.00  0.00     0.232 C
HETATM    5  N1  UNL     1      53.689  21.581  14.360  1.00  0.00    -0.075 N
ATOM      6  H11 UNL     1      52.962  20.892  14.168  1.00  0.00     0.277 HD
ATOM      7  H12 UNL     1      53.515  21.684  15.359  1.00  0.00     0.277 HD
HETATM    8  C5  UNL     1      55.012  21.096  14.068  1.00  0.00     0.232 C
HETATM    9  C6  UNL     1      55.027  20.108  12.912  1.00  0.00     0.029 C
HETATM   10  C7  UNL     1      54.081  18.958  13.129  1.00  0.00     0.021 C
HETATM   11  C8  UNL     1      53.054  18.842  12.006  1.00  0.00     0.113 C
HETATM   12  N2  UNL     1      51.726  18.988  12.521  1.00  0.00    -0.421 N
ATOM     13  H2  UNL     1      51.470  18.708  13.468  1.00  0.00     0.153 HD
HETATM   14  C9  UNL     1      50.786  19.555  11.608  1.00  0.00     0.113 C
HETATM   15  C10 UNL     1      50.189  20.864  12.127  1.00  0.00     0.019 C
ENDROOT
TORSDOF 0
ENDMDL