MODEL 4
REMARK VINA RESULT: -5.047834682      1.058      1.168
REMARK  0 active torsions:
REMARK  status: ('A' for Active; 'I' for Inactive)
ROOT
HETATM    1  N1  UNL     1      49.661  18.916  11.025  1.00  0.00    -0.379 N
ATOM      2  H11 UNL     1      48.864  19.268  10.495  1.00  0.00     0.158 HD
ATOM      3  H12 UNL     1      49.894  17.928  10.925  1.00  0.00     0.158 HD
HETATM    4  C1  UNL     1      50.383  19.635  11.809  1.00  0.00     0.158 C
HETATM    5  N2  UNL     1      51.492  19.144  12.547  1.00  0.00    -0.244 N
ATOM      6  H2  UNL     1      51.726  18.158  12.438  1.00  0.00     0.196 HD
HETATM    7  O1  UNL     1      52.245  19.860  13.366  1.00  0.00    -0.266 OA
HETATM    8  C2  UNL     1      52.446  21.160  13.041  1.00  0.00     0.098 C
HETATM    9  C3  UNL     1      53.042  21.396  11.682  1.00  0.00     0.041 C
HETATM   10  C4  UNL     1      54.421  21.973  11.910  1.00  0.00     0.003 C
HETATM   11  C5  UNL     1      54.214  22.743  13.218  1.00  0.00     0.003 C
HETATM   12  C6  UNL     1      53.461  21.739  14.037  1.00  0.00     0.041 C
HETATM   13  C7  UNL     1      51.213  22.045  13.156  1.00  0.00     0.123 C
HETATM   14  S1  UNL     1      49.975  21.365  11.985  1.00  0.00    -0.090 SA
ENDROOT
TORSDOF 0
ENDMDL