MODEL 5
REMARK VINA RESULT: -5.491041949      2.200      3.911
REMARK  2 active torsions:
REMARK  status: ('A' for Active; 'I' for Inactive)
REMARK    1  A    between atoms: N1_2  and  O1_3
REMARK    2  A    between atoms: N1_2  and  N2_5
ROOT
HETATM    1  N2  UNL     1      53.272  22.453  13.602  1.00  0.00    -0.268 N
ATOM      2  H2  UNL     1      54.290  22.408  13.551  1.00  0.00     0.190 HD
HETATM    3  C2  UNL     1      52.603  21.574  12.964  1.00  0.00     0.098 C
HETATM    4  N3  UNL     1      53.196  20.537  12.189  1.00  0.00    -0.378 N
ATOM      5  H3  UNL     1      54.173  20.245  12.198  1.00  0.00     0.160 HD
HETATM    6  C3  UNL     1      52.120  19.982  11.381  1.00  0.00     0.126 C
HETATM    7  C4  UNL     1      50.944  20.080  12.326  1.00  0.00     0.015 C
HETATM    8  C5  UNL     1      49.641  19.769  11.741  1.00  0.00     0.007 C
HETATM    9  C6  UNL     1      48.784  20.888  11.296  1.00  0.00     0.000 C
HETATM   10  C7  UNL     1      49.015  22.190  12.017  1.00  0.00     0.001 C
HETATM   11  C8  UNL     1      50.520  22.452  11.943  1.00  0.00     0.013 C
HETATM   12  C9  UNL     1      51.110  21.455  12.901  1.00  0.00     0.060 C
ENDROOT
BRANCH   1  13
HETATM   13  N1  UNL     1      52.701  23.469  14.363  1.00  0.00    -0.205 N
HETATM   14  C1  UNL     1      52.459  23.217  15.768  1.00  0.00     0.207 C
BRANCH  13  15
HETATM   15  O1  UNL     1      52.365  24.681  13.843  1.00  0.00    -0.273 OA
ATOM     16  H1  UNL     1      53.014  25.165  13.347  1.00  0.00     0.246 HD
ENDBRANCH  13  15
ENDBRANCH   1  13
TORSDOF 2
ENDMDL