MODEL 3
REMARK VINA RESULT: -4.340247226      2.861      3.333
REMARK  0 active torsions:
REMARK  status: ('A' for Active; 'I' for Inactive)
ROOT
HETATM    1  S1  UNL     1      49.047  21.610  11.380  1.00  0.00    -0.081 SA
HETATM    2  C1  UNL     1      50.395  21.007  12.463  1.00  0.00     0.122 C
HETATM    3  C2  UNL     1      50.732  19.626  12.014  1.00  0.00     0.052 C
HETATM    4  C3  UNL     1      52.218  19.440  12.131  1.00  0.00     0.092 C
HETATM    5  N1  UNL     1      52.574  19.542  13.508  1.00  0.00    -0.416 N
ATOM      6  H1  UNL     1      51.944  19.251  14.254  1.00  0.00     0.153 HD
HETATM    7  C4  UNL     1      53.865  20.075  13.772  1.00  0.00     0.114 C
HETATM    8  C5  UNL     1      54.838  19.970  12.647  1.00  0.00     0.020 C
HETATM    9  C6  UNL     1      54.284  20.700  11.455  1.00  0.00     0.019 C
HETATM   10  C7  UNL     1      52.824  20.553  11.277  1.00  0.00     0.071 C
HETATM   11  S2  UNL     1      51.887  21.968  11.985  1.00  0.00    -0.146 SA
ENDROOT
TORSDOF 0
ENDMDL