MODEL 4
REMARK VINA RESULT: -7.192587419      3.361      8.680
REMARK  11 active torsions:
REMARK  status: ('A' for Active; 'I' for Inactive)
REMARK    1  A    between atoms: C2_2  and  O1_3
REMARK    2  A    between atoms: C2_2  and  C3_5
REMARK    3  A    between atoms: C3_5  and  N1_6
REMARK    4  A    between atoms: N1_6  and  C4_7
REMARK    5  A    between atoms: N1_6  and  C8_12
REMARK    6  A    between atoms: C4_7  and  C5_8
REMARK    7  A    between atoms: C5_8  and  N2_9
REMARK    8  A    between atoms: C22_26  and  O2_27
REMARK    9  A    between atoms: C23_29  and  C25_31
REMARK   10  A    between atoms: C25_31  and  O3_32
REMARK   11  A    between atoms: C26_34  and  O4_35
ROOT
HETATM    1  C8  UNL     1     -25.668 -55.804 -15.954  1.00  0.00     0.050 C
HETATM    2  C9  UNL     1     -25.269 -57.082 -15.189  1.00  0.00     0.043 C
HETATM    3  C10 UNL     1     -24.340 -55.520 -16.670  1.00  0.00     0.007 C
HETATM    4  C11 UNL     1     -23.526 -54.556 -16.410  1.00  0.00    -0.070 C
HETATM    5  C12 UNL     1     -22.286 -54.519 -17.291  1.00  0.00     0.036 C
HETATM    6  C13 UNL     1     -21.209 -54.902 -16.304  1.00  0.00     0.016 C
HETATM    7  C14 UNL     1     -21.061 -53.617 -15.469  1.00  0.00    -0.011 C
HETATM    8  C15 UNL     1     -20.472 -52.609 -16.382  1.00  0.00     0.018 C
HETATM    9  C16 UNL     1     -19.960 -53.999 -14.464  1.00  0.00     0.012 C
HETATM   10  C17 UNL     1     -19.994 -53.188 -13.233  1.00  0.00     0.007 C
HETATM   11  C18 UNL     1     -20.744 -51.871 -13.348  1.00  0.00     0.005 C
HETATM   12  C19 UNL     1     -22.065 -51.950 -14.046  1.00  0.00     0.027 C
HETATM   13  C20 UNL     1     -23.214 -51.463 -13.195  1.00  0.00     0.010 C
HETATM   14  C21 UNL     1     -22.706 -50.121 -12.615  1.00  0.00     0.033 C
HETATM   15  C22 UNL     1     -21.870 -50.557 -11.469  1.00  0.00     0.128 C
HETATM   16  C23 UNL     1     -20.641 -51.218 -12.027  1.00  0.00     0.007 C
HETATM   17  C24 UNL     1     -20.226 -52.163 -10.887  1.00  0.00     0.020 C
HETATM   18  C26 UNL     1     -22.301 -53.272 -14.730  1.00  0.00     0.080 C
HETATM   19  C27 UNL     1     -23.619 -53.504 -15.363  1.00  0.00     0.011 C
HETATM   20  C28 UNL     1     -24.286 -52.350 -16.035  1.00  0.00     0.023 C
HETATM   21  C29 UNL     1     -24.602 -54.153 -14.405  1.00  0.00     0.019 C
HETATM   22  C30 UNL     1     -25.870 -54.665 -15.048  1.00  0.00     0.036 C
ENDROOT
BRANCH   1  23
HETATM   23  N1  UNL     1     -26.662 -56.089 -16.939  1.00  0.00    -0.357 N
BRANCH  23  24
HETATM   24  C3  UNL     1     -26.481 -55.659 -18.251  1.00  0.00     0.095 C
BRANCH  24  25
HETATM   25  C2  UNL     1     -26.833 -54.330 -18.787  1.00  0.00     0.152 C
HETATM   26  C1  UNL     1     -25.752 -53.586 -19.573  1.00  0.00     0.045 C
BRANCH  25  27
HETATM   27  O1  UNL     1     -27.830 -54.521 -19.843  1.00  0.00    -0.391 OA
ATOM     28  H1  UNL     1     -27.347 -55.092 -20.428  1.00  0.00     0.210 HD
ENDBRANCH  25  27
ENDBRANCH  24  25
ENDBRANCH  23  24
BRANCH  23  29
HETATM   29  C4  UNL     1     -27.785 -56.842 -16.735  1.00  0.00     0.094 C
BRANCH  29  30
HETATM   30  C5  UNL     1     -28.926 -56.523 -15.862  1.00  0.00     0.316 C
BRANCH  30  31
HETATM   31  N2  UNL     1     -29.055 -57.349 -14.688  1.00  0.00     0.084 N
HETATM   32  C6  UNL     1     -30.410 -57.864 -14.498  1.00  0.00     0.309 C
HETATM   33  C7  UNL     1     -28.776 -56.524 -13.524  1.00  0.00     0.309 C
ENDBRANCH  30  31
ENDBRANCH  29  30
ENDBRANCH  23  29
ENDBRANCH   1  23
BRANCH  18  34
HETATM   34  O4  UNL     1     -22.310 -54.193 -13.626  1.00  0.00    -0.388 OA
ATOM     35  H4  UNL     1     -23.177 -54.579 -13.660  1.00  0.00     0.210 HD
ENDBRANCH  18  34
BRANCH  16  36
HETATM   36  C25 UNL     1     -19.557 -50.127 -11.979  1.00  0.00     0.176 C
BRANCH  36  37
HETATM   37  O3  UNL     1     -18.857 -50.118 -10.806  1.00  0.00    -0.400 OA
ATOM     38  H3  UNL     1     -18.437 -49.285 -10.629  1.00  0.00     0.209 HD
ENDBRANCH  36  37
ENDBRANCH  16  36
BRANCH  15  39
HETATM   39  O2  UNL     1     -21.583 -49.466 -10.665  1.00  0.00    -0.395 OA
ATOM     40  H2  UNL     1     -21.411 -49.762  -9.778  1.00  0.00     0.210 HD
ENDBRANCH  15  39
TORSDOF 11
ENDMDL