MODEL 3
REMARK VINA RESULT: -8.179218269      2.825      7.631
REMARK  10 active torsions:
REMARK  status: ('A' for Active; 'I' for Inactive)
REMARK    1  A    between atoms: C2_2  and  N1_3
REMARK    2  A    between atoms: C5_6  and  C6_7
REMARK    3  A    between atoms: C6_7  and  C7_8
REMARK    4  A    between atoms: C7_8  and  C8_9
REMARK    5  A    between atoms: C7_8  and  O4_16
REMARK    6  A    between atoms: C8_9  and  C9_10
REMARK    7  A    between atoms: C9_10  and  O1_11
REMARK    8  A    between atoms: C9_10  and  C10_13
REMARK    9  A    between atoms: O4_16  and  C11_17
REMARK   10  A    between atoms: C27_38  and  O5_39
ROOT
HETATM    1  C11 UNL     1     -24.292 -54.127 -12.619  1.00  0.00     0.151 C
HETATM    2  C12 UNL     1     -24.022 -55.583 -12.242  1.00  0.00     0.035 C
HETATM    3  C13 UNL     1     -25.005 -56.507 -12.918  1.00  0.00     0.014 C
HETATM    4  C14 UNL     1     -26.384 -56.391 -12.314  1.00  0.00    -0.013 C
HETATM    5  C15 UNL     1     -26.357 -57.341 -11.117  1.00  0.00     0.018 C
HETATM    6  C16 UNL     1     -27.414 -56.938 -13.266  1.00  0.00     0.101 C
HETATM    7  N2  UNL     1     -27.321 -56.461 -14.609  1.00  0.00    -0.373 N
ATOM      8  H2  UNL     1     -26.460 -56.405 -15.152  1.00  0.00     0.161 HD
HETATM    9  C17 UNL     1     -28.628 -56.072 -15.084  1.00  0.00     0.080 C
HETATM   10  N3  UNL     1     -28.913 -55.399 -16.130  1.00  0.00    -0.388 N
ATOM     11  H31 UNL     1     -29.836 -55.123 -16.466  1.00  0.00     0.157 HD
ATOM     12  H32 UNL     1     -28.245 -55.026 -16.806  1.00  0.00     0.157 HD
HETATM   13  C18 UNL     1     -29.587 -56.608 -14.112  1.00  0.00     0.019 C
HETATM   14  C19 UNL     1     -30.762 -55.691 -14.026  1.00  0.00     0.024 C
HETATM   15  C20 UNL     1     -30.062 -57.945 -14.646  1.00  0.00     0.024 C
HETATM   16  C21 UNL     1     -28.819 -56.761 -12.818  1.00  0.00    -0.009 C
HETATM   17  C22 UNL     1     -29.382 -57.987 -12.124  1.00  0.00     0.018 C
HETATM   18  C23 UNL     1     -29.015 -55.589 -11.890  1.00  0.00     0.013 C
HETATM   19  C24 UNL     1     -28.034 -54.513 -12.190  1.00  0.00     0.013 C
HETATM   20  C25 UNL     1     -26.586 -54.966 -11.923  1.00  0.00    -0.006 C
HETATM   21  C26 UNL     1     -26.339 -54.660 -10.473  1.00  0.00     0.019 C
HETATM   22  C27 UNL     1     -25.772 -54.018 -12.814  1.00  0.00     0.156 C
ENDROOT
BRANCH   1  23
HETATM   23  O4  UNL     1     -23.719 -53.210 -11.782  1.00  0.00    -0.378 OA
BRANCH  23  24
HETATM   24  C7  UNL     1     -22.655 -52.496 -12.244  1.00  0.00     0.125 C
BRANCH  24  25
HETATM   25  C6  UNL     1     -22.950 -51.960 -13.660  1.00  0.00     0.037 C
BRANCH  25  26
HETATM   26  C5  UNL     1     -21.859 -52.324 -14.641  1.00  0.00    -0.009 C
HETATM   27  C4  UNL     1     -22.603 -52.564 -15.968  1.00  0.00     0.035 C
HETATM   28  C3  UNL     1     -21.736 -53.424 -16.831  1.00  0.00     0.272 C
HETATM   29  N1  UNL     1     -20.352 -53.096 -16.600  1.00  0.00     0.088 N
HETATM   30  C29 UNL     1     -19.984 -53.698 -15.332  1.00  0.00     0.272 C
HETATM   31  C28 UNL     1     -21.138 -53.588 -14.326  1.00  0.00     0.035 C
BRANCH  29  32
HETATM   32  C2  UNL     1     -19.512 -53.660 -17.640  1.00  0.00     0.268 C
HETATM   33  C1  UNL     1     -18.299 -52.807 -17.866  1.00  0.00     0.037 C
ENDBRANCH  29  32
ENDBRANCH  25  26
ENDBRANCH  24  25
BRANCH  24  34
HETATM   34  C8  UNL     1     -22.110 -51.404 -11.411  1.00  0.00     0.074 C
BRANCH  34  35
HETATM   35  C9  UNL     1     -22.489 -50.007 -11.678  1.00  0.00     0.221 C
BRANCH  35  36
HETATM   36  O1  UNL     1     -23.314 -49.489 -10.716  1.00  0.00    -0.385 OA
ATOM     37  H1  UNL     1     -23.006 -48.656 -10.378  1.00  0.00     0.210 HD
ENDBRANCH  35  36
BRANCH  35  38
HETATM   38  C10 UNL     1     -21.359 -49.108 -12.038  1.00  0.00     0.203 C
HETATM   39  O2  UNL     1     -21.630 -47.906 -12.281  1.00  0.00    -0.646 OA
HETATM   40  O3  UNL     1     -20.058 -49.515 -12.119  1.00  0.00    -0.646 OA
ENDBRANCH  35  38
ENDBRANCH  34  35
ENDBRANCH  24  34
ENDBRANCH  23  24
ENDBRANCH   1  23
BRANCH  22  41
HETATM   41  O5  UNL     1     -26.296 -52.746 -12.738  1.00  0.00    -0.392 OA
ATOM     42  H5  UNL     1     -27.186 -52.683 -12.412  1.00  0.00     0.210 HD
ENDBRANCH  22  41
TORSDOF 10
ENDMDL