MODEL 2
REMARK VINA RESULT: -8.205227075      3.380      8.199
REMARK  11 active torsions:
REMARK  status: ('A' for Active; 'I' for Inactive)
REMARK    1  A    between atoms: C2_2  and  O1_3
REMARK    2  A    between atoms: C2_2  and  C3_5
REMARK    3  A    between atoms: C3_5  and  C4_6
REMARK    4  A    between atoms: C3_5  and  C19_23
REMARK    5  A    between atoms: C5_7  and  C6_8
REMARK    6  A    between atoms: C6_8  and  C8_10
REMARK    7  A    between atoms: C19_23  and  C21_25
REMARK    8  A    between atoms: C21_25  and  C22_29
REMARK    9  A    between atoms: C28_35  and  O4_36
REMARK   10  A    between atoms: C29_38  and  O5_39
REMARK   11  A    between atoms: C30_41  and  O6_42
ROOT
HETATM    1  C3  UNL     1     -20.979 -51.741 -13.444  1.00  0.00     0.094 C
ENDROOT
BRANCH   1   2
HETATM    2  C2  UNL     1     -21.224 -50.525 -12.713  1.00  0.00     0.045 C
HETATM    3  C1  UNL     1     -22.348 -49.948 -12.465  1.00  0.00     0.047 C
BRANCH   2   4
HETATM    4  O1  UNL     1     -20.080 -49.861 -12.187  1.00  0.00    -0.365 OA
ATOM      5  H1  UNL     1     -19.413 -49.643 -12.828  1.00  0.00     0.217 HD
ENDBRANCH   2   4
ENDBRANCH   1   2
BRANCH   1   6
HETATM    6  C4  UNL     1     -22.170 -51.949 -14.352  1.00  0.00    -0.015 C
HETATM    7  C5  UNL     1     -22.345 -53.035 -15.060  1.00  0.00    -0.025 C
BRANCH   7   8
HETATM    8  C6  UNL     1     -23.469 -53.333 -15.972  1.00  0.00     0.008 C
HETATM    9  C7  UNL     1     -24.252 -52.074 -16.278  1.00  0.00     0.014 C
BRANCH   8  10
HETATM   10  C8  UNL     1     -24.313 -54.494 -15.620  1.00  0.00    -0.004 C
HETATM   11  C9  UNL     1     -23.757 -55.436 -14.603  1.00  0.00     0.008 C
HETATM   12  C10 UNL     1     -24.490 -55.121 -13.317  1.00  0.00     0.039 C
HETATM   13  C11 UNL     1     -25.746 -54.407 -13.696  1.00  0.00     0.071 C
HETATM   14  C12 UNL     1     -26.906 -55.338 -13.460  1.00  0.00     0.043 C
HETATM   15  O3  UNL     1     -25.853 -53.220 -12.913  1.00  0.00    -0.306 OA
HETATM   16  C18 UNL     1     -25.664 -54.095 -15.159  1.00  0.00     0.044 C
HETATM   17  C13 UNL     1     -27.366 -55.406 -12.043  1.00  0.00     0.047 C
HETATM   18  C14 UNL     1     -26.499 -54.677 -11.088  1.00  0.00     0.013 C
HETATM   19  C15 UNL     1     -26.214 -55.130  -9.882  1.00  0.00    -0.018 C
HETATM   20  C17 UNL     1     -25.951 -53.396 -11.541  1.00  0.00     0.289 C
HETATM   21  C16 UNL     1     -26.806 -56.447  -9.479  1.00  0.00     0.036 C
HETATM   22  O2  UNL     1     -25.594 -52.517 -10.707  1.00  0.00    -0.260 OA
ENDBRANCH   8  10
ENDBRANCH   7   8
ENDBRANCH   1   6
BRANCH   1  23
HETATM   23  C19 UNL     1     -20.664 -53.013 -12.711  1.00  0.00    -0.047 C
HETATM   24  C20 UNL     1     -21.381 -53.211 -11.425  1.00  0.00     0.046 C
BRANCH  23  25
HETATM   25  C21 UNL     1     -19.285 -53.447 -12.808  1.00  0.00     0.011 C
HETATM   26  N1  UNL     1     -18.368 -52.520 -12.600  1.00  0.00    -0.402 N
ATOM     27  H12 UNL     1     -18.791 -51.613 -12.404  1.00  0.00     0.156 HD
ATOM     28  H11 UNL     1     -17.397 -52.825 -12.669  1.00  0.00     0.156 HD
BRANCH  25  29
HETATM   29  C22 UNL     1     -18.679 -54.746 -13.089  1.00  0.00     0.051 A
HETATM   30  C23 UNL     1     -19.265 -55.968 -13.560  1.00  0.00     0.004 A
HETATM   31  C24 UNL     1     -18.534 -57.273 -13.250  1.00  0.00     0.011 C
HETATM   32  C25 UNL     1     -18.605 -55.108 -14.568  1.00  0.00     0.002 A
HETATM   33  C26 UNL     1     -19.481 -54.422 -15.561  1.00  0.00     0.016 C
HETATM   34  C30 UNL     1     -17.300 -55.578 -15.159  1.00  0.00     0.159 C
HETATM   35  C27 UNL     1     -19.702 -55.314 -16.766  1.00  0.00     0.035 C
HETATM   36  C28 UNL     1     -18.387 -55.608 -17.437  1.00  0.00     0.149 C
HETATM   37  C29 UNL     1     -17.186 -55.272 -16.615  1.00  0.00     0.176 C
BRANCH  36  38
HETATM   38  O4  UNL     1     -18.302 -54.874 -18.643  1.00  0.00    -0.393 OA
ATOM     39  H4  UNL     1     -17.468 -54.422 -18.678  1.00  0.00     0.210 HD
ENDBRANCH  36  38
BRANCH  37  40
HETATM   40  O5  UNL     1     -16.123 -56.060 -17.115  1.00  0.00    -0.390 OA
ATOM     41  H5  UNL     1     -15.359 -55.845 -16.593  1.00  0.00     0.210 HD
ENDBRANCH  37  40
BRANCH  34  42
HETATM   42  O6  UNL     1     -16.260 -54.922 -14.498  1.00  0.00    -0.392 OA
ATOM     43  H6  UNL     1     -15.813 -54.367 -15.126  1.00  0.00     0.210 HD
ENDBRANCH  34  42
ENDBRANCH  25  29
ENDBRANCH  23  25
ENDBRANCH   1  23
TORSDOF 11
ENDMDL