MODEL 2
REMARK VINA RESULT: -8.081611299      1.967      3.110
REMARK  12 active torsions:
REMARK  status: ('A' for Active; 'I' for Inactive)
REMARK    1  A    between atoms: C2_2  and  C3_3
REMARK    2  A    between atoms: C2_2  and  C4_6
REMARK    3  A    between atoms: C3_3  and  O1_4
REMARK    4  A    between atoms: C15_17  and  O2_18
REMARK    5  A    between atoms: C18_22  and  C19_23
REMARK    6  A    between atoms: C19_23  and  C20_25
REMARK    7  A    between atoms: C20_25  and  O4_26
REMARK    8  A    between atoms: C20_25  and  C21_28
REMARK    9  A    between atoms: C21_28  and  O5_29
REMARK   10  A    between atoms: C21_28  and  C22_31
REMARK   11  A    between atoms: C22_31  and  C24_33
REMARK   12  A    between atoms: C24_33  and  O6_35
ROOT
HETATM    1  C24 UNL     1     -21.559 -48.934 -11.669  1.00  0.00     0.148 C
HETATM    2  C25 UNL     1     -22.894 -49.399 -12.235  1.00  0.00     0.063 C
HETATM    3  C26 UNL     1     -21.362 -47.565 -12.152  1.00  0.00     0.097 C
HETATM    4  N1  UNL     1     -21.191 -46.492 -12.544  1.00  0.00    -0.194 NA
ENDROOT
BRANCH   1   5
HETATM    5  C22 UNL     1     -20.437 -49.840 -12.141  1.00  0.00     0.062 C
HETATM    6  C23 UNL     1     -19.229 -49.571 -11.285  1.00  0.00     0.017 C
BRANCH   5   7
HETATM    7  C21 UNL     1     -20.862 -51.288 -12.127  1.00  0.00     0.162 C
BRANCH   7   8
HETATM    8  C20 UNL     1     -20.255 -52.093 -13.252  1.00  0.00     0.217 C
BRANCH   8   9
HETATM    9  C19 UNL     1     -21.197 -53.005 -13.930  1.00  0.00     0.162 C
HETATM   10  O3  UNL     1     -21.455 -52.725 -15.112  1.00  0.00    -0.295 OA
BRANCH   9  11
HETATM   11  C18 UNL     1     -21.783 -54.125 -13.298  1.00  0.00     0.069 C
HETATM   12  C16 UNL     1     -23.321 -54.233 -13.442  1.00  0.00    -0.004 C
HETATM   13  C15 UNL     1     -24.034 -53.073 -12.861  1.00  0.00     0.128 C
HETATM   14  C17 UNL     1     -23.676 -54.558 -14.859  1.00  0.00     0.019 C
HETATM   15  C29 UNL     1     -23.461 -55.405 -12.514  1.00  0.00     0.001 C
HETATM   16  C14 UNL     1     -25.451 -53.477 -12.512  1.00  0.00     0.038 C
HETATM   17  C13 UNL     1     -25.531 -54.605 -11.541  1.00  0.00     0.001 C
HETATM   18  C7  UNL     1     -26.926 -54.917 -11.203  1.00  0.00    -0.036 C
HETATM   19  C12 UNL     1     -24.799 -55.831 -12.093  1.00  0.00    -0.005 C
HETATM   20  C6  UNL     1     -27.186 -56.121 -10.380  1.00  0.00     0.010 C
HETATM   21  C8  UNL     1     -27.551 -53.709 -10.530  1.00  0.00     0.016 C
HETATM   22  C9  UNL     1     -27.689 -55.225 -12.482  1.00  0.00     0.002 C
HETATM   23  C5  UNL     1     -28.355 -56.888 -11.028  1.00  0.00     0.010 C
HETATM   24  C4  UNL     1     -28.952 -55.758 -11.848  1.00  0.00     0.020 C
HETATM   25  C10 UNL     1     -26.972 -56.180 -13.368  1.00  0.00     0.006 C
HETATM   26  C11 UNL     1     -25.627 -56.654 -12.983  1.00  0.00     0.006 C
HETATM   27  C28 UNL     1     -22.562 -56.400 -13.130  1.00  0.00     0.007 C
HETATM   28  C27 UNL     1     -21.395 -55.515 -13.613  1.00  0.00     0.013 C
BRANCH  13  29
HETATM   29  O2  UNL     1     -23.407 -52.707 -11.666  1.00  0.00    -0.395 OA
ATOM     30  H2  UNL     1     -23.782 -51.875 -11.400  1.00  0.00     0.210 HD
ENDBRANCH  13  29
BRANCH  24  31
HETATM   31  C2  UNL     1     -30.049 -56.096 -12.711  1.00  0.00    -0.061 C
HETATM   32  C1  UNL     1     -30.649 -57.260 -12.726  1.00  0.00     0.017 C
BRANCH  31  33
HETATM   33  C3  UNL     1     -30.544 -55.036 -13.650  1.00  0.00     0.198 C
BRANCH  33  34
HETATM   34  O1  UNL     1     -31.354 -55.587 -14.641  1.00  0.00    -0.397 OA
ATOM     35  H1  UNL     1     -32.271 -55.402 -14.473  1.00  0.00     0.209 HD
ENDBRANCH  33  34
ENDBRANCH  31  33
ENDBRANCH  24  31
ENDBRANCH   9  11
ENDBRANCH   8   9
BRANCH   8  36
HETATM   36  O4  UNL     1     -19.198 -52.806 -12.647  1.00  0.00    -0.385 OA
ATOM     37  H4  UNL     1     -19.469 -53.683 -12.404  1.00  0.00     0.210 HD
ENDBRANCH   8  36
ENDBRANCH   7   8
BRANCH   7  38
HETATM   38  O5  UNL     1     -20.519 -51.810 -10.878  1.00  0.00    -0.392 OA
ATOM     39  H5  UNL     1     -21.020 -51.404 -10.181  1.00  0.00     0.210 HD
ENDBRANCH   7  38
ENDBRANCH   5   7
ENDBRANCH   1   5
BRANCH   1  40
HETATM   40  O6  UNL     1     -21.678 -48.890 -10.298  1.00  0.00    -0.375 OA
ATOM     41  H6  UNL     1     -22.535 -48.604 -10.007  1.00  0.00     0.211 HD
ENDBRANCH   1  40
TORSDOF 12
ENDMDL