MODEL 1
REMARK VINA RESULT: -7.848845361      0.000      0.000
REMARK  11 active torsions:
REMARK  status: ('A' for Active; 'I' for Inactive)
REMARK    1  A    between atoms: C12_12  and  C13_13
REMARK    2  A    between atoms: C19_21  and  C20_22
REMARK    3  A    between atoms: C20_22  and  O3_23
REMARK    4  A    between atoms: C20_22  and  C21_25
REMARK    5  A    between atoms: C21_25  and  O4_27
REMARK    6  A    between atoms: C21_25  and  C23_29
REMARK    7  A    between atoms: C23_29  and  C25_31
REMARK    8  A    between atoms: C25_31  and  C26_32
REMARK    9  A    between atoms: C25_31  and  C27_35
REMARK   10  A    between atoms: C26_32  and  O5_33
REMARK   11  A    between atoms: C27_35  and  O6_36
ROOT
HETATM    1  C1  UNL     1     -19.318 -54.990 -14.719  1.00  0.00     0.012 C
HETATM    2  C2  UNL     1     -20.340 -54.655 -15.771  1.00  0.00     0.011 C
HETATM    3  C3  UNL     1     -21.178 -55.793 -16.205  1.00  0.00     0.010 C
HETATM    4  C4  UNL     1     -22.628 -55.464 -16.516  1.00  0.00     0.039 C
HETATM    5  C5  UNL     1     -22.944 -54.050 -16.608  1.00  0.00     0.069 C
HETATM    6  C6  UNL     1     -23.863 -53.859 -17.800  1.00  0.00     0.040 C
HETATM    7  C7  UNL     1     -24.942 -54.212 -16.771  1.00  0.00     0.016 C
HETATM    8  C8  UNL     1     -24.042 -53.388 -15.823  1.00  0.00    -0.008 C
HETATM    9  C9  UNL     1     -24.328 -51.968 -16.196  1.00  0.00     0.019 C
HETATM   10  C10 UNL     1     -24.173 -53.738 -14.394  1.00  0.00     0.009 C
HETATM   11  C11 UNL     1     -25.594 -53.499 -14.003  1.00  0.00     0.027 C
HETATM   12  C12 UNL     1     -26.222 -54.422 -13.055  1.00  0.00     0.049 C
HETATM   13  C14 UNL     1     -25.858 -55.840 -13.045  1.00  0.00     0.021 C
HETATM   14  C15 UNL     1     -24.971 -56.082 -11.835  1.00  0.00     0.006 C
HETATM   15  C16 UNL     1     -24.481 -54.641 -11.576  1.00  0.00    -0.012 C
HETATM   16  C17 UNL     1     -25.793 -54.001 -11.673  1.00  0.00     0.025 C
HETATM   17  C18 UNL     1     -23.294 -54.343 -12.266  1.00  0.00     0.017 C
HETATM   18  C19 UNL     1     -23.103 -53.369 -13.425  1.00  0.00    -0.004 C
HETATM   19  C28 UNL     1     -21.819 -53.944 -14.047  1.00  0.00     0.044 C
HETATM   20  C29 UNL     1     -21.262 -53.514 -15.270  1.00  0.00     0.127 C
HETATM   21  O7  UNL     1     -21.930 -53.162 -16.398  1.00  0.00    -0.374 OA
ENDROOT
BRANCH  18  22
HETATM   22  C20 UNL     1     -22.880 -51.976 -13.141  1.00  0.00     0.161 C
BRANCH  22  23
HETATM   23  O3  UNL     1     -24.033 -51.142 -13.210  1.00  0.00    -0.392 OA
ATOM     24  H3  UNL     1     -24.351 -50.812 -12.378  1.00  0.00     0.210 HD
ENDBRANCH  22  23
BRANCH  22  25
HETATM   25  C21 UNL     1     -22.216 -51.381 -11.975  1.00  0.00     0.084 C
HETATM   26  C22 UNL     1     -23.177 -50.345 -11.332  1.00  0.00     0.049 C
BRANCH  25  27
HETATM   27  O4  UNL     1     -21.669 -52.091 -10.987  1.00  0.00    -0.387 OA
ATOM     28  H4  UNL     1     -21.732 -51.856 -10.068  1.00  0.00     0.210 HD
ENDBRANCH  25  27
BRANCH  25  29
HETATM   29  C23 UNL     1     -21.055 -50.463 -12.442  1.00  0.00     0.026 C
HETATM   30  C24 UNL     1     -19.838 -51.335 -12.762  1.00  0.00     0.014 C
BRANCH  29  31
HETATM   31  C25 UNL     1     -20.532 -49.524 -11.440  1.00  0.00     0.039 C
BRANCH  31  32
HETATM   32  C26 UNL     1     -20.372 -48.088 -11.694  1.00  0.00     0.171 C
BRANCH  32  33
HETATM   33  O5  UNL     1     -21.509 -47.674 -12.435  1.00  0.00    -0.400 OA
ATOM     34  H5  UNL     1     -21.216 -46.995 -13.031  1.00  0.00     0.209 HD
ENDBRANCH  32  33
ENDBRANCH  31  32
BRANCH  31  35
HETATM   35  C27 UNL     1     -19.042 -49.975 -11.269  1.00  0.00     0.171 C
BRANCH  35  36
HETATM   36  O6  UNL     1     -18.222 -48.933 -10.964  1.00  0.00    -0.400 OA
ATOM     37  H6  UNL     1     -17.324 -49.093 -11.231  1.00  0.00     0.209 HD
ENDBRANCH  35  36
ENDBRANCH  31  35
ENDBRANCH  29  31
ENDBRANCH  25  29
ENDBRANCH  22  25
ENDBRANCH  18  22
BRANCH  12  38
HETATM   38  C13 UNL     1     -27.705 -54.239 -13.123  1.00  0.00     0.181 C
HETATM   39  O1  UNL     1     -28.462 -55.014 -13.726  1.00  0.00    -0.647 OA
HETATM   40  O2  UNL     1     -28.214 -53.121 -12.455  1.00  0.00    -0.647 OA
ENDBRANCH  12  38
TORSDOF 11
ENDMDL