MODEL 1
REMARK VINA RESULT: -8.178110032      0.000      0.000
REMARK  9 active torsions:
REMARK  status: ('A' for Active; 'I' for Inactive)
REMARK    1  A    between atoms: C2_2  and  C3_3
REMARK    2  A    between atoms: C3_3  and  C4_4
REMARK    3  A    between atoms: C4_4  and  C6_6
REMARK    4  A    between atoms: C4_4  and  C7_9
REMARK    5  A    between atoms: C8_10  and  O3_11
REMARK    6  A    between atoms: C15_19  and  C16_20
REMARK    7  A    between atoms: C16_20  and  O4_21
REMARK    8  A    between atoms: O4_21  and  C17_22
REMARK    9  A    between atoms: C19_24  and  O5_25
ROOT
HETATM    1  C7  UNL     1     -24.737 -55.562 -12.381  1.00  0.00     0.042 C
HETATM    2  C8  UNL     1     -25.358 -56.516 -13.382  1.00  0.00     0.124 C
HETATM    3  C9  UNL     1     -24.659 -56.262 -14.748  1.00  0.00     0.038 C
HETATM    4  C10 UNL     1     -23.976 -55.027 -14.463  1.00  0.00     0.006 C
HETATM    5  C11 UNL     1     -23.473 -55.209 -13.033  1.00  0.00    -0.032 C
HETATM    6  C12 UNL     1     -22.658 -56.528 -12.882  1.00  0.00     0.016 C
HETATM    7  C13 UNL     1     -22.595 -54.194 -12.475  1.00  0.00     0.011 C
HETATM    8  C14 UNL     1     -21.379 -53.777 -13.265  1.00  0.00     0.013 C
HETATM    9  C15 UNL     1     -21.574 -52.705 -14.308  1.00  0.00    -0.008 C
HETATM   10  C21 UNL     1     -23.052 -52.938 -14.542  1.00  0.00     0.023 C
HETATM   11  C22 UNL     1     -23.096 -54.257 -15.280  1.00  0.00    -0.021 C
HETATM   12  C23 UNL     1     -21.879 -55.015 -15.640  1.00  0.00     0.012 C
HETATM   13  C24 UNL     1     -20.611 -54.263 -15.839  1.00  0.00     0.014 C
HETATM   14  C25 UNL     1     -21.118 -52.819 -15.670  1.00  0.00     0.067 C
HETATM   15  C26 UNL     1     -22.163 -52.865 -16.795  1.00  0.00     0.140 C
HETATM   16  O6  UNL     1     -22.023 -52.284 -17.822  1.00  0.00    -0.297 OA
HETATM   17  C27 UNL     1     -23.452 -53.688 -16.621  1.00  0.00     0.021 C
HETATM   18  C28 UNL     1     -23.675 -54.627 -17.737  1.00  0.00     0.024 C
HETATM   19  C29 UNL     1     -24.665 -52.774 -16.596  1.00  0.00     0.024 C
ENDROOT
BRANCH   9  20
HETATM   20  C16 UNL     1     -21.497 -51.342 -13.684  1.00  0.00     0.180 C
BRANCH  20  21
HETATM   21  O4  UNL     1     -21.790 -51.031 -12.452  1.00  0.00    -0.358 OA
BRANCH  21  22
HETATM   22  C17 UNL     1     -20.827 -50.803 -11.516  1.00  0.00     0.323 C
HETATM   23  C18 UNL     1     -19.427 -50.720 -12.008  1.00  0.00     0.094 C
HETATM   24  C19 UNL     1     -18.946 -49.328 -11.833  1.00  0.00     0.148 C
HETATM   25  C20 UNL     1     -20.247 -48.562 -11.681  1.00  0.00     0.267 C
HETATM   26  N1  UNL     1     -21.118 -49.455 -10.937  1.00  0.00    -0.046 N
ATOM     27  H12 UNL     1     -22.103 -49.194 -10.955  1.00  0.00     0.280 HD
ATOM     28  H11 UNL     1     -21.010 -49.401  -9.924  1.00  0.00     0.280 HD
BRANCH  24  29
HETATM   29  O5  UNL     1     -18.134 -49.186 -10.703  1.00  0.00    -0.394 OA
ATOM     30  H5  UNL     1     -17.210 -49.231 -10.916  1.00  0.00     0.210 HD
ENDBRANCH  24  29
ENDBRANCH  21  22
ENDBRANCH  20  21
ENDBRANCH   9  20
BRANCH   1  31
HETATM   31  C4  UNL     1     -25.697 -54.754 -11.712  1.00  0.00     0.054 C
HETATM   32  C5  UNL     1     -25.972 -54.973 -10.239  1.00  0.00     0.027 C
BRANCH  31  33
HETATM   33  C3  UNL     1     -27.096 -55.089 -12.328  1.00  0.00     0.047 C
BRANCH  33  34
HETATM   34  C2  UNL     1     -28.184 -54.790 -11.359  1.00  0.00    -0.036 C
HETATM   35  C1  UNL     1     -29.395 -54.371 -11.655  1.00  0.00     0.007 C
ENDBRANCH  33  34
ENDBRANCH  31  33
BRANCH  31  36
HETATM   36  C6  UNL     1     -25.723 -53.265 -11.851  1.00  0.00     0.182 C
HETATM   37  O1  UNL     1     -25.938 -52.649 -12.926  1.00  0.00    -0.647 OA
HETATM   38  O2  UNL     1     -25.499 -52.454 -10.748  1.00  0.00    -0.647 OA
ENDBRANCH  31  36
ENDBRANCH   1  31
BRANCH   2  39
HETATM   39  O3  UNL     1     -25.200 -57.866 -13.056  1.00  0.00    -0.395 OA
ATOM     40  H3  UNL     1     -25.677 -58.135 -12.279  1.00  0.00     0.210 HD
ENDBRANCH   2  39
TORSDOF 9
ENDMDL