MODEL 2
REMARK VINA RESULT: -7.894448730      3.412      8.224
REMARK  10 active torsions:
REMARK  status: ('A' for Active; 'I' for Inactive)
REMARK    1  A    between atoms: C2_2  and  O1_4
REMARK    2  A    between atoms: C2_2  and  N1_6
REMARK       I    between atoms: N1_6  and  C4_8
REMARK    3  A    between atoms: C4_8  and  C5_10
REMARK    4  A    between atoms: C5_10  and  C6_11
REMARK    5  A    between atoms: C6_11  and  C7_12
REMARK    6  A    between atoms: C7_12  and  O3_13
REMARK    7  A    between atoms: C7_12  and  C8_15
REMARK    8  A    between atoms: C22_29  and  C23_30
REMARK    9  A    between atoms: C23_30  and  O4_33
REMARK   10  A    between atoms: C28_38  and  O6_39
ROOT
HETATM    1  C8  UNL     1     -29.153 -55.623 -13.379  1.00  0.00     0.019 C
HETATM    2  C9  UNL     1     -29.981 -54.792 -12.430  1.00  0.00     0.008 C
HETATM    3  C10 UNL     1     -28.917 -54.326 -11.439  1.00  0.00     0.006 C
HETATM    4  C11 UNL     1     -27.712 -53.992 -12.317  1.00  0.00    -0.003 C
HETATM    5  C12 UNL     1     -27.944 -54.724 -13.602  1.00  0.00    -0.003 C
HETATM    6  C13 UNL     1     -26.763 -55.619 -13.832  1.00  0.00     0.015 C
HETATM    7  C14 UNL     1     -25.689 -55.209 -12.847  1.00  0.00    -0.033 C
HETATM    8  C15 UNL     1     -25.019 -56.480 -12.296  1.00  0.00     0.016 C
HETATM    9  C16 UNL     1     -24.624 -54.427 -13.487  1.00  0.00     0.001 C
HETATM   10  C17 UNL     1     -25.029 -53.212 -14.242  1.00  0.00     0.009 C
HETATM   11  C18 UNL     1     -23.713 -52.459 -14.377  1.00  0.00     0.039 C
HETATM   12  C19 UNL     1     -22.799 -53.010 -13.302  1.00  0.00     0.066 C
HETATM   13  C20 UNL     1     -21.747 -53.831 -13.961  1.00  0.00     0.041 C
HETATM   14  C21 UNL     1     -20.460 -53.206 -13.475  1.00  0.00     0.038 C
HETATM   15  C22 UNL     1     -20.920 -51.823 -13.090  1.00  0.00     0.156 C
HETATM   16  O5  UNL     1     -22.190 -52.009 -12.570  1.00  0.00    -0.371 OA
HETATM   17  C26 UNL     1     -23.695 -53.880 -12.433  1.00  0.00     0.027 C
HETATM   18  C27 UNL     1     -24.481 -52.990 -11.517  1.00  0.00     0.040 C
HETATM   19  C28 UNL     1     -25.675 -53.599 -10.911  1.00  0.00     0.123 C
HETATM   20  C29 UNL     1     -26.432 -54.571 -11.744  1.00  0.00     0.027 C
ENDROOT
BRANCH   1  21
HETATM   21  C7  UNL     1     -29.823 -55.837 -14.708  1.00  0.00     0.123 C
BRANCH  21  22
HETATM   22  C6  UNL     1     -29.712 -57.287 -15.152  1.00  0.00     0.041 C
BRANCH  22  23
HETATM   23  C5  UNL     1     -29.684 -58.126 -13.898  1.00  0.00     0.105 C
BRANCH  23  24
HETATM   24  C4  UNL     1     -31.002 -58.766 -13.723  1.00  0.00     0.220 C
HETATM   25  N1  UNL     1     -32.153 -58.042 -13.293  1.00  0.00    -0.330 N
ATOM     26  H1  UNL     1     -32.061 -57.045 -13.100  1.00  0.00     0.165 HD
HETATM   27  O2  UNL     1     -31.130 -59.988 -13.955  1.00  0.00    -0.274 OA
BRANCH  25  28
HETATM   28  C2  UNL     1     -33.435 -58.661 -13.122  1.00  0.00     0.126 C
HETATM   29  C1  UNL     1     -34.541 -57.656 -12.892  1.00  0.00     0.070 C
HETATM   30  C3  UNL     1     -33.400 -59.584 -11.939  1.00  0.00     0.070 C
BRANCH  28  31
HETATM   31  O1  UNL     1     -33.740 -59.392 -14.266  1.00  0.00    -0.372 OA
ATOM     32  H1  UNL     1     -33.273 -60.218 -14.225  1.00  0.00     0.212 HD
ENDBRANCH  28  31
ENDBRANCH  25  28
ENDBRANCH  23  24
ENDBRANCH  22  23
ENDBRANCH  21  22
BRANCH  21  33
HETATM   33  O3  UNL     1     -31.133 -55.404 -14.700  1.00  0.00    -0.395 OA
ATOM     34  H3  UNL     1     -31.190 -54.457 -14.666  1.00  0.00     0.210 HD
ENDBRANCH  21  33
ENDBRANCH   1  21
BRANCH  19  35
HETATM   35  O6  UNL     1     -26.576 -52.572 -10.566  1.00  0.00    -0.395 OA
ATOM     36  H6  UNL     1     -27.461 -52.915 -10.621  1.00  0.00     0.210 HD
ENDBRANCH  19  35
BRANCH  15  37
HETATM   37  C23 UNL     1     -19.974 -51.243 -12.046  1.00  0.00     0.076 C
HETATM   38  C24 UNL     1     -19.911 -52.211 -10.879  1.00  0.00     0.048 C
HETATM   39  C25 UNL     1     -20.548 -49.949 -11.506  1.00  0.00     0.048 C
BRANCH  37  40
HETATM   40  O4  UNL     1     -18.732 -50.984 -12.571  1.00  0.00    -0.388 OA
ATOM     41  H4  UNL     1     -18.345 -50.203 -12.195  1.00  0.00     0.210 HD
ENDBRANCH  37  40
ENDBRANCH  15  37
TORSDOF 10
ENDMDL