MODEL 2
REMARK VINA RESULT: -7.208254023      5.322      9.645
REMARK  10 active torsions:
REMARK  status: ('A' for Active; 'I' for Inactive)
REMARK    1  A    between atoms: C2_2  and  C3_3
REMARK    2  A    between atoms: C2_2  and  C9_13
REMARK    3  A    between atoms: C3_3  and  O1_4
REMARK    4  A    between atoms: C3_3  and  C4_6
REMARK    5  A    between atoms: C4_6  and  C5_7
REMARK    6  A    between atoms: C5_7  and  C6_8
REMARK    7  A    between atoms: C6_8  and  O2_11
REMARK    8  A    between atoms: C12_16  and  O3_17
REMARK    9  A    between atoms: C18_24  and  N1_25
REMARK   10  A    between atoms: N1_25  and  S1_27
ROOT
HETATM    1  C9  UNL     1     -24.623 -53.004 -13.248  1.00  0.00     0.028 C
HETATM    2  C10 UNL     1     -24.107 -52.890 -11.787  1.00  0.00     0.013 C
HETATM    3  C11 UNL     1     -25.452 -53.112 -11.086  1.00  0.00     0.040 C
HETATM    4  C12 UNL     1     -26.280 -53.932 -11.996  1.00  0.00     0.070 C
HETATM    5  C13 UNL     1     -27.064 -55.033 -11.439  1.00  0.00     0.025 C
HETATM    6  C14 UNL     1     -27.534 -54.623 -10.063  1.00  0.00     0.009 C
HETATM    7  C15 UNL     1     -27.000 -55.456  -8.950  1.00  0.00     0.012 C
HETATM    8  C16 UNL     1     -27.233 -56.931  -9.158  1.00  0.00    -0.019 C
HETATM    9  C17 UNL     1     -26.431 -57.659  -8.086  1.00  0.00     0.018 C
HETATM   10  C18 UNL     1     -28.707 -57.258  -8.918  1.00  0.00     0.104 C
HETATM   11  C19 UNL     1     -29.308 -57.528 -10.267  1.00  0.00     0.027 C
HETATM   12  C20 UNL     1     -28.161 -58.139 -11.027  1.00  0.00     0.008 C
HETATM   13  C21 UNL     1     -26.921 -57.390 -10.520  1.00  0.00     0.000 C
HETATM   14  C22 UNL     1     -26.433 -56.392 -11.491  1.00  0.00    -0.003 C
HETATM   15  C23 UNL     1     -24.948 -56.188 -11.490  1.00  0.00     0.006 C
HETATM   16  C24 UNL     1     -24.520 -55.484 -12.767  1.00  0.00     0.013 C
HETATM   17  C25 UNL     1     -25.310 -54.293 -13.149  1.00  0.00    -0.005 C
HETATM   18  C26 UNL     1     -26.251 -54.589 -14.308  1.00  0.00     0.019 C
ENDROOT
BRANCH   1  19
HETATM   19  C2  UNL     1     -23.669 -52.580 -14.233  1.00  0.00    -0.050 C
HETATM   20  C1  UNL     1     -24.303 -52.314 -15.575  1.00  0.00     0.046 C
BRANCH  19  21
HETATM   21  C3  UNL     1     -22.299 -53.134 -14.265  1.00  0.00     0.045 C
BRANCH  21  22
HETATM   22  O1  UNL     1     -22.014 -54.056 -15.250  1.00  0.00    -0.365 OA
ATOM     23  H1  UNL     1     -21.180 -54.508 -15.195  1.00  0.00     0.217 HD
ENDBRANCH  21  22
BRANCH  21  24
HETATM   24  C4  UNL     1     -21.145 -52.226 -14.058  1.00  0.00     0.067 C
BRANCH  24  25
HETATM   25  C5  UNL     1     -21.304 -51.044 -13.181  1.00  0.00     0.043 C
BRANCH  25  26
HETATM   26  C6  UNL     1     -20.269 -51.038 -12.040  1.00  0.00     0.051 C
HETATM   27  C7  UNL     1     -20.446 -52.289 -11.208  1.00  0.00     0.045 C
HETATM   28  C8  UNL     1     -20.351 -49.790 -11.226  1.00  0.00     0.045 C
BRANCH  26  29
HETATM   29  O2  UNL     1     -18.992 -51.103 -12.601  1.00  0.00    -0.391 OA
ATOM     30  H2  UNL     1     -18.643 -51.974 -12.455  1.00  0.00     0.210 HD
ENDBRANCH  26  29
ENDBRANCH  25  26
ENDBRANCH  24  25
ENDBRANCH  21  24
ENDBRANCH  19  21
ENDBRANCH   1  19
BRANCH   4  31
HETATM   31  O3  UNL     1     -27.189 -53.027 -12.614  1.00  0.00    -0.389 OA
ATOM     32  H3  UNL     1     -27.610 -53.519 -13.309  1.00  0.00     0.210 HD
ENDBRANCH   4  31
BRANCH  10  33
HETATM   33  N1  UNL     1     -28.810 -58.448  -8.129  1.00  0.00    -0.295 N
ATOM     34  H1  UNL     1     -28.323 -59.317  -8.350  1.00  0.00     0.175 HD
BRANCH  33  35
HETATM   35  S1  UNL     1     -29.848 -58.255  -6.767  1.00  0.00     0.204 S
HETATM   36  O4  UNL     1     -31.231 -57.953  -7.287  1.00  0.00    -0.578 OA
HETATM   37  O5  UNL     1     -29.367 -57.047  -5.992  1.00  0.00    -0.578 OA
HETATM   38  O6  UNL     1     -29.802 -59.648  -5.851  1.00  0.00    -0.578 OA
ENDBRANCH  33  35
ENDBRANCH  10  33
TORSDOF 10
ENDMDL