MODEL 2
REMARK VINA RESULT: -7.945194697      2.972      8.320
REMARK  11 active torsions:
REMARK  status: ('A' for Active; 'I' for Inactive)
REMARK    1  A    between atoms: C6_6  and  C7_7
REMARK    2  A    between atoms: C7_7  and  C8_8
REMARK    3  A    between atoms: C8_8  and  O1_9
REMARK    4  A    between atoms: C8_8  and  C9_11
REMARK    5  A    between atoms: C9_11  and  O2_12
REMARK    6  A    between atoms: O2_12  and  C10_13
REMARK    7  A    between atoms: C19_22  and  O3_23
REMARK    8  A    between atoms: C20_25  and  O4_26
REMARK    9  A    between atoms: C25_32  and  N1_33
REMARK       I    between atoms: N1_33  and  C26_35
REMARK   10  A    between atoms: C26_35  and  C27_37
REMARK   11  A    between atoms: C27_37  and  O6_38
ROOT
HETATM    1  C10 UNL     1     -24.226 -52.406 -13.734  1.00  0.00     0.144 C
HETATM    2  C11 UNL     1     -24.228 -53.871 -14.191  1.00  0.00     0.044 C
HETATM    3  C12 UNL     1     -23.178 -54.149 -15.213  1.00  0.00    -0.030 C
HETATM    4  C13 UNL     1     -22.060 -54.908 -14.554  1.00  0.00     0.016 C
HETATM    5  C14 UNL     1     -22.546 -52.853 -15.738  1.00  0.00    -0.004 C
HETATM    6  C15 UNL     1     -21.336 -53.261 -16.591  1.00  0.00     0.006 C
HETATM    7  C16 UNL     1     -21.899 -53.941 -17.815  1.00  0.00     0.006 C
HETATM    8  C17 UNL     1     -22.713 -55.135 -17.461  1.00  0.00    -0.003 C
HETATM    9  C18 UNL     1     -23.331 -55.693 -18.706  1.00  0.00     0.039 C
HETATM   10  C19 UNL     1     -24.309 -54.739 -19.279  1.00  0.00     0.147 C
HETATM   11  C20 UNL     1     -25.381 -54.456 -18.307  1.00  0.00     0.147 C
HETATM   12  C21 UNL     1     -25.021 -54.321 -16.888  1.00  0.00     0.044 C
HETATM   13  C22 UNL     1     -23.753 -54.911 -16.412  1.00  0.00    -0.030 C
HETATM   14  C23 UNL     1     -24.081 -56.302 -15.838  1.00  0.00     0.016 C
HETATM   15  C24 UNL     1     -22.021 -51.987 -14.652  1.00  0.00     0.033 C
HETATM   16  C25 UNL     1     -22.819 -52.007 -13.380  1.00  0.00     0.114 C
ENDROOT
BRANCH   1  17
HETATM   17  O2  UNL     1     -25.138 -52.200 -12.744  1.00  0.00    -0.381 OA
BRANCH  17  18
HETATM   18  C9  UNL     1     -24.986 -53.032 -11.646  1.00  0.00     0.199 C
BRANCH  18  19
HETATM   19  C8  UNL     1     -26.345 -53.563 -11.231  1.00  0.00     0.142 C
BRANCH  19  20
HETATM   20  C7  UNL     1     -26.227 -54.920 -10.587  1.00  0.00     0.039 C
BRANCH  20  21
HETATM   21  C6  UNL     1     -27.088 -55.109  -9.393  1.00  0.00    -0.007 C
HETATM   22  C5  UNL     1     -28.220 -56.083  -9.778  1.00  0.00     0.010 C
HETATM   23  C4  UNL     1     -28.030 -57.096  -8.685  1.00  0.00    -0.006 C
HETATM   24  C2  UNL     1     -27.743 -56.260  -7.465  1.00  0.00    -0.040 C
HETATM   25  C29 UNL     1     -26.508 -57.300  -8.743  1.00  0.00     0.011 C
HETATM   26  C1  UNL     1     -28.693 -55.142  -7.186  1.00  0.00     0.015 C
HETATM   27  C3  UNL     1     -27.328 -57.050  -6.240  1.00  0.00     0.015 C
HETATM   28  C28 UNL     1     -26.493 -55.847  -8.262  1.00  0.00    -0.002 C
ENDBRANCH  20  21
ENDBRANCH  19  20
BRANCH  19  29
HETATM   29  O1  UNL     1     -26.834 -52.685 -10.251  1.00  0.00    -0.393 OA
ATOM     30  H1  UNL     1     -26.150 -52.588  -9.599  1.00  0.00     0.210 HD
ENDBRANCH  19  29
ENDBRANCH  18  19
ENDBRANCH  17  18
ENDBRANCH   1  17
BRANCH  16  31
HETATM   31  N1  UNL     1     -22.860 -50.675 -12.815  1.00  0.00    -0.352 N
HETATM   32  C26 UNL     1     -22.112 -50.406 -11.642  1.00  0.00     0.241 C
HETATM   33  O5  UNL     1     -21.417 -51.288 -11.081  1.00  0.00    -0.271 OA
ATOM     34  H1  UNL     1     -23.419 -49.942 -13.253  1.00  0.00     0.163 HD
BRANCH  32  35
HETATM   35  C27 UNL     1     -22.136 -49.053 -11.042  1.00  0.00     0.266 C
BRANCH  35  36
HETATM   36  O6  UNL     1     -23.272 -48.845 -10.272  1.00  0.00    -0.392 OA
ATOM     37  H6  UNL     1     -23.461 -49.586  -9.709  1.00  0.00     0.210 HD
ENDBRANCH  35  36
ENDBRANCH  32  35
ENDBRANCH  16  31
BRANCH  11  38
HETATM   38  O4  UNL     1     -25.997 -53.242 -18.712  1.00  0.00    -0.393 OA
ATOM     39  H4  UNL     1     -25.298 -52.621 -18.884  1.00  0.00     0.210 HD
ENDBRANCH  11  38
BRANCH  10  40
HETATM   40  O3  UNL     1     -24.880 -55.364 -20.415  1.00  0.00    -0.393 OA
ATOM     41  H3  UNL     1     -25.813 -55.443 -20.248  1.00  0.00     0.210 HD
ENDBRANCH  10  40
TORSDOF 11
ENDMDL