MODEL 1
REMARK VINA RESULT: -7.761587803      0.000      0.000
REMARK  10 active torsions:
REMARK  status: ('A' for Active; 'I' for Inactive)
REMARK    1  A    between atoms: C2_2  and  C3_3
REMARK    2  A    between atoms: C2_2  and  C10_16
REMARK    3  A    between atoms: C3_3  and  C4_4
REMARK    4  A    between atoms: C4_4  and  O1_5
REMARK    5  A    between atoms: C4_4  and  C5_7
REMARK    6  A    between atoms: C6_8  and  C7_9
REMARK    7  A    between atoms: C7_9  and  S1_12
REMARK    8  A    between atoms: C10_16  and  O5_17
REMARK    9  A    between atoms: C10_16  and  C11_19
REMARK   10  A    between atoms: C21_29  and  O6_30
ROOT
HETATM    1  C11 UNL     1     -19.872 -51.829 -11.804  1.00  0.00     0.154 C
HETATM    2  C12 UNL     1     -20.371 -53.090 -11.226  1.00  0.00     0.073 C
HETATM    3  C13 UNL     1     -20.368 -53.603 -12.619  1.00  0.00     0.071 C
HETATM    4  C14 UNL     1     -21.659 -54.316 -12.927  1.00  0.00     0.039 C
HETATM    5  C15 UNL     1     -21.317 -55.763 -12.876  1.00  0.00     0.009 C
HETATM    6  C16 UNL     1     -19.818 -55.877 -12.736  1.00  0.00     0.007 C
HETATM    7  C17 UNL     1     -19.232 -57.053 -13.413  1.00  0.00    -0.011 C
HETATM    8  C18 UNL     1     -20.387 -58.000 -13.770  1.00  0.00     0.018 C
HETATM    9  C19 UNL     1     -18.327 -57.904 -12.512  1.00  0.00     0.016 C
HETATM   10  C20 UNL     1     -17.187 -58.509 -13.238  1.00  0.00     0.062 C
HETATM   11  C21 UNL     1     -17.377 -58.841 -14.672  1.00  0.00     0.319 C
HETATM   12  N1  UNL     1     -18.289 -57.966 -15.387  1.00  0.00    -0.044 N
ATOM     13  H11 UNL     1     -19.195 -58.396 -15.574  1.00  0.00     0.280 HD
ATOM     14  H12 UNL     1     -18.017 -57.811 -16.357  1.00  0.00     0.280 HD
HETATM   15  C22 UNL     1     -18.386 -56.753 -14.628  1.00  0.00     0.197 C
HETATM   16  C23 UNL     1     -18.838 -55.562 -15.384  1.00  0.00     0.035 C
HETATM   17  C24 UNL     1     -19.232 -54.393 -14.595  1.00  0.00     0.014 C
HETATM   18  C25 UNL     1     -19.307 -54.530 -13.105  1.00  0.00    -0.008 C
HETATM   19  C26 UNL     1     -17.997 -54.161 -12.494  1.00  0.00     0.019 C
HETATM   20  O7  UNL     1     -20.304 -52.272 -13.050  1.00  0.00    -0.371 OA
ENDROOT
BRANCH   1  21
HETATM   21  C10 UNL     1     -20.425 -50.527 -11.297  1.00  0.00     0.151 C
BRANCH  21  22
HETATM   22  C2  UNL     1     -21.438 -49.858 -12.150  1.00  0.00     0.015 C
HETATM   23  C1  UNL     1     -21.446 -48.341 -11.910  1.00  0.00     0.012 C
BRANCH  22  24
HETATM   24  C3  UNL     1     -22.826 -50.314 -11.799  1.00  0.00     0.042 C
BRANCH  24  25
HETATM   25  C4  UNL     1     -23.653 -50.962 -12.829  1.00  0.00     0.141 C
BRANCH  25  26
HETATM   26  O1  UNL     1     -23.023 -51.366 -13.992  1.00  0.00    -0.392 OA
ATOM     27  H1  UNL     1     -22.188 -50.965 -14.201  1.00  0.00     0.210 HD
ENDBRANCH  25  26
BRANCH  25  28
HETATM   28  C5  UNL     1     -24.282 -52.194 -12.219  1.00  0.00     0.002 C
HETATM   29  C6  UNL     1     -25.229 -52.894 -12.792  1.00  0.00    -0.001 C
BRANCH  29  30
HETATM   30  C7  UNL     1     -25.862 -54.092 -12.232  1.00  0.00     0.093 C
HETATM   31  C8  UNL     1     -24.953 -54.817 -11.266  1.00  0.00     0.039 C
HETATM   32  C9  UNL     1     -26.218 -55.095 -13.329  1.00  0.00     0.039 C
BRANCH  30  33
HETATM   33  S1  UNL     1     -27.419 -53.679 -11.434  1.00  0.00     0.114 S
HETATM   34  O2  UNL     1     -28.307 -53.062 -12.479  1.00  0.00    -0.594 OA
HETATM   35  O3  UNL     1     -28.014 -54.943 -10.873  1.00  0.00    -0.594 OA
HETATM   36  O4  UNL     1     -27.128 -52.567 -10.227  1.00  0.00    -0.594 OA
ENDBRANCH  30  33
ENDBRANCH  29  30
ENDBRANCH  25  28
ENDBRANCH  24  25
ENDBRANCH  22  24
ENDBRANCH  21  22
BRANCH  21  37
HETATM   37  O5  UNL     1     -19.341 -49.659 -11.030  1.00  0.00    -0.393 OA
ATOM     38  H5  UNL     1     -18.616 -50.133 -10.641  1.00  0.00     0.210 HD
ENDBRANCH  21  37
ENDBRANCH   1  21
BRANCH  11  39
HETATM   39  O6  UNL     1     -17.651 -60.199 -14.909  1.00  0.00    -0.370 OA
ATOM     40  H6  UNL     1     -17.478 -60.475 -15.801  1.00  0.00     0.212 HD
ENDBRANCH  11  39
TORSDOF 10
ENDMDL