MODEL 3
REMARK VINA RESULT: -7.988459223      2.832      7.338
REMARK  11 active torsions:
REMARK  status: ('A' for Active; 'I' for Inactive)
REMARK    1  A    between atoms: C2_2  and  N1_3
REMARK    2  A    between atoms: N1_3  and  C3_5
REMARK    3  A    between atoms: C5_9  and  N3_10
REMARK    4  A    between atoms: N3_10  and  C6_11
REMARK    5  A    between atoms: N3_10  and  C14_24
REMARK    6  A    between atoms: C6_11  and  C7_12
REMARK       I    between atoms: C7_12  and  N4_14
REMARK    7  A    between atoms: N4_14  and  C9_16
REMARK    8  A    between atoms: C14_24  and  C15_25
REMARK    9  A    between atoms: C22_34  and  N6_35
REMARK       I    between atoms: N6_35  and  C23_37
REMARK   10  A    between atoms: C23_37  and  C24_39
REMARK   11  A    between atoms: C24_39  and  O3_42
ROOT
HETATM    1  N3  UNL     1      24.739  12.346  52.757  1.00  0.00    -0.340 N
ENDROOT
BRANCH   1   2
HETATM    2  C5  UNL     1      25.967  11.723  53.214  1.00  0.00     0.095 A
HETATM    3  C4  UNL     1      27.242  12.222  53.269  1.00  0.00     0.127 A
HETATM    4  N2  UNL     1      28.174  11.464  53.786  1.00  0.00    -0.344 N
HETATM    5  C3  UNL     1      27.856  10.250  54.233  1.00  0.00     0.146 A
ATOM      6  H2  UNL     1      29.136  11.800  53.845  1.00  0.00     0.167 HD
HETATM    7  S2  UNL     1      26.169  10.172  53.913  1.00  0.00    -0.035 SA
BRANCH   5   8
HETATM    8  N1  UNL     1      28.569   9.325  54.765  1.00  0.00    -0.371 N
ATOM      9  H1  UNL     1      29.563   9.491  54.918  1.00  0.00     0.161 HD
BRANCH   8  10
HETATM   10  C2  UNL     1      28.008   8.076  55.146  1.00  0.00     0.117 C
HETATM   11  C1  UNL     1      28.923   6.916  54.799  1.00  0.00     0.026 C
ENDBRANCH   8  10
ENDBRANCH   5   8
ENDBRANCH   1   2
BRANCH   1  12
HETATM   12  C6  UNL     1      23.496  11.635  52.939  1.00  0.00     0.232 C
BRANCH  12  13
HETATM   13  C7  UNL     1      22.969  11.280  51.613  1.00  0.00     0.238 C
HETATM   14  O1  UNL     1      23.672  10.607  50.767  1.00  0.00    -0.272 OA
HETATM   15  N4  UNL     1      21.676  11.640  51.195  1.00  0.00    -0.349 N
HETATM   16  C8  UNL     1      20.889  12.476  52.122  1.00  0.00     0.153 C
BRANCH  15  17
HETATM   17  C9  UNL     1      21.117  11.163  49.967  1.00  0.00     0.112 C
HETATM   18  C10 UNL     1      21.264  12.102  48.793  1.00  0.00     0.029 C
HETATM   19  C11 UNL     1      20.507  11.455  47.639  1.00  0.00     0.029 C
HETATM   20  C12 UNL     1      19.048  11.489  47.961  1.00  0.00     0.232 C
HETATM   21  N5  UNL     1      18.741  11.500  49.379  1.00  0.00    -0.073 N
HETATM   22  C13 UNL     1      19.695  10.661  50.106  1.00  0.00     0.257 C
ATOM     23  H52 UNL     1      18.703  12.449  49.753  1.00  0.00     0.277 HD
ATOM     24  H51 UNL     1      17.776  11.228  49.562  1.00  0.00     0.277 HD
ENDBRANCH  15  17
ENDBRANCH  12  13
ENDBRANCH   1  12
BRANCH   1  25
HETATM   25  C14 UNL     1      24.796  13.598  52.140  1.00  0.00     0.114 C
BRANCH  25  26
HETATM   26  C15 UNL     1      24.437  14.769  52.979  1.00  0.00     0.060 A
HETATM   27  S1  UNL     1      22.842  15.465  53.013  1.00  0.00    -0.087 SA
HETATM   28  C16 UNL     1      23.163  16.853  53.958  1.00  0.00     0.015 A
HETATM   29  C17 UNL     1      24.487  16.735  54.226  1.00  0.00    -0.003 A
HETATM   30  C22 UNL     1      22.450  18.056  54.431  1.00  0.00     0.125 C
HETATM   31  C18 UNL     1      25.147  15.659  53.720  1.00  0.00     0.142 A
HETATM   32  C19 UNL     1      25.010  17.897  55.095  1.00  0.00     0.043 C
HETATM   33  F1  UNL     1      26.506  15.455  54.002  1.00  0.00    -0.204 F
HETATM   34  C20 UNL     1      24.728  19.098  54.224  1.00  0.00     0.007 C
HETATM   35  C21 UNL     1      23.279  19.269  53.922  1.00  0.00     0.031 C
BRANCH  30  36
HETATM   36  N6  UNL     1      21.138  18.163  53.840  1.00  0.00    -0.349 N
HETATM   37  C23 UNL     1      19.955  17.564  54.319  1.00  0.00     0.252 C
HETATM   38  O2  UNL     1      20.009  16.879  55.373  1.00  0.00    -0.270 OA
ATOM     39  H6  UNL     1      21.059  18.727  52.993  1.00  0.00     0.163 HD
BRANCH  37  40
HETATM   40  C24 UNL     1      18.660  17.723  53.629  1.00  0.00     0.131 C
HETATM   41  C25 UNL     1      18.789  17.550  52.150  1.00  0.00     0.056 C
HETATM   42  C26 UNL     1      17.672  16.632  54.103  1.00  0.00     0.056 C
BRANCH  40  43
HETATM   43  O3  UNL     1      18.052  18.911  54.014  1.00  0.00    -0.381 OA
ATOM     44  H3  UNL     1      18.689  19.616  54.034  1.00  0.00     0.211 HD
ENDBRANCH  40  43
ENDBRANCH  37  40
ENDBRANCH  30  36
ENDBRANCH  25  26
ENDBRANCH   1  25
TORSDOF 11
ENDMDL