MODEL 5
REMARK VINA RESULT: -7.700877180      2.156      4.715
REMARK  11 active torsions:
REMARK  status: ('A' for Active; 'I' for Inactive)
REMARK       I    between atoms: N1_2  and  C2_4
REMARK    1  A    between atoms: C2_4  and  C3_6
REMARK    2  A    between atoms: C5_8  and  N2_9
REMARK    3  A    between atoms: N2_9  and  C6_11
REMARK    4  A    between atoms: C7_14  and  N4_15
REMARK    5  A    between atoms: N4_15  and  C8_17
REMARK    6  A    between atoms: C11_20  and  N5_22
REMARK    7  A    between atoms: N5_22  and  C13_25
REMARK    8  A    between atoms: N8_35  and  C19_36
REMARK    9  A    between atoms: C19_36  and  C20_37
REMARK   10  A    between atoms: C23_40  and  C24_41
REMARK   11  A    between atoms: C24_41  and  O2_42
ROOT
HETATM    1  C13 UNL     1      22.025  11.056  49.297  1.00  0.00     0.356 C
HETATM    2  C14 UNL     1      20.667  11.116  48.744  1.00  0.00     0.086 C
HETATM    3  N6  UNL     1      19.578  11.183  48.309  1.00  0.00    -0.196 NA
ENDROOT
BRANCH   1   4
HETATM    4  N5  UNL     1      21.967  10.844  50.722  1.00  0.00    -0.055 N
ATOM      5  H52 UNL     1      21.985   9.848  50.941  1.00  0.00     0.279 HD
ATOM      6  H51 UNL     1      21.043  11.081  51.086  1.00  0.00     0.279 HD
BRANCH   4   7
HETATM    7  C11 UNL     1      22.996  11.545  51.450  1.00  0.00     0.123 C
HETATM    8  C10 UNL     1      23.332  12.835  50.771  1.00  0.00     0.040 C
HETATM    9  C9  UNL     1      23.154  14.028  51.688  1.00  0.00     0.028 C
HETATM   10  C8  UNL     1      23.919  13.829  52.991  1.00  0.00     0.099 C
HETATM   11  C16 UNL     1      23.447  12.584  53.693  1.00  0.00     0.028 C
HETATM   12  C15 UNL     1      22.471  11.792  52.849  1.00  0.00     0.040 C
HETATM   13  C12 UNL     1      24.209  10.625  51.499  1.00  0.00     0.046 C
BRANCH  10  14
HETATM   14  N4  UNL     1      23.791  15.022  53.772  1.00  0.00    -0.221 N
ATOM     15  H4  UNL     1      22.879  15.238  54.173  1.00  0.00     0.178 HD
BRANCH  14  16
HETATM   16  C7  UNL     1      24.773  15.846  54.000  1.00  0.00     0.679 A
HETATM   17  N3  UNL     1      26.007  15.416  54.289  1.00  0.00    -0.175 N
HETATM   18  C6  UNL     1      27.054  16.214  54.533  1.00  0.00     0.145 A
ATOM     19  H3  UNL     1      26.160  14.408  54.327  1.00  0.00     0.186 HD
HETATM   20  C18 UNL     1      26.853  17.588  54.486  1.00  0.00     0.094 A
HETATM   21  C17 UNL     1      25.595  18.046  54.191  1.00  0.00     0.133 A
HETATM   22 CL1  UNL     1      28.185  18.698  54.810  1.00  0.00    -0.079 Cl
HETATM   23  N7  UNL     1      24.603  17.177  53.959  1.00  0.00    -0.200 N
ATOM     24  H7  UNL     1      23.676  17.543  53.742  1.00  0.00     0.183 HD
BRANCH  18  25
HETATM   25  N2  UNL     1      28.341  15.768  54.847  1.00  0.00    -0.325 N
ATOM     26  H2  UNL     1      29.026  15.846  54.095  1.00  0.00     0.169 HD
BRANCH  25  27
HETATM   27  C5  UNL     1      28.786  15.274  55.946  1.00  0.00     0.130 A
HETATM   28  C4  UNL     1      28.455  15.735  57.217  1.00  0.00     0.087 A
HETATM   29  C3  UNL     1      29.214  14.957  58.090  1.00  0.00     0.120 A
HETATM   30  N9  UNL     1      29.936  14.098  57.359  1.00  0.00    -0.288 N
HETATM   31  N8  UNL     1      29.697  14.265  56.073  1.00  0.00    -0.250 N
ATOM     32  H9  UNL     1      30.581  13.408  57.744  1.00  0.00     0.188 HD
BRANCH  29  33
HETATM   33  C2  UNL     1      29.177  15.110  59.560  1.00  0.00     0.269 C
HETATM   34  N1  UNL     1      30.282  14.716  60.320  1.00  0.00    -0.360 N
HETATM   35  C1  UNL     1      30.244  14.870  61.771  1.00  0.00     0.149 C
ATOM     36  H1  UNL     1      31.107  14.326  59.865  1.00  0.00     0.162 HD
HETATM   37  O1  UNL     1      28.166  15.588  60.132  1.00  0.00    -0.266 OA
ENDBRANCH  29  33
BRANCH  31  38
HETATM   38  C19 UNL     1      30.256  13.507  55.026  1.00  0.00     0.121 C
BRANCH  38  39
HETATM   39  C20 UNL     1      29.535  12.263  54.580  1.00  0.00    -0.062 C
HETATM   40  C21 UNL     1      28.747  12.315  53.345  1.00  0.00     0.036 C
HETATM   41  C22 UNL     1      27.248  12.283  53.493  1.00  0.00     0.011 C
HETATM   42  C23 UNL     1      26.874  11.093  54.343  1.00  0.00     0.010 C
HETATM   43  C26 UNL     1      27.428  11.421  55.722  1.00  0.00     0.011 C
HETATM   44  C27 UNL     1      28.899  11.537  55.741  1.00  0.00     0.036 C
BRANCH  42  45
HETATM   45  C24 UNL     1      27.436   9.824  53.798  1.00  0.00     0.171 C
BRANCH  45  46
HETATM   46  O2  UNL     1      27.134   8.691  54.505  1.00  0.00    -0.396 OA
HETATM   47  C25 UNL     1      28.181   7.887  54.862  1.00  0.00     0.201 C
ENDBRANCH  45  46
ENDBRANCH  42  45
ENDBRANCH  38  39
ENDBRANCH  31  38
ENDBRANCH  25  27
ENDBRANCH  18  25
ENDBRANCH  14  16
ENDBRANCH  10  14
ENDBRANCH   4   7
ENDBRANCH   1   4
TORSDOF 11
ENDMDL