MODEL 1
REMARK VINA RESULT: -7.680742458      0.000      0.000
REMARK  16 active torsions:
REMARK  status: ('A' for Active; 'I' for Inactive)
REMARK    1  A    between atoms: C3_3  and  C4_4
REMARK    2  A    between atoms: C4_4  and  C5_5
REMARK    3  A    between atoms: C5_5  and  C6_6
REMARK    4  A    between atoms: C6_6  and  C7_7
REMARK    5  A    between atoms: C7_7  and  C8_8
REMARK    6  A    between atoms: C8_8  and  C9_9
REMARK    7  A    between atoms: C8_8  and  N5_31
REMARK    8  A    between atoms: C9_9  and  N1_10
REMARK    9  A    between atoms: N4_16  and  C11_18
REMARK   10  A    between atoms: C14_21  and  C15_22
REMARK   11  A    between atoms: C15_22  and  O1_25
REMARK   12  A    between atoms: N5_31  and  C21_33
REMARK   13  A    between atoms: C21_33  and  C22_34
REMARK   14  A    between atoms: C24_36  and  O3_37
REMARK   15  A    between atoms: C26_39  and  O4_40
REMARK   16  A    between atoms: C28_42  and  O5_43
ROOT
HETATM    1  C1  UNL     1      20.621  12.171  45.381  1.00  0.00     0.112 C
HETATM    2  C2  UNL     1      20.138  11.808  46.710  1.00  0.00    -0.106 C
HETATM    3  C3  UNL     1      19.734  11.531  47.813  1.00  0.00    -0.078 C
ENDROOT
BRANCH   3   4
HETATM    4  C4  UNL     1      19.252  11.240  49.101  1.00  0.00     0.073 C
BRANCH   4   5
HETATM    5  C5  UNL     1      20.060  10.813  50.077  1.00  0.00     0.073 C
BRANCH   5   6
HETATM    6  C6  UNL     1      20.991  11.765  50.672  1.00  0.00    -0.071 C
BRANCH   6   7
HETATM    7  C7  UNL     1      21.773  12.564  51.112  1.00  0.00    -0.043 C
BRANCH   7   8
HETATM    8  C8  UNL     1      22.667  13.582  51.648  1.00  0.00     0.104 C
BRANCH   8   9
HETATM    9  C9  UNL     1      24.066  13.264  51.830  1.00  0.00     0.160 C
BRANCH   9  10
HETATM   10  N1  UNL     1      24.570  12.354  52.791  1.00  0.00    -0.211 N
HETATM   11  N2  UNL     1      24.770  12.715  54.083  1.00  0.00    -0.232 N
HETATM   12  N3  UNL     1      25.353  11.731  54.740  1.00  0.00    -0.266 N
ATOM     13  H2  UNL     1      24.509  13.615  54.487  1.00  0.00     0.209 HD
HETATM   14  C10 UNL     1      25.561  10.701  53.936  1.00  0.00     0.189 A
ATOM     15  H3  UNL     1      25.608  11.761  55.728  1.00  0.00     0.190 HD
HETATM   16  N4  UNL     1      26.160   9.597  54.065  1.00  0.00    -0.366 N
HETATM   17  C20 UNL     1      25.051  11.109  52.687  1.00  0.00     0.312 A
ATOM     18  H4  UNL     1      26.136   9.000  53.238  1.00  0.00     0.161 HD
HETATM   19  O2  UNL     1      25.073  10.382  51.681  1.00  0.00    -0.262 OA
BRANCH  16  20
HETATM   20  C11 UNL     1      26.857   9.054  55.165  1.00  0.00     0.083 C
HETATM   21  C12 UNL     1      26.179   7.934  55.863  1.00  0.00     0.026 C
HETATM   22  C13 UNL     1      26.857   6.612  55.863  1.00  0.00     0.009 C
HETATM   23  C14 UNL     1      28.319   6.556  56.078  1.00  0.00     0.019 C
HETATM   24  C18 UNL     1      28.967   7.882  55.789  1.00  0.00     0.009 C
HETATM   25  C19 UNL     1      28.224   8.547  54.654  1.00  0.00     0.026 C
BRANCH  23  26
HETATM   26  C15 UNL     1      28.760   6.015  57.421  1.00  0.00     0.054 C
HETATM   27  C16 UNL     1      27.775   5.045  58.011  1.00  0.00     0.045 C
HETATM   28  C17 UNL     1      29.109   7.094  58.411  1.00  0.00     0.045 C
BRANCH  26  29
HETATM   29  O1  UNL     1      29.955   5.267  57.239  1.00  0.00    -0.390 OA
ATOM     30  H1  UNL     1      30.675   5.874  57.110  1.00  0.00     0.210 HD
ENDBRANCH  26  29
ENDBRANCH  23  26
ENDBRANCH  16  20
ENDBRANCH   9  10
ENDBRANCH   8   9
BRANCH   8  31
HETATM   31  N5  UNL     1      22.191  14.874  51.418  1.00  0.00    -0.357 N
ATOM     32  H5  UNL     1      21.959  15.163  50.468  1.00  0.00     0.166 HD
BRANCH  31  33
HETATM   33  C21 UNL     1      22.028  15.780  52.477  1.00  0.00     0.100 C
BRANCH  33  34
HETATM   34  C22 UNL     1      20.641  15.790  52.998  1.00  0.00    -0.015 A
HETATM   35  C23 UNL     1      20.183  14.767  53.774  1.00  0.00     0.052 A
HETATM   36  C24 UNL     1      18.927  14.868  54.374  1.00  0.00     0.105 A
HETATM   37  C26 UNL     1      18.181  16.013  54.158  1.00  0.00     0.135 A
HETATM   38  C28 UNL     1      18.623  17.045  53.381  1.00  0.00     0.105 A
HETATM   39  C30 UNL     1      19.878  16.904  52.804  1.00  0.00     0.052 A
BRANCH  36  40
HETATM   40  O3  UNL     1      18.419  13.877  55.164  1.00  0.00    -0.353 OA
HETATM   41  C25 UNL     1      17.929  12.658  54.697  1.00  0.00     0.210 C
ENDBRANCH  36  40
BRANCH  37  42
HETATM   42  O4  UNL     1      16.926  16.077  54.786  1.00  0.00    -0.351 OA
HETATM   43  C27 UNL     1      16.945  16.739  56.061  1.00  0.00     0.210 C
ENDBRANCH  37  42
BRANCH  38  44
HETATM   44  O5  UNL     1      17.854  18.169  53.191  1.00  0.00    -0.353 OA
HETATM   45  C29 UNL     1      16.890  18.268  52.157  1.00  0.00     0.210 C
ENDBRANCH  38  44
ENDBRANCH  33  34
ENDBRANCH  31  33
ENDBRANCH   8  31
ENDBRANCH   7   8
ENDBRANCH   6   7
ENDBRANCH   5   6
ENDBRANCH   4   5
ENDBRANCH   3   4
TORSDOF 16
ENDMDL