MODEL 2
REMARK VINA RESULT: -7.135749570      1.617      2.601
REMARK  13 active torsions:
REMARK  status: ('A' for Active; 'I' for Inactive)
REMARK    1  A    between atoms: C4_4  and  C5_5
REMARK    2  A    between atoms: C5_5  and  N1_6
REMARK    3  A    between atoms: N1_6  and  C7_8
REMARK    4  A    between atoms: C7_8  and  C8_9
REMARK    5  A    between atoms: C13_15  and  C14_16
REMARK    6  A    between atoms: C21_25  and  C22_26
REMARK    7  A    between atoms: C22_26  and  O3_27
REMARK    8  A    between atoms: C22_26  and  O4_29
REMARK    9  A    between atoms: N2_34  and  C25_35
REMARK   10  A    between atoms: C25_35  and  C26_36
REMARK   11  A    between atoms: C25_35  and  C27_39
REMARK   12  A    between atoms: C26_36  and  O6_37
REMARK   13  A    between atoms: C27_39  and  O7_40
ROOT
HETATM    1  C8  UNL     1      23.396  14.117  54.378  1.00  0.00     0.162 C
HETATM    2  O1  UNL     1      23.436  12.732  54.704  1.00  0.00    -0.338 OA
HETATM    3  C9  UNL     1      24.398  11.818  54.255  1.00  0.00     0.142 A
HETATM    4  C10 UNL     1      24.704  11.686  52.917  1.00  0.00     0.106 A
HETATM    5  C11 UNL     1      25.673  10.763  52.602  1.00  0.00     0.041 A
HETATM    6  C12 UNL     1      26.323   9.991  53.559  1.00  0.00     0.018 A
HETATM    7  C13 UNL     1      26.030  10.104  54.906  1.00  0.00     0.011 A
HETATM    8  C20 UNL     1      25.058  11.034  55.189  1.00  0.00     0.163 A
HETATM    9  F1  UNL     1      24.676  11.173  56.516  1.00  0.00    -0.202 F
HETATM   10  O2  UNL     1      24.092  12.419  51.931  1.00  0.00    -0.338 OA
HETATM   11  C21 UNL     1      22.851  12.436  51.332  1.00  0.00     0.192 C
HETATM   12  C23 UNL     1      21.702  11.816  52.013  1.00  0.00     0.140 C
HETATM   13  C24 UNL     1      20.599  12.807  52.146  1.00  0.00     0.222 C
HETATM   14  O5  UNL     1      20.077  13.198  51.071  1.00  0.00    -0.273 OA
HETATM   15  N2  UNL     1      20.111  13.324  53.376  1.00  0.00    -0.343 N
HETATM   16  C28 UNL     1      20.931  13.597  54.512  1.00  0.00     0.133 C
HETATM   17  C29 UNL     1      21.976  14.645  54.379  1.00  0.00     0.031 C
HETATM   18  C30 UNL     1      21.761  15.652  53.275  1.00  0.00     0.014 C
ENDROOT
BRANCH   1  19
HETATM   19  C7  UNL     1      24.135  14.775  55.566  1.00  0.00     0.304 C
BRANCH  19  20
HETATM   20  N1  UNL     1      25.288  15.496  55.196  1.00  0.00     0.087 N
HETATM   21  C6  UNL     1      25.499  15.528  53.762  1.00  0.00     0.310 C
BRANCH  20  22
HETATM   22  C5  UNL     1      26.461  14.930  55.784  1.00  0.00     0.277 C
BRANCH  22  23
HETATM   23  C4  UNL     1      27.260  14.025  54.920  1.00  0.00     0.018 A
HETATM   24  C2  UNL     1      28.161  13.020  55.539  1.00  0.00    -0.012 A
HETATM   25  C1  UNL     1      28.173  12.810  57.035  1.00  0.00     0.010 C
HETATM   26  C3  UNL     1      28.782  14.266  54.978  1.00  0.00     0.011 A
ENDBRANCH  22  23
ENDBRANCH  20  22
ENDBRANCH  19  20
ENDBRANCH   1  19
BRANCH  15  27
HETATM   27  C25 UNL     1      18.662  13.563  53.438  1.00  0.00     0.134 C
BRANCH  27  28
HETATM   28  C26 UNL     1      18.030  12.278  54.030  1.00  0.00     0.191 C
BRANCH  28  29
HETATM   29  O6  UNL     1      17.933  12.352  55.399  1.00  0.00    -0.399 OA
ATOM     30  H6  UNL     1      18.104  11.509  55.804  1.00  0.00     0.209 HD
ENDBRANCH  28  29
ENDBRANCH  27  28
BRANCH  27  31
HETATM   31  C27 UNL     1      18.263  14.656  54.366  1.00  0.00     0.191 C
BRANCH  31  32
HETATM   32  O7  UNL     1      16.897  14.917  54.116  1.00  0.00    -0.399 OA
ATOM     33  H7  UNL     1      16.846  15.280  53.239  1.00  0.00     0.209 HD
ENDBRANCH  31  32
ENDBRANCH  27  31
ENDBRANCH  15  27
BRANCH   7  34
HETATM   34  C14 UNL     1      26.712   9.252  55.877  1.00  0.00    -0.049 C
HETATM   35  C15 UNL     1      27.994   9.294  56.181  1.00  0.00    -0.019 C
HETATM   36  C16 UNL     1      28.458   8.304  57.224  1.00  0.00     0.028 C
HETATM   37  C17 UNL     1      28.031   6.913  56.831  1.00  0.00     0.004 C
HETATM   38  C18 UNL     1      26.606   6.884  56.322  1.00  0.00     0.005 C
HETATM   39  C19 UNL     1      25.978   8.212  56.691  1.00  0.00     0.039 C
ENDBRANCH   7  34
BRANCH  11  40
HETATM   40  C22 UNL     1      22.883  11.917  49.892  1.00  0.00     0.283 C
BRANCH  40  41
HETATM   41  O3  UNL     1      22.410  10.610  49.807  1.00  0.00    -0.369 OA
ATOM     42  H3  UNL     1      21.487  10.556  50.020  1.00  0.00     0.212 HD
ENDBRANCH  40  41
BRANCH  40  43
HETATM   43  O4  UNL     1      22.130  12.695  49.039  1.00  0.00    -0.369 OA
ATOM     44  H4  UNL     1      22.031  13.585  49.356  1.00  0.00     0.212 HD
ENDBRANCH  40  43
ENDBRANCH  11  40
TORSDOF 13
ENDMDL