MODEL 5
REMARK VINA RESULT: -8.007122965      0.771      1.180
REMARK  12 active torsions:
REMARK  status: ('A' for Active; 'I' for Inactive)
REMARK    1  A    between atoms: O1_2  and  C2_3
REMARK    2  A    between atoms: C3_4  and  N1_5
REMARK    3  A    between atoms: C8_10  and  C9_11
REMARK       I    between atoms: C9_11  and  N2_13
REMARK    4  A    between atoms: N2_13  and  C10_15
REMARK    5  A    between atoms: C17_22  and  N3_23
REMARK       I    between atoms: N3_23  and  C18_25
REMARK    6  A    between atoms: C18_25  and  C19_27
REMARK    7  A    between atoms: C19_27  and  O4_28
REMARK    8  A    between atoms: O4_28  and  C20_29
REMARK    9  A    between atoms: C20_29  and  C21_31
REMARK   10  A    between atoms: C21_31  and  N4_32
REMARK       I    between atoms: N4_32  and  C22_34
REMARK   11  A    between atoms: C22_34  and  C23_36
REMARK       I    between atoms: C23_36  and  N5_38
REMARK   12  A    between atoms: N5_38  and  C24_40
ROOT
HETATM    1  C2  UNL     1      23.412  16.371  54.011  1.00  0.00     0.122 A
HETATM    2  C3  UNL     1      22.676  17.514  53.820  1.00  0.00     0.065 A
HETATM    3  C6  UNL     1      21.421  17.357  53.284  1.00  0.00     0.033 A
HETATM    4  C7  UNL     1      20.907  16.128  52.944  1.00  0.00     0.022 A
HETATM    5  C8  UNL     1      21.637  14.956  53.129  1.00  0.00     0.061 A
HETATM    6  C17 UNL     1      22.900  15.106  53.670  1.00  0.00     0.086 A
ENDROOT
BRANCH   6   7
HETATM    7  N3  UNL     1      23.697  13.965  53.890  1.00  0.00    -0.322 N
HETATM    8  C18 UNL     1      24.520  13.461  52.816  1.00  0.00     0.246 C
HETATM    9  O3  UNL     1      24.537  14.005  51.695  1.00  0.00    -0.271 OA
ATOM     10  H3  UNL     1      23.693  13.499  54.798  1.00  0.00     0.169 HD
BRANCH   8  11
HETATM   11  C19 UNL     1      25.374  12.265  53.051  1.00  0.00     0.281 C
BRANCH  11  12
HETATM   12  O4  UNL     1      26.707  12.545  52.865  1.00  0.00    -0.311 OA
BRANCH  12  13
HETATM   13  C20 UNL     1      27.736  11.760  53.311  1.00  0.00     0.277 C
HETATM   14  O5  UNL     1      28.637  12.229  54.030  1.00  0.00    -0.263 OA
BRANCH  13  15
HETATM   15  C21 UNL     1      27.708  10.329  52.892  1.00  0.00     0.234 C
BRANCH  15  16
HETATM   16  N4  UNL     1      28.174   9.520  53.961  1.00  0.00    -0.344 N
HETATM   17  C22 UNL     1      27.350   8.804  54.835  1.00  0.00     0.309 C
HETATM   18  O6  UNL     1      26.087   8.814  54.769  1.00  0.00    -0.262 OA
ATOM     19  H4  UNL     1      29.183   9.455  54.101  1.00  0.00     0.163 HD
BRANCH  17  20
HETATM   20  C23 UNL     1      28.008   8.002  55.880  1.00  0.00     0.309 C
HETATM   21  O7  UNL     1      29.174   8.294  56.292  1.00  0.00    -0.262 OA
HETATM   22  N5  UNL     1      27.335   6.894  56.427  1.00  0.00    -0.345 N
ATOM     23  H5  UNL     1      26.398   6.659  56.101  1.00  0.00     0.163 HD
BRANCH  22  24
HETATM   24  C24 UNL     1      27.970   6.080  57.457  1.00  0.00     0.022 C
HETATM   25  C25 UNL     1      28.250   6.908  58.702  1.00  0.00     0.037 C
HETATM   26  C26 UNL     1      29.277   5.500  57.000  1.00  0.00     0.037 C
HETATM   27  C27 UNL     1      27.052   4.919  57.768  1.00  0.00     0.037 C
ENDBRANCH  22  24
ENDBRANCH  17  20
ENDBRANCH  15  16
ENDBRANCH  13  15
ENDBRANCH  12  13
ENDBRANCH  11  12
ENDBRANCH   8  11
ENDBRANCH   6   7
BRANCH   1  28
HETATM   28  O1  UNL     1      24.673  16.483  54.549  1.00  0.00    -0.351 OA
HETATM   29  C1  UNL     1      25.875  16.689  53.881  1.00  0.00     0.210 C
ENDBRANCH   1  28
BRANCH   5  30
HETATM   30  C9  UNL     1      21.076  13.656  52.762  1.00  0.00     0.254 C
HETATM   31  O2  UNL     1      20.814  12.772  53.637  1.00  0.00    -0.268 OA
HETATM   32  N2  UNL     1      20.783  13.270  51.434  1.00  0.00    -0.352 N
ATOM     33  H2  UNL     1      20.957  13.938  50.684  1.00  0.00     0.163 HD
BRANCH  32  34
HETATM   34  C10 UNL     1      20.244  11.963  51.089  1.00  0.00     0.084 C
HETATM   35  C11 UNL     1      21.379  10.997  51.041  1.00  0.00     0.025 C
HETATM   36  C12 UNL     1      22.523  11.331  50.163  1.00  0.00     0.002 C
HETATM   37  C13 UNL     1      22.280  10.866  48.766  1.00  0.00     0.000 C
HETATM   38  C14 UNL     1      21.049  11.532  48.199  1.00  0.00     0.000 C
HETATM   39  C15 UNL     1      19.776  11.037  48.839  1.00  0.00     0.002 C
HETATM   40  C16 UNL     1      19.311  11.956  49.940  1.00  0.00     0.025 C
ENDBRANCH  32  34
ENDBRANCH   5  30
BRANCH   2  41
HETATM   41  N1  UNL     1      23.188  18.804  54.166  1.00  0.00    -0.387 N
HETATM   42  C4  UNL     1      23.116  19.359  55.504  1.00  0.00     0.149 C
HETATM   43  C5  UNL     1      23.800  19.613  53.150  1.00  0.00     0.149 C
ENDBRANCH   2  41
TORSDOF 12
ENDMDL