MODEL 5
REMARK VINA RESULT: -6.937363863      2.489      5.396
REMARK  13 active torsions:
REMARK  status: ('A' for Active; 'I' for Inactive)
REMARK    1  A    between atoms: C2_2  and  C3_3
REMARK    2  A    between atoms: C3_3  and  C4_4
REMARK    3  A    between atoms: C4_4  and  C5_5
REMARK    4  A    between atoms: C6_6  and  C7_7
REMARK    5  A    between atoms: C7_7  and  C8_8
REMARK    6  A    between atoms: C8_8  and  C9_9
REMARK    7  A    between atoms: C10_11  and  O2_12
REMARK    8  A    between atoms: C12_15  and  O3_17
REMARK    9  A    between atoms: C14_19  and  O4_20
REMARK   10  A    between atoms: C17_26  and  N1_27
REMARK   11  A    between atoms: C24_34  and  O6_36
REMARK   12  A    between atoms: O6_36  and  C26_37
REMARK       I    between atoms: C26_37  and  N2_39
REMARK   13  A    between atoms: N2_39  and  C27_41
ROOT
HETATM    1  C9  UNL     1      22.264  14.464  52.745  1.00  0.00     0.163 C
HETATM    2  O1  UNL     1      21.485  13.925  53.743  1.00  0.00    -0.352 OA
HETATM    3  C10 UNL     1      21.412  14.857  54.780  1.00  0.00     0.267 C
HETATM    4  C11 UNL     1      22.823  15.014  55.340  1.00  0.00     0.117 C
HETATM    5  C12 UNL     1      22.883  15.099  56.794  1.00  0.00     0.096 C
HETATM    6  C13 UNL     1      22.007  16.079  57.515  1.00  0.00     0.049 C
HETATM    7  C14 UNL     1      24.260  14.948  57.370  1.00  0.00     0.201 C
HETATM    8  C15 UNL     1      25.364  14.983  56.390  1.00  0.00     0.091 C
HETATM    9 CL1  UNL     1      26.440  13.540  56.591  1.00  0.00    -0.082 Cl
HETATM   10  C16 UNL     1      25.103  15.341  55.020  1.00  0.00     0.201 C
HETATM   11  O5  UNL     1      26.062  15.383  54.256  1.00  0.00    -0.289 OA
HETATM   12  C17 UNL     1      23.730  15.687  54.384  1.00  0.00     0.140 C
HETATM   13  C24 UNL     1      23.680  14.832  53.125  1.00  0.00     0.128 C
HETATM   14  C25 UNL     1      24.066  15.777  51.903  1.00  0.00     0.052 C
ENDROOT
BRANCH   1  15
HETATM   15  C8  UNL     1      22.172  13.740  51.432  1.00  0.00     0.039 C
BRANCH  15  16
HETATM   16  C7  UNL     1      21.435  12.397  51.617  1.00  0.00     0.029 C
BRANCH  16  17
HETATM   17  C6  UNL     1      20.121  12.424  50.974  1.00  0.00    -0.031 C
HETATM   18  C5  UNL     1      19.867  11.782  49.863  1.00  0.00    -0.031 C
BRANCH  18  19
HETATM   19  C4  UNL     1      20.765  10.946  49.052  1.00  0.00     0.027 C
BRANCH  19  20
HETATM   20  C3  UNL     1      21.125  11.747  47.813  1.00  0.00     0.003 C
BRANCH  20  21
HETATM   21  C2  UNL     1      19.940  11.736  46.887  1.00  0.00    -0.004 C
HETATM   22  C1  UNL     1      20.427  12.090  45.496  1.00  0.00     0.005 C
ENDBRANCH  20  21
ENDBRANCH  19  20
ENDBRANCH  18  19
ENDBRANCH  16  17
ENDBRANCH  15  16
ENDBRANCH   1  15
BRANCH  13  23
HETATM   23  O6  UNL     1      24.611  13.908  52.980  1.00  0.00    -0.287 OA
BRANCH  23  24
HETATM   24  C26 UNL     1      25.116  12.722  53.081  1.00  0.00     0.361 C
HETATM   25  O7  UNL     1      26.000  12.514  52.219  1.00  0.00    -0.238 OA
HETATM   26  N2  UNL     1      24.818  11.666  53.997  1.00  0.00    -0.337 N
ATOM     27  H2  UNL     1      24.101  11.817  54.708  1.00  0.00     0.164 HD
BRANCH  26  28
HETATM   28  C27 UNL     1      25.496  10.394  53.949  1.00  0.00     0.120 C
HETATM   29  C28 UNL     1      25.835   9.944  55.354  1.00  0.00     0.026 C
ENDBRANCH  26  28
ENDBRANCH  23  24
ENDBRANCH  13  23
BRANCH   3  30
HETATM   30  O2  UNL     1      20.524  14.381  55.702  1.00  0.00    -0.371 OA
ATOM     31  H2  UNL     1      19.968  15.105  55.966  1.00  0.00     0.212 HD
ENDBRANCH   3  30
BRANCH  12  32
HETATM   32  N1  UNL     1      23.868  17.060  54.254  1.00  0.00    -0.390 N
HETATM   33  C18 UNL     1      24.753  17.786  55.131  1.00  0.00     0.118 C
HETATM   34  C19 UNL     1      24.940  19.261  54.758  1.00  0.00     0.020 C
HETATM   35  C20 UNL     1      24.763  19.482  53.300  1.00  0.00     0.004 C
HETATM   36  C21 UNL     1      23.321  19.145  53.032  1.00  0.00     0.024 C
HETATM   37  C22 UNL     1      22.853  17.973  53.911  1.00  0.00     0.076 C
HETATM   38  C23 UNL     1      22.160  18.684  55.074  1.00  0.00     0.032 C
ENDBRANCH  12  32
BRANCH   5  39
HETATM   39  O3  UNL     1      22.260  13.847  57.230  1.00  0.00    -0.387 OA
ATOM     40  H3  UNL     1      21.532  14.141  57.766  1.00  0.00     0.210 HD
ENDBRANCH   5  39
BRANCH   7  41
HETATM   41  O4  UNL     1      24.363  15.937  58.383  1.00  0.00    -0.387 OA
ATOM     42  H4  UNL     1      25.294  16.063  58.525  1.00  0.00     0.210 HD
ENDBRANCH   7  41
TORSDOF 13
ENDMDL