MODEL 4
REMARK VINA RESULT: -7.081147009      1.187      1.566
REMARK  14 active torsions:
REMARK  status: ('A' for Active; 'I' for Inactive)
REMARK    1  A    between atoms: C2_2  and  C4_4
REMARK    2  A    between atoms: C9_9  and  C10_10
REMARK    3  A    between atoms: C10_10  and  O1_11
REMARK    4  A    between atoms: C10_10  and  C11_13
REMARK    5  A    between atoms: C11_13  and  C12_14
REMARK    6  A    between atoms: C12_14  and  O2_15
REMARK    7  A    between atoms: C12_14  and  O3_17
REMARK    8  A    between atoms: C12_14  and  C13_20
REMARK    9  A    between atoms: O3_17  and  O4_18
REMARK   10  A    between atoms: C21_30  and  O6_31
REMARK   11  A    between atoms: C22_33  and  O7_34
REMARK   12  A    between atoms: O7_34  and  C23_35
REMARK   13  A    between atoms: C23_35  and  C24_36
REMARK   14  A    between atoms: C24_36  and  C25_37
ROOT
HETATM    1  C4  UNL     1      20.153  13.270  52.595  1.00  0.00     0.110 C
HETATM    2  C5  UNL     1      20.573  14.642  52.956  1.00  0.00     0.030 C
HETATM    3  C6  UNL     1      21.875  15.176  52.543  1.00  0.00     0.037 C
HETATM    4  C7  UNL     1      23.086  14.315  52.407  1.00  0.00     0.013 C
HETATM    5  C8  UNL     1      24.057  14.959  51.455  1.00  0.00     0.020 C
HETATM    6  C9  UNL     1      23.861  14.173  53.696  1.00  0.00     0.098 C
HETATM    7  C16 UNL     1      24.286  15.595  54.009  1.00  0.00     0.161 C
HETATM    8  O5  UNL     1      25.427  15.863  54.319  1.00  0.00    -0.295 OA
HETATM    9  C17 UNL     1      23.321  16.723  53.949  1.00  0.00     0.139 A
HETATM   10 CL1  UNL     1      24.070  18.322  53.776  1.00  0.00    -0.106 Cl
HETATM   11  C18 UNL     1      22.018  16.610  54.777  1.00  0.00     0.018 A
HETATM   12  C19 UNL     1      22.199  15.685  55.906  1.00  0.00     0.020 C
HETATM   13  C20 UNL     1      21.551  18.006  55.274  1.00  0.00     0.020 C
HETATM   14  C21 UNL     1      22.043  16.432  53.347  1.00  0.00     0.101 A
HETATM   15  C22 UNL     1      22.735  12.994  51.788  1.00  0.00     0.224 C
HETATM   16  S1  UNL     1      21.554  12.251  52.978  1.00  0.00     0.053 S
HETATM   17  O8  UNL     1      21.329  10.657  52.671  1.00  0.00    -0.255 OA
ENDROOT
BRANCH   6  18
HETATM   18  C10 UNL     1      25.146  13.418  53.594  1.00  0.00     0.136 C
BRANCH  18  19
HETATM   19  O1  UNL     1      26.272  14.101  54.033  1.00  0.00    -0.395 OA
ATOM     20  H1  UNL     1      26.102  14.927  54.471  1.00  0.00     0.210 HD
ENDBRANCH  18  19
BRANCH  18  21
HETATM   21  C11 UNL     1      24.997  12.061  54.213  1.00  0.00     0.108 C
BRANCH  21  22
HETATM   22  C12 UNL     1      25.788  10.988  53.513  1.00  0.00     0.221 C
BRANCH  22  23
HETATM   23  O2  UNL     1      26.877  11.508  52.809  1.00  0.00    -0.360 OA
ATOM     24  H2  UNL     1      27.539  10.850  52.634  1.00  0.00     0.213 HD
ENDBRANCH  22  23
BRANCH  22  25
HETATM   25  O3  UNL     1      24.902  10.346  52.651  1.00  0.00    -0.198 OA
BRANCH  25  26
HETATM   26  O4  UNL     1      25.529  10.088  51.523  1.00  0.00    -0.247 OA
ATOM     27  H4  UNL     1      25.541   9.148  51.392  1.00  0.00     0.253 HD
ENDBRANCH  25  26
ENDBRANCH  22  25
BRANCH  22  28
HETATM   28  C13 UNL     1      26.348  10.056  54.503  1.00  0.00    -0.029 C
HETATM   29  C14 UNL     1      25.690   9.747  55.591  1.00  0.00     0.019 C
HETATM   30  C15 UNL     1      27.672   9.416  54.266  1.00  0.00     0.048 C
ENDBRANCH  22  28
ENDBRANCH  21  22
ENDBRANCH  18  21
ENDBRANCH   6  18
BRANCH  15  31
HETATM   31  O7  UNL     1      22.094  13.199  50.608  1.00  0.00    -0.372 OA
BRANCH  31  32
HETATM   32  C23 UNL     1      22.351  12.472  49.516  1.00  0.00     0.169 C
BRANCH  32  33
HETATM   33  C24 UNL     1      22.077  11.017  49.487  1.00  0.00     0.030 C
BRANCH  33  34
HETATM   34  C25 UNL     1      20.760  10.812  48.731  1.00  0.00    -0.021 C
HETATM   35  C26 UNL     1      20.623  11.777  47.597  1.00  0.00     0.009 C
HETATM   36  C27 UNL     1      19.584  10.926  49.665  1.00  0.00     0.009 C
ENDBRANCH  33  34
ENDBRANCH  32  33
ENDBRANCH  31  32
ENDBRANCH  15  31
BRANCH  14  37
HETATM   37  O6  UNL     1      21.514  17.556  52.625  1.00  0.00    -0.386 OA
ATOM     38  H6  UNL     1      22.130  18.278  52.647  1.00  0.00     0.210 HD
ENDBRANCH  14  37
BRANCH   1  39
HETATM   39  C2  UNL     1      18.963  12.894  53.408  1.00  0.00    -0.077 C
HETATM   40  C1  UNL     1      18.455  11.692  53.230  1.00  0.00     0.015 C
HETATM   41  C3  UNL     1      18.347  13.820  54.394  1.00  0.00     0.044 C
ENDBRANCH   1  39
TORSDOF 14
ENDMDL