MODEL 5
REMARK VINA RESULT: -8.248273919      1.336      1.638
REMARK  15 active torsions:
REMARK  status: ('A' for Active; 'I' for Inactive)
REMARK    1  A    between atoms: C3_4  and  C4_5
REMARK    2  A    between atoms: C5_6  and  C6_7
REMARK    3  A    between atoms: C6_7  and  S1_8
REMARK    4  A    between atoms: S1_8  and  C7_9
REMARK    5  A    between atoms: C7_9  and  C8_10
REMARK    6  A    between atoms: C10_13  and  O2_14
REMARK    7  A    between atoms: C12_18  and  O3_19
REMARK    8  A    between atoms: C13_21  and  N2_22
REMARK    9  A    between atoms: N2_22  and  C15_24
REMARK   10  A    between atoms: C15_24  and  O4_25
REMARK   11  A    between atoms: C15_24  and  C16_27
REMARK   12  A    between atoms: C19_30  and  C20_31
REMARK   13  A    between atoms: C21_32  and  C22_33
REMARK   14  A    between atoms: C22_33  and  O5_34
REMARK   15  A    between atoms: N3_36  and  O6_38
ROOT
HETATM    1  C1  UNL     1      27.042  18.620  56.238  1.00  0.00     0.143 C
HETATM    2  N1  UNL     1      26.409  17.446  55.733  1.00  0.00    -0.411 N
HETATM    3  C2  UNL     1      27.000  16.210  56.121  1.00  0.00     0.157 C
HETATM    4  C3  UNL     1      27.207  15.312  54.932  1.00  0.00    -0.017 C
HETATM    5  C13 UNL     1      26.114  15.078  54.014  1.00  0.00     0.030 C
HETATM    6  C25 UNL     1      25.207  16.296  53.994  1.00  0.00     0.011 C
HETATM    7  C26 UNL     1      24.739  16.621  52.557  1.00  0.00     0.023 C
HETATM    8  C27 UNL     1      24.043  16.290  54.915  1.00  0.00     0.023 C
HETATM    9  C28 UNL     1      26.026  17.551  54.366  1.00  0.00     0.131 C
ENDROOT
BRANCH   5  10
HETATM   10  N2  UNL     1      25.354  13.860  53.960  1.00  0.00    -0.334 N
HETATM   11  C14 UNL     1      24.575  13.648  55.179  1.00  0.00     0.158 C
BRANCH  10  12
HETATM   12  C15 UNL     1      25.240  12.988  52.892  1.00  0.00     0.152 C
BRANCH  12  13
HETATM   13  O4  UNL     1      26.277  12.259  52.545  1.00  0.00    -0.345 OA
ATOM     14  H4  UNL     1      26.974  12.656  52.036  1.00  0.00     0.219 HD
ENDBRANCH  12  13
BRANCH  12  15
HETATM   15  C16 UNL     1      24.149  12.677  52.004  1.00  0.00     0.015 A
HETATM   16  C17 UNL     1      23.920  11.384  51.595  1.00  0.00     0.016 A
HETATM   17  C18 UNL     1      22.824  11.072  50.777  1.00  0.00     0.012 A
HETATM   18  C19 UNL     1      21.961  12.025  50.362  1.00  0.00    -0.036 A
HETATM   19  C23 UNL     1      22.206  13.330  50.784  1.00  0.00     0.012 A
HETATM   20  C24 UNL     1      23.257  13.666  51.577  1.00  0.00     0.016 A
BRANCH  18  21
HETATM   21  C20 UNL     1      20.832  11.727  49.484  1.00  0.00     0.015 C
HETATM   22  C21 UNL     1      20.820  11.815  48.190  1.00  0.00     0.058 C
BRANCH  22  23
HETATM   23  C22 UNL     1      19.737  11.538  47.285  1.00  0.00     0.159 C
HETATM   24  N3  UNL     1      19.581  11.965  46.094  1.00  0.00    -0.248 N
ATOM     25  H3  UNL     1      18.731  11.634  45.638  1.00  0.00     0.196 HD
BRANCH  23  26
HETATM   26  O5  UNL     1      18.685  10.688  47.726  1.00  0.00    -0.345 OA
ATOM     27  H5  UNL     1      17.790  10.993  47.639  1.00  0.00     0.219 HD
ENDBRANCH  23  26
BRANCH  24  28
HETATM   28  O6  UNL     1      20.329  12.767  45.339  1.00  0.00    -0.288 OA
ATOM     29  H6  UNL     1      20.506  13.699  45.395  1.00  0.00     0.244 HD
ENDBRANCH  24  28
ENDBRANCH  22  23
ENDBRANCH  18  21
ENDBRANCH  12  15
ENDBRANCH  10  12
ENDBRANCH   5  10
BRANCH   4  30
HETATM   30  C4  UNL     1      28.122  14.180  55.224  1.00  0.00     0.007 C
HETATM   31  C5  UNL     1      29.041  13.721  54.388  1.00  0.00    -0.016 C
BRANCH  31  32
HETATM   32  C6  UNL     1      29.954  12.611  54.642  1.00  0.00     0.101 C
BRANCH  32  33
HETATM   33  S1  UNL     1      29.864  12.179  56.407  1.00  0.00    -0.163 SA
BRANCH  33  34
HETATM   34  C7  UNL     1      29.698  10.380  56.553  1.00  0.00     0.108 C
BRANCH  34  35
HETATM   35  C8  UNL     1      28.369  10.015  55.929  1.00  0.00     0.162 C
HETATM   36  O1  UNL     1      27.352  10.502  56.751  1.00  0.00    -0.380 OA
HETATM   37  C9  UNL     1      26.230  10.668  55.935  1.00  0.00     0.203 C
HETATM   38  C10 UNL     1      25.980   9.389  55.191  1.00  0.00     0.178 C
HETATM   39  C11 UNL     1      26.705   8.241  55.850  1.00  0.00     0.232 C
HETATM   40  F1  UNL     1      26.374   7.069  55.208  1.00  0.00    -0.244 F
HETATM   41  C12 UNL     1      28.194   8.518  55.809  1.00  0.00     0.184 C
BRANCH  38  42
HETATM   42  O2  UNL     1      26.357   9.541  53.863  1.00  0.00    -0.390 OA
ATOM     43  H2  UNL     1      25.760   9.058  53.305  1.00  0.00     0.210 HD
ENDBRANCH  38  42
BRANCH  41  44
HETATM   44  O3  UNL     1      28.771   8.052  54.646  1.00  0.00    -0.390 OA
ATOM     45  H3  UNL     1      28.140   8.052  53.935  1.00  0.00     0.210 HD
ENDBRANCH  41  44
ENDBRANCH  34  35
ENDBRANCH  33  34
ENDBRANCH  32  33
ENDBRANCH  31  32
ENDBRANCH   4  30
TORSDOF 15
ENDMDL