MODEL 5
REMARK VINA RESULT: -8.141871516      1.487      1.610
REMARK  11 active torsions:
REMARK  status: ('A' for Active; 'I' for Inactive)
REMARK    1  A    between atoms: O1_2  and  C2_3
REMARK    2  A    between atoms: C14_17  and  C15_18
REMARK    3  A    between atoms: C15_18  and  C16_19
REMARK    4  A    between atoms: C16_19  and  C17_20
REMARK    5  A    between atoms: C17_20  and  O2_21
REMARK    6  A    between atoms: C17_20  and  C18_23
REMARK    7  A    between atoms: C18_23  and  O4_25
REMARK    8  A    between atoms: O4_25  and  C19_26
REMARK    9  A    between atoms: C19_26  and  C20_27
REMARK   10  A    between atoms: C19_26  and  N2_31
REMARK   11  A    between atoms: C20_27  and  C21_28
REMARK       I    between atoms: N2_31  and  C24_33
REMARK       I    between atoms: C24_33  and  N3_35
ROOT
HETATM    1  C2  UNL     1      20.228  11.880  51.867  1.00  0.00     0.164 C
HETATM    2  C3  UNL     1      20.424  11.005  50.631  1.00  0.00     0.073 C
HETATM    3  C4  UNL     1      21.425  11.775  49.806  1.00  0.00    -0.008 C
HETATM    4  C5  UNL     1      22.394  10.951  49.044  1.00  0.00     0.010 C
HETATM    5  C6  UNL     1      21.965  12.833  50.671  1.00  0.00     0.008 C
HETATM    6  C7  UNL     1      20.705  13.276  51.436  1.00  0.00     0.074 C
HETATM    7  C8  UNL     1      22.980  12.476  51.703  1.00  0.00     0.022 A
HETATM    8  C9  UNL     1      24.082  13.474  51.759  1.00  0.00     0.024 C
HETATM    9  C10 UNL     1      25.202  13.243  52.702  1.00  0.00     0.033 C
HETATM   10  C11 UNL     1      24.993  14.127  53.892  1.00  0.00     0.120 C
HETATM   11  N1  UNL     1      25.881  13.916  54.983  1.00  0.00    -0.421 N
ATOM     12  H1  UNL     1      25.572  13.956  55.954  1.00  0.00     0.153 HD
HETATM   13  C12 UNL     1      27.242  13.642  54.620  1.00  0.00     0.114 C
HETATM   14  C13 UNL     1      27.381  12.119  54.509  1.00  0.00     0.026 C
HETATM   15  C14 UNL     1      26.005  11.512  54.343  1.00  0.00     0.017 C
HETATM   16  C25 UNL     1      25.490  11.823  52.943  1.00  0.00     0.132 C
HETATM   17  O6  UNL     1      24.570  10.906  52.626  1.00  0.00    -0.376 OA
HETATM   18  C26 UNL     1      23.385  11.158  52.091  1.00  0.00     0.163 A
HETATM   19  C27 UNL     1      22.318  11.951  52.902  1.00  0.00     0.166 A
HETATM   20  O7  UNL     1      21.075  11.447  52.825  1.00  0.00    -0.346 OA
ENDROOT
BRANCH  15  21
HETATM   21  C15 UNL     1      26.058   9.999  54.517  1.00  0.00     0.010 C
BRANCH  21  22
HETATM   22  C16 UNL     1      27.189   9.524  55.343  1.00  0.00     0.042 C
BRANCH  22  23
HETATM   23  C17 UNL     1      27.379   8.038  55.182  1.00  0.00     0.217 C
BRANCH  23  24
HETATM   24  O2  UNL     1      28.690   7.864  54.636  1.00  0.00    -0.386 OA
ATOM     25  H2  UNL     1      28.613   7.177  53.984  1.00  0.00     0.210 HD
ENDBRANCH  23  24
BRANCH  23  26
HETATM   26  C18 UNL     1      27.367   7.271  56.430  1.00  0.00     0.289 C
HETATM   27  O3  UNL     1      26.786   6.129  56.469  1.00  0.00    -0.262 OA
BRANCH  26  28
HETATM   28  O4  UNL     1      27.947   7.680  57.622  1.00  0.00    -0.293 OA
BRANCH  28  29
HETATM   29  C19 UNL     1      29.065   6.955  58.178  1.00  0.00     0.234 C
BRANCH  29  30
HETATM   30  C20 UNL     1      30.092   7.996  58.540  1.00  0.00     0.058 C
BRANCH  30  31
HETATM   31  C21 UNL     1      30.840   8.497  57.337  1.00  0.00    -0.019 C
HETATM   32  C22 UNL     1      30.525   9.986  57.176  1.00  0.00     0.009 C
HETATM   33  C23 UNL     1      32.342   8.409  57.559  1.00  0.00     0.009 C
ENDBRANCH  30  31
ENDBRANCH  29  30
BRANCH  29  34
HETATM   34  N2  UNL     1      29.555   6.065  57.138  1.00  0.00    -0.315 N
HETATM   35  C24 UNL     1      30.089   4.814  57.485  1.00  0.00     0.332 C
HETATM   36  O5  UNL     1      30.158   4.428  58.684  1.00  0.00    -0.246 OA
HETATM   37  N3  UNL     1      30.572   3.940  56.481  1.00  0.00    -0.250 N
HETATM   38 CL1  UNL     1      31.233   2.398  56.884  1.00  0.00     0.015 Cl
ATOM     39  H3  UNL     1      30.530   4.227  55.503  1.00  0.00     0.185 HD
ATOM     40  H2  UNL     1      29.510   6.349  56.159  1.00  0.00     0.166 HD
ENDBRANCH  29  34
ENDBRANCH  28  29
ENDBRANCH  26  28
ENDBRANCH  23  26
ENDBRANCH  22  23
ENDBRANCH  21  22
ENDBRANCH  15  21
BRANCH   1  41
HETATM   41  O1  UNL     1      18.892  11.893  52.205  1.00  0.00    -0.360 OA
HETATM   42  C1  UNL     1      18.669  11.910  53.558  1.00  0.00     0.205 C
ENDBRANCH   1  41
TORSDOF 11
ENDMDL