MODEL 4
REMARK VINA RESULT: -7.508978116      2.943      7.670
REMARK  13 active torsions:
REMARK  status: ('A' for Active; 'I' for Inactive)
REMARK    1  A    between atoms: C2_2  and  C3_4
REMARK       I    between atoms: C3_4  and  N1_6
REMARK    2  A    between atoms: N1_6  and  C4_8
REMARK    3  A    between atoms: C4_8  and  C5_9
REMARK    4  A    between atoms: C5_9  and  O2_10
REMARK    5  A    between atoms: C5_9  and  C6_12
REMARK    6  A    between atoms: C7_13  and  O3_14
REMARK    7  A    between atoms: C8_18  and  O4_19
REMARK    8  A    between atoms: C9_21  and  N3_22
REMARK    9  A    between atoms: N3_22  and  C10_24
REMARK   10  A    between atoms: C10_24  and  C11_25
REMARK   11  A    between atoms: C11_25  and  C12_26
REMARK   12  A    between atoms: C18_33  and  C19_34
REMARK   13  A    between atoms: C19_34  and  S1_35
ROOT
HETATM    1  C5  UNL     1      24.088  13.677  52.127  1.00  0.00     0.225 C
ENDROOT
BRANCH   1   2
HETATM    2  C4  UNL     1      25.271  13.273  52.894  1.00  0.00     0.119 C
HETATM    3  N4  UNL     1      25.724  12.016  53.170  1.00  0.00    -0.348 N
HETATM    4  C16 UNL     1      27.139  11.983  53.538  1.00  0.00     0.130 C
HETATM    5  C22 UNL     1      25.093  10.917  53.699  1.00  0.00     0.066 C
HETATM    6  C17 UNL     1      27.635  10.618  53.158  1.00  0.00     0.026 C
HETATM    7  C18 UNL     1      27.224   9.636  54.236  1.00  0.00     0.006 C
HETATM    8  C21 UNL     1      25.849  10.023  54.662  1.00  0.00     0.050 C
BRANCH   2   9
HETATM    9  N1  UNL     1      25.736  14.323  53.783  1.00  0.00    -0.313 N
HETATM   10  C3  UNL     1      25.322  14.663  55.047  1.00  0.00     0.237 C
HETATM   11  O1  UNL     1      24.430  14.064  55.695  1.00  0.00    -0.272 OA
ATOM     12  H1  UNL     1      26.491  14.899  53.410  1.00  0.00     0.170 HD
BRANCH  10  13
HETATM   13  C2  UNL     1      25.917  15.831  55.780  1.00  0.00     0.146 C
HETATM   14  C1  UNL     1      26.220  15.544  57.212  1.00  0.00     0.032 C
HETATM   15 BR1  UNL     1      27.359  16.683  54.907  1.00  0.00    -0.082 Br
ENDBRANCH  10  13
ENDBRANCH   2   9
BRANCH   7  16
HETATM   16  C19 UNL     1      28.095   9.778  55.491  1.00  0.00     0.145 C
BRANCH  16  17
HETATM   17  S1  UNL     1      28.936   8.278  55.889  1.00  0.00     0.141 S
HETATM   18  C20 UNL     1      28.431   7.657  57.489  1.00  0.00     0.161 C
HETATM   19  O5  UNL     1      30.426   8.386  55.896  1.00  0.00    -0.228 OA
HETATM   20  O6  UNL     1      28.548   7.267  54.823  1.00  0.00    -0.228 OA
ENDBRANCH  16  17
ENDBRANCH   7  16
ENDBRANCH   1   2
BRANCH   1  21
HETATM   21  O2  UNL     1      24.421  13.665  50.759  1.00  0.00    -0.383 OA
ATOM     22  H2  UNL     1      23.656  13.933  50.263  1.00  0.00     0.211 HD
ENDBRANCH   1  21
BRANCH   1  23
HETATM   23  C6  UNL     1      22.838  12.887  52.280  1.00  0.00     0.060 A
HETATM   24  C7  UNL     1      21.896  13.285  53.241  1.00  0.00     0.153 A
HETATM   25  N2  UNL     1      20.929  12.376  53.252  1.00  0.00    -0.315 N
HETATM   26  C8  UNL     1      21.179  11.423  52.366  1.00  0.00     0.170 A
ATOM     27  H2  UNL     1      20.108  12.407  53.857  1.00  0.00     0.170 HD
HETATM   28  C9  UNL     1      22.394  11.730  51.740  1.00  0.00     0.104 A
BRANCH  24  29
HETATM   29  O3  UNL     1      21.956  14.442  54.060  1.00  0.00    -0.345 OA
ATOM     30  H3  UNL     1      21.460  15.244  53.946  1.00  0.00     0.219 HD
ENDBRANCH  24  29
BRANCH  26  31
HETATM   31  O4  UNL     1      20.425  10.317  52.067  1.00  0.00    -0.344 OA
ATOM     32  H4  UNL     1      19.940  10.130  51.273  1.00  0.00     0.219 HD
ENDBRANCH  26  31
BRANCH  28  33
HETATM   33  N3  UNL     1      23.063  10.890  50.810  1.00  0.00    -0.321 N
ATOM     34  H3  UNL     1      23.903  10.374  51.068  1.00  0.00     0.175 HD
BRANCH  33  35
HETATM   35  C10 UNL     1      22.556  10.808  49.613  1.00  0.00    -0.070 C
BRANCH  35  36
HETATM   36  C11 UNL     1      21.763  10.742  48.583  1.00  0.00     0.109 C
BRANCH  36  37
HETATM   37  C12 UNL     1      20.864  11.851  48.295  1.00  0.00    -0.003 C
HETATM   38  C13 UNL     1      20.467  11.920  46.842  1.00  0.00     0.005 C
HETATM   39  C14 UNL     1      19.192  11.188  47.195  1.00  0.00     0.001 C
HETATM   40  C15 UNL     1      19.404  11.620  48.620  1.00  0.00     0.005 C
ENDBRANCH  36  37
ENDBRANCH  35  36
ENDBRANCH  33  35
ENDBRANCH  28  33
ENDBRANCH   1  23
TORSDOF 13
ENDMDL