MODEL 3
REMARK VINA RESULT: -6.503294746      3.049      6.965
REMARK  13 active torsions:
REMARK  status: ('A' for Active; 'I' for Inactive)
REMARK    1  A    between atoms: C3_6  and  O2_7
REMARK    2  A    between atoms: C4_9  and  N2_10
REMARK    3  A    between atoms: N3_18  and  C11_19
REMARK    4  A    between atoms: C11_19  and  C12_20
REMARK    5  A    between atoms: C12_20  and  S2_21
REMARK    6  A    between atoms: S2_21  and  C13_22
REMARK    7  A    between atoms: C13_22  and  N4_24
REMARK    8  A    between atoms: N4_24  and  C14_26
REMARK    9  A    between atoms: C14_26  and  C15_27
REMARK   10  A    between atoms: C15_27  and  C16_28
REMARK   11  A    between atoms: C16_28  and  C17_29
REMARK   12  A    between atoms: N5_33  and  C19_34
REMARK   13  A    between atoms: C19_34  and  C20_35
ROOT
HETATM    1  O1  UNL     1     -50.133 -12.924 -19.488  1.00  0.00    -0.265 OA
HETATM    2  C1  UNL     1     -50.254 -13.084 -20.751  1.00  0.00     0.279 C
HETATM    3  C2  UNL     1     -50.590 -14.370 -21.136  1.00  0.00     0.119 A
HETATM    4  N1  UNL     1     -50.405 -15.478 -20.410  1.00  0.00    -0.330 N
ATOM      5  H1  UNL     1     -49.993 -15.507 -19.477  1.00  0.00     0.168 HD
HETATM    6  C3  UNL     1     -50.840 -16.535 -21.087  1.00  0.00     0.169 A
HETATM    7  C4  UNL     1     -51.340 -16.072 -22.336  1.00  0.00     0.097 A
HETATM    8  C9  UNL     1     -51.180 -14.705 -22.364  1.00  0.00     0.066 A
HETATM    9  C10 UNL     1     -51.512 -13.843 -23.394  1.00  0.00     0.122 C
HETATM   10  S1  UNL     1     -52.603 -14.438 -24.435  1.00  0.00    -0.059 SA
HETATM   11  N3  UNL     1     -51.041 -12.587 -23.629  1.00  0.00    -0.288 N
HETATM   12  C18 UNL     1     -50.239 -11.870 -22.826  1.00  0.00     0.332 C
HETATM   13  O3  UNL     1     -49.590 -10.976 -23.406  1.00  0.00    -0.246 OA
HETATM   14  N5  UNL     1     -50.033 -11.976 -21.480  1.00  0.00    -0.264 N
ENDROOT
BRANCH  11  15
HETATM   15  C11 UNL     1     -51.454 -11.970 -24.865  1.00  0.00     0.145 C
BRANCH  15  16
HETATM   16  C12 UNL     1     -52.442 -10.862 -24.712  1.00  0.00     0.102 C
BRANCH  16  17
HETATM   17  S2  UNL     1     -52.209  -9.714 -26.102  1.00  0.00    -0.099 SA
BRANCH  17  18
HETATM   18  C13 UNL     1     -53.552  -9.799 -27.237  1.00  0.00     0.134 C
HETATM   19  S3  UNL     1     -54.653 -10.974 -27.167  1.00  0.00    -0.053 SA
BRANCH  18  20
HETATM   20  N4  UNL     1     -53.678  -8.791 -28.264  1.00  0.00    -0.376 N
ATOM     21  H4  UNL     1     -53.783  -9.045 -29.246  1.00  0.00     0.160 HD
BRANCH  20  22
HETATM   22  C14 UNL     1     -53.651  -7.435 -27.853  1.00  0.00     0.121 C
BRANCH  22  23
HETATM   23  C15 UNL     1     -54.950  -6.735 -27.745  1.00  0.00     0.021 C
BRANCH  23  24
HETATM   24  C16 UNL     1     -55.425  -6.353 -26.400  1.00  0.00     0.017 C
BRANCH  24  25
HETATM   25  C17 UNL     1     -54.685  -6.836 -25.226  1.00  0.00     0.114 C
HETATM   26 CL1  UNL     1     -55.377  -8.289 -24.455  1.00  0.00    -0.130 Cl
ENDBRANCH  24  25
ENDBRANCH  23  24
ENDBRANCH  22  23
ENDBRANCH  20  22
ENDBRANCH  18  20
ENDBRANCH  17  18
ENDBRANCH  16  17
ENDBRANCH  15  16
ENDBRANCH  11  15
BRANCH  14  27
HETATM   27  C19 UNL     1     -49.545 -10.783 -20.821  1.00  0.00     0.142 C
BRANCH  27  28
HETATM   28  C20 UNL     1     -48.035 -10.800 -20.694  1.00  0.00     0.004 A
HETATM   29  C21 UNL     1     -47.328  -9.469 -20.612  1.00  0.00     0.007 A
HETATM   30  C22 UNL     1     -47.406 -10.393 -19.414  1.00  0.00     0.007 A
ENDBRANCH  27  28
ENDBRANCH  14  27
BRANCH   7  31
HETATM   31  N2  UNL     1     -51.862 -16.923 -23.326  1.00  0.00    -0.377 N
HETATM   32  C5  UNL     1     -51.146 -17.497 -24.437  1.00  0.00     0.123 C
HETATM   33  C6  UNL     1     -51.432 -18.977 -24.249  1.00  0.00     0.021 C
HETATM   34  C7  UNL     1     -52.818 -19.011 -23.600  1.00  0.00     0.021 C
HETATM   35  C8  UNL     1     -53.168 -17.521 -23.425  1.00  0.00     0.123 C
ENDBRANCH   7  31
BRANCH   6  36
HETATM   36  O2  UNL     1     -50.854 -17.863 -20.746  1.00  0.00    -0.344 OA
ATOM     37  H2  UNL     1     -51.546 -18.510 -20.822  1.00  0.00     0.219 HD
ENDBRANCH   6  36
TORSDOF 13
ENDMDL