MODEL 5
REMARK VINA RESULT: -6.807729194      1.284      1.557
REMARK  14 active torsions:
REMARK  status: ('A' for Active; 'I' for Inactive)
REMARK    1  A    between atoms: O1_2  and  C2_3
REMARK    2  A    between atoms: C2_3  and  C5_6
REMARK    3  A    between atoms: C7_8  and  O2_10
REMARK    4  A    between atoms: C9_12  and  C10_13
REMARK    5  A    between atoms: C11_14  and  C12_15
REMARK    6  A    between atoms: C13_17  and  C15_19
REMARK    7  A    between atoms: C18_23  and  O4_24
REMARK    8  A    between atoms: C19_26  and  O5_27
REMARK    9  A    between atoms: C20_29  and  O6_30
REMARK   10  A    between atoms: O6_30  and  C21_31
REMARK   11  A    between atoms: C21_31  and  C22_32
REMARK   12  A    between atoms: C23_33  and  C25_35
REMARK   13  A    between atoms: C25_35  and  O7_36
REMARK   14  A    between atoms: O7_36  and  C26_37
ROOT
HETATM    1  C12 UNL     1     -50.103 -12.807 -22.058  1.00  0.00     0.177 C
HETATM    2  O3  UNL     1     -51.337 -12.709 -21.466  1.00  0.00    -0.364 OA
HETATM    3  C13 UNL     1     -51.674 -11.477 -20.990  1.00  0.00     0.107 C
HETATM    4  C14 UNL     1     -53.084 -11.162 -21.493  1.00  0.00     0.051 C
HETATM    5  C18 UNL     1     -50.764 -10.369 -21.427  1.00  0.00     0.185 C
HETATM    6  C19 UNL     1     -50.442 -10.466 -22.900  1.00  0.00     0.181 C
HETATM    7  C20 UNL     1     -49.871 -11.835 -23.182  1.00  0.00     0.185 C
ENDROOT
BRANCH   1   8
HETATM    8  C11 UNL     1     -49.991 -14.180 -22.637  1.00  0.00     0.006 C
HETATM    9  C10 UNL     1     -50.705 -15.198 -22.162  1.00  0.00     0.006 C
BRANCH   9  10
HETATM   10  C9  UNL     1     -50.606 -16.569 -22.726  1.00  0.00     0.178 C
HETATM   11  C7  UNL     1     -51.355 -17.510 -21.847  1.00  0.00     0.086 C
HETATM   12  C6  UNL     1     -52.584 -17.841 -22.653  1.00  0.00     0.075 C
HETATM   13  C8  UNL     1     -50.526 -18.742 -21.551  1.00  0.00     0.049 C
HETATM   14  C5  UNL     1     -52.372 -17.168 -23.963  1.00  0.00     0.159 C
HETATM   15  O9  UNL     1     -51.114 -16.646 -24.006  1.00  0.00    -0.371 OA
BRANCH  11  16
HETATM   16  O2  UNL     1     -51.725 -16.885 -20.673  1.00  0.00    -0.387 OA
ATOM     17  H2  UNL     1     -51.627 -17.488 -19.946  1.00  0.00     0.210 HD
ENDBRANCH  11  16
BRANCH  14  18
HETATM   18  C2  UNL     1     -52.679 -18.132 -25.075  1.00  0.00     0.079 C
HETATM   19  C3  UNL     1     -52.790 -17.388 -26.402  1.00  0.00     0.048 C
HETATM   20  C4  UNL     1     -51.560 -19.118 -25.200  1.00  0.00     0.048 C
BRANCH  18  21
HETATM   21  O1  UNL     1     -53.910 -18.701 -24.829  1.00  0.00    -0.383 OA
HETATM   22  C1  UNL     1     -54.725 -18.738 -25.957  1.00  0.00     0.202 C
ENDBRANCH  18  21
ENDBRANCH  14  18
ENDBRANCH   9  10
ENDBRANCH   1   8
BRANCH   7  23
HETATM   23  O6  UNL     1     -50.366 -12.259 -24.389  1.00  0.00    -0.377 OA
BRANCH  23  24
HETATM   24  C21 UNL     1     -51.439 -11.461 -24.754  1.00  0.00     0.196 C
BRANCH  24  25
HETATM   25  C22 UNL     1     -51.848 -11.593 -26.149  1.00  0.00     0.004 C
HETATM   26  C23 UNL     1     -52.986 -12.184 -26.474  1.00  0.00    -0.061 C
HETATM   27  C24 UNL     1     -53.867 -12.724 -25.408  1.00  0.00     0.045 C
BRANCH  26  28
HETATM   28  C25 UNL     1     -53.422 -12.327 -27.902  1.00  0.00     0.212 C
BRANCH  28  29
HETATM   29  O7  UNL     1     -53.257 -11.093 -28.597  1.00  0.00    -0.318 OA
BRANCH  29  30
HETATM   30  C26 UNL     1     -54.290 -10.172 -28.500  1.00  0.00     0.255 C
HETATM   31  C27 UNL     1     -54.083  -8.879 -27.798  1.00  0.00     0.126 C
HETATM   32  O8  UNL     1     -55.417 -10.439 -29.013  1.00  0.00    -0.266 OA
ENDBRANCH  29  30
ENDBRANCH  28  29
ENDBRANCH  26  28
ENDBRANCH  24  25
ENDBRANCH  23  24
ENDBRANCH   7  23
BRANCH   3  33
HETATM   33  C15 UNL     1     -51.699 -11.494 -19.483  1.00  0.00     0.063 C
HETATM   34  C16 UNL     1     -51.576 -10.129 -18.876  1.00  0.00     0.035 C
HETATM   35  C17 UNL     1     -52.994 -12.146 -19.060  1.00  0.00     0.035 C
HETATM   36 CL1  UNL     1     -50.374 -12.502 -18.861  1.00  0.00    -0.117 Cl
ENDBRANCH   3  33
BRANCH   6  37
HETATM   37  O5  UNL     1     -49.504  -9.448 -23.177  1.00  0.00    -0.390 OA
ATOM     38  H5  UNL     1     -49.385  -9.437 -24.119  1.00  0.00     0.210 HD
ENDBRANCH   6  37
BRANCH   5  39
HETATM   39  O4  UNL     1     -49.600 -10.269 -20.704  1.00  0.00    -0.390 OA
ATOM     40  H4  UNL     1     -49.583 -10.793 -19.912  1.00  0.00     0.210 HD
ENDBRANCH   5  39
TORSDOF 14
ENDMDL