MODEL 3
REMARK VINA RESULT: -7.507592982      2.768      4.113
REMARK  11 active torsions:
REMARK  status: ('A' for Active; 'I' for Inactive)
REMARK    1  A    between atoms: C4_4  and  C5_5
REMARK    2  A    between atoms: C5_5  and  C6_6
REMARK    3  A    between atoms: N2_10  and  C8_11
REMARK    4  A    between atoms: C12_16  and  O2_17
REMARK    5  A    between atoms: C13_19  and  O3_20
REMARK    6  A    between atoms: C17_26  and  O4_27
REMARK    7  A    between atoms: O4_27  and  C18_28
REMARK    8  A    between atoms: C18_28  and  C19_29
REMARK    9  A    between atoms: C19_29  and  C20_30
REMARK   10  A    between atoms: C20_30  and  O5_31
REMARK   11  A    between atoms: O5_31  and  N3_32
ROOT
HETATM    1  C1  UNL     1     -49.908 -11.495 -22.679  1.00  0.00     0.051 C
HETATM    2  C2  UNL     1     -51.346 -11.248 -22.754  1.00  0.00    -0.028 A
HETATM    3  C3  UNL     1     -51.954 -10.378 -23.678  1.00  0.00     0.018 A
HETATM    4  C4  UNL     1     -53.308 -10.367 -23.716  1.00  0.00    -0.036 A
HETATM    5  C15 UNL     1     -54.087 -11.163 -22.893  1.00  0.00     0.020 A
HETATM    6 BR1  UNL     1     -56.027 -11.102 -23.020  1.00  0.00    -0.050 Br
HETATM    7  C16 UNL     1     -53.520 -12.014 -21.997  1.00  0.00     0.057 A
HETATM    8  C17 UNL     1     -52.155 -12.038 -21.930  1.00  0.00     0.076 A
ENDROOT
BRANCH   4   9
HETATM    9  C5  UNL     1     -54.027  -9.447 -24.593  1.00  0.00     0.081 C
BRANCH   9  10
HETATM   10  C6  UNL     1     -53.916  -9.728 -26.039  1.00  0.00    -0.020 A
HETATM   11  C7  UNL     1     -53.243  -9.143 -27.048  1.00  0.00     0.116 A
HETATM   12  N1  UNL     1     -53.468  -9.854 -28.179  1.00  0.00    -0.307 N
HETATM   13  N2  UNL     1     -54.269 -10.872 -27.866  1.00  0.00    -0.271 N
ATOM     14  H1  UNL     1     -53.091  -9.648 -29.104  1.00  0.00     0.186 HD
HETATM   15  C14 UNL     1     -54.576 -10.831 -26.570  1.00  0.00     0.122 A
BRANCH  13  16
HETATM   16  C8  UNL     1     -54.592 -11.974 -28.780  1.00  0.00     0.275 C
HETATM   17  O1  UNL     1     -55.329 -12.911 -28.073  1.00  0.00    -0.349 OA
HETATM   18  C9  UNL     1     -54.964 -14.135 -28.577  1.00  0.00     0.085 C
HETATM   19  C10 UNL     1     -55.459 -14.190 -30.020  1.00  0.00     0.048 C
HETATM   20  C11 UNL     1     -55.451 -15.289 -27.784  1.00  0.00     0.048 C
HETATM   21  C12 UNL     1     -53.454 -14.102 -28.531  1.00  0.00     0.185 C
HETATM   22  C13 UNL     1     -53.181 -12.658 -28.787  1.00  0.00     0.200 C
BRANCH  21  23
HETATM   23  O2  UNL     1     -52.891 -14.918 -29.521  1.00  0.00    -0.390 OA
ATOM     24  H2  UNL     1     -52.054 -14.579 -29.817  1.00  0.00     0.210 HD
ENDBRANCH  21  23
BRANCH  22  25
HETATM   25  O3  UNL     1     -52.503 -12.190 -27.609  1.00  0.00    -0.388 OA
ATOM     26  H3  UNL     1     -52.459 -11.245 -27.687  1.00  0.00     0.210 HD
ENDBRANCH  22  25
ENDBRANCH  13  16
ENDBRANCH   9  10
ENDBRANCH   4   9
BRANCH   8  27
HETATM   27  O4  UNL     1     -51.530 -12.826 -21.036  1.00  0.00    -0.350 OA
BRANCH  27  28
HETATM   28  C18 UNL     1     -51.628 -13.183 -19.746  1.00  0.00     0.178 C
BRANCH  28  29
HETATM   29  C19 UNL     1     -50.158 -12.904 -19.251  1.00  0.00     0.055 C
BRANCH  29  30
HETATM   30  C20 UNL     1     -50.210 -11.464 -18.687  1.00  0.00     0.196 C
BRANCH  30  31
HETATM   31  O5  UNL     1     -48.860 -11.150 -18.859  1.00  0.00    -0.303 OA
BRANCH  31  32
HETATM   32  N3  UNL     1     -48.463  -9.991 -19.189  1.00  0.00    -0.193 NA
HETATM   33  C21 UNL     1     -47.490  -9.683 -20.056  1.00  0.00     0.146 C
HETATM   34  C22 UNL     1     -46.171 -10.313 -19.558  1.00  0.00     0.184 C
HETATM   35  O6  UNL     1     -45.970  -9.855 -18.292  1.00  0.00    -0.389 OA
HETATM   36  C23 UNL     1     -46.984 -10.052 -17.393  1.00  0.00     0.184 C
HETATM   37  C24 UNL     1     -48.251  -9.326 -17.854  1.00  0.00     0.146 C
ENDBRANCH  31  32
ENDBRANCH  30  31
ENDBRANCH  29  30
ENDBRANCH  28  29
ENDBRANCH  27  28
ENDBRANCH   8  27
TORSDOF 11
ENDMDL