MODEL 5
REMARK VINA RESULT: -8.156263956      2.180      3.192
REMARK  12 active torsions:
REMARK  status: ('A' for Active; 'I' for Inactive)
REMARK    1  A    between atoms: C2_2  and  O1_3
REMARK    2  A    between atoms: O1_3  and  C3_4
REMARK       I    between atoms: C3_4  and  N1_6
REMARK    3  A    between atoms: C4_8  and  C5_9
REMARK    4  A    between atoms: C5_9  and  N2_10
REMARK    5  A    between atoms: N2_10  and  C6_13
REMARK    6  A    between atoms: C9_16  and  N3_17
REMARK    7  A    between atoms: N3_17  and  C10_19
REMARK    8  A    between atoms: C11_22  and  O3_23
REMARK    9  A    between atoms: O3_23  and  C12_24
REMARK   10  A    between atoms: C12_24  and  C13_25
REMARK   11  A    between atoms: C17_32  and  C18_33
REMARK   12  A    between atoms: C19_37  and  C20_38
ROOT
HETATM    1  C10 UNL     1     -51.680 -16.300 -20.516  1.00  0.00     0.680 A
HETATM    2  N4  UNL     1     -51.447 -15.359 -21.468  1.00  0.00    -0.171 N
ATOM      3  H4  UNL     1     -51.585 -14.382 -21.207  1.00  0.00     0.186 HD
HETATM    4  C11 UNL     1     -51.054 -15.609 -22.711  1.00  0.00     0.158 A
HETATM    5  C25 UNL     1     -50.875 -16.970 -23.028  1.00  0.00     0.074 A
HETATM    6  C26 UNL     1     -51.095 -17.961 -22.106  1.00  0.00     0.110 A
HETATM    7  N7  UNL     1     -51.499 -17.579 -20.854  1.00  0.00    -0.202 N
ATOM      8  H7  UNL     1     -51.668 -18.300 -20.153  1.00  0.00     0.183 HD
ENDROOT
BRANCH   4   9
HETATM    9  O3  UNL     1     -50.808 -14.701 -23.707  1.00  0.00    -0.335 OA
BRANCH   9  10
HETATM   10  C12 UNL     1     -51.824 -13.998 -24.320  1.00  0.00     0.184 C
BRANCH  10  11
HETATM   11  C13 UNL     1     -51.567 -12.511 -24.457  1.00  0.00     0.046 C
HETATM   12  C14 UNL     1     -50.387 -12.035 -23.706  1.00  0.00     0.239 C
HETATM   13  N5  UNL     1     -50.672 -11.794 -22.331  1.00  0.00    -0.075 N
HETATM   14  C15 UNL     1     -51.687 -10.788 -22.231  1.00  0.00     0.233 C
ATOM     15  H52 UNL     1     -50.922 -12.647 -21.831  1.00  0.00     0.277 HD
ATOM     16  H51 UNL     1     -49.836 -11.555 -21.798  1.00  0.00     0.277 HD
HETATM   17  C16 UNL     1     -52.994 -11.186 -22.873  1.00  0.00     0.039 C
HETATM   18  C17 UNL     1     -52.813 -11.698 -24.273  1.00  0.00     0.058 C
BRANCH  18  19
HETATM   19  C18 UNL     1     -52.830 -10.546 -25.220  1.00  0.00     0.121 A
HETATM   20  O4  UNL     1     -51.876 -10.230 -26.097  1.00  0.00    -0.238 OA
HETATM   21  N6  UNL     1     -52.202  -9.167 -26.767  1.00  0.00    -0.261 N
HETATM   22  C19 UNL     1     -53.384  -8.720 -26.373  1.00  0.00     0.081 A
ATOM     23  H6  UNL     1     -51.629  -8.736 -27.493  1.00  0.00     0.194 HD
HETATM   24  C24 UNL     1     -53.815  -9.596 -25.371  1.00  0.00     0.173 A
HETATM   25  F1  UNL     1     -54.972  -9.509 -24.702  1.00  0.00    -0.201 F
BRANCH  22  26
HETATM   26  C20 UNL     1     -54.182  -7.541 -26.836  1.00  0.00    -0.004 C
HETATM   27  C21 UNL     1     -54.479  -6.621 -25.692  1.00  0.00     0.021 C
HETATM   28  C22 UNL     1     -53.366  -6.766 -27.851  1.00  0.00     0.021 C
HETATM   29  C23 UNL     1     -55.434  -8.019 -27.491  1.00  0.00     0.021 C
ENDBRANCH  22  26
ENDBRANCH  18  19
ENDBRANCH  10  11
ENDBRANCH   9  10
ENDBRANCH   4   9
BRANCH   1  30
HETATM   30  N3  UNL     1     -52.064 -15.973 -19.344  1.00  0.00    -0.221 N
ATOM     31  H3  UNL     1     -52.068 -16.738 -18.670  1.00  0.00     0.178 HD
BRANCH  30  32
HETATM   32  C9  UNL     1     -52.479 -14.740 -18.825  1.00  0.00     0.101 C
HETATM   33  C8  UNL     1     -53.912 -14.345 -19.192  1.00  0.00     0.027 C
HETATM   34  C7  UNL     1     -54.185 -13.230 -18.227  1.00  0.00     0.035 C
HETATM   35  C6  UNL     1     -53.472 -13.567 -16.976  1.00  0.00     0.188 C
HETATM   36  C27 UNL     1     -52.567 -14.725 -17.296  1.00  0.00     0.058 C
BRANCH  35  37
HETATM   37  N2  UNL     1     -52.603 -12.497 -16.509  1.00  0.00    -0.067 N
ATOM     38  H22 UNL     1     -51.647 -12.837 -16.402  1.00  0.00     0.278 HD
ATOM     39  H21 UNL     1     -52.816 -12.263 -15.540  1.00  0.00     0.278 HD
BRANCH  37  40
HETATM   40  C5  UNL     1     -52.624 -11.324 -17.319  1.00  0.00     0.277 C
BRANCH  40  41
HETATM   41  C4  UNL     1     -51.300 -10.838 -17.732  1.00  0.00     0.093 C
HETATM   42  N1  UNL     1     -50.530 -11.549 -18.478  1.00  0.00    -0.315 N
HETATM   43  C3  UNL     1     -49.242 -11.165 -18.923  1.00  0.00     0.364 C
ATOM     44  H1  UNL     1     -50.874 -12.463 -18.772  1.00  0.00     0.170 HD
HETATM   45  O2  UNL     1     -48.856 -11.566 -20.074  1.00  0.00    -0.238 OA
BRANCH  43  46
HETATM   46  O1  UNL     1     -48.349 -10.386 -18.222  1.00  0.00    -0.304 OA
BRANCH  46  47
HETATM   47  C2  UNL     1     -47.073 -10.029 -18.726  1.00  0.00     0.176 C
HETATM   48  C1  UNL     1     -46.103 -10.031 -17.585  1.00  0.00     0.034 C
ENDBRANCH  46  47
ENDBRANCH  43  46
ENDBRANCH  40  41
ENDBRANCH  37  40
ENDBRANCH  35  37
ENDBRANCH  30  32
ENDBRANCH   1  30
TORSDOF 12
ENDMDL