MODEL 1
REMARK VINA RESULT: -7.976750022      0.000      0.000
REMARK  13 active torsions:
REMARK  status: ('A' for Active; 'I' for Inactive)
REMARK    1  A    between atoms: O1_2  and  C2_3
REMARK    2  A    between atoms: C5_7  and  O3_8
REMARK    3  A    between atoms: O3_8  and  C6_9
REMARK    4  A    between atoms: C7_11  and  C8_12
REMARK    5  A    between atoms: C8_12  and  O5_13
REMARK    6  A    between atoms: C9_15  and  O6_16
REMARK    7  A    between atoms: C10_18  and  O7_19
REMARK    8  A    between atoms: C11_21  and  O8_22
REMARK    9  A    between atoms: O8_22  and  C12_23
REMARK   10  A    between atoms: C13_24  and  C14_26
REMARK   11  A    between atoms: C19_31  and  C21_33
REMARK   12  A    between atoms: C21_33  and  C22_34
REMARK   13  A    between atoms: C22_34  and  C23_35
ROOT
HETATM    1  C6  UNL     1     -49.719 -11.389 -19.849  1.00  0.00     0.292 C
HETATM    2  O4  UNL     1     -48.651 -11.291 -18.947  1.00  0.00    -0.348 OA
HETATM    3  C7  UNL     1     -48.346  -9.939 -18.715  1.00  0.00     0.179 C
HETATM    4  C9  UNL     1     -47.491  -9.477 -19.874  1.00  0.00     0.180 C
HETATM    5  C10 UNL     1     -48.104  -9.978 -21.143  1.00  0.00     0.183 C
HETATM    6  C11 UNL     1     -49.536 -10.420 -21.005  1.00  0.00     0.214 C
ENDROOT
BRANCH   1   7
HETATM    7  O3  UNL     1     -50.857 -11.014 -19.170  1.00  0.00    -0.350 OA
BRANCH   7   8
HETATM    8  C5  UNL     1     -51.406 -12.074 -18.412  1.00  0.00     0.159 C
HETATM    9  C4  UNL     1     -52.709 -11.698 -17.828  1.00  0.00     0.182 C
HETATM   10  O2  UNL     1     -52.769 -11.864 -16.426  1.00  0.00    -0.378 OA
HETATM   11  C27 UNL     1     -53.899 -12.398 -18.344  1.00  0.00     0.185 C
HETATM   12  C3  UNL     1     -54.085 -11.436 -16.190  1.00  0.00     0.203 C
HETATM   13  C2  UNL     1     -54.855 -12.333 -17.149  1.00  0.00     0.176 C
HETATM   14  O9  UNL     1     -53.785 -13.675 -18.722  1.00  0.00    -0.370 OA
HETATM   15  C19 UNL     1     -52.588 -14.198 -19.028  1.00  0.00     0.060 C
HETATM   16  C18 UNL     1     -51.491 -13.247 -19.357  1.00  0.00     0.072 C
HETATM   17  C20 UNL     1     -52.141 -15.100 -17.869  1.00  0.00     0.046 C
BRANCH  13  18
HETATM   18  O1  UNL     1     -54.948 -13.576 -16.578  1.00  0.00    -0.386 OA
HETATM   19  C1  UNL     1     -55.737 -13.612 -15.434  1.00  0.00     0.202 C
ENDBRANCH  13  18
BRANCH  15  20
HETATM   20  C21 UNL     1     -52.758 -15.128 -20.226  1.00  0.00     0.041 C
BRANCH  20  21
HETATM   21  C22 UNL     1     -51.469 -15.911 -20.480  1.00  0.00     0.030 C
BRANCH  21  22
HETATM   22  C23 UNL     1     -51.683 -16.633 -21.774  1.00  0.00    -0.025 C
HETATM   23  C24 UNL     1     -50.947 -16.351 -22.840  1.00  0.00    -0.091 C
HETATM   24  C25 UNL     1     -51.137 -17.047 -24.127  1.00  0.00     0.042 C
HETATM   25  C26 UNL     1     -49.898 -15.296 -22.725  1.00  0.00     0.042 C
ENDBRANCH  21  22
ENDBRANCH  20  21
ENDBRANCH  15  20
ENDBRANCH   7   8
ENDBRANCH   1   7
BRANCH   6  26
HETATM   26  O8  UNL     1     -49.897 -11.072 -22.221  1.00  0.00    -0.349 OA
BRANCH  26  27
HETATM   27  C12 UNL     1     -50.468 -10.376 -23.279  1.00  0.00     0.155 C
HETATM   28  C13 UNL     1     -51.695 -10.586 -23.703  1.00  0.00     0.042 C
HETATM   29 CL1  UNL     1     -52.286  -9.632 -25.053  1.00  0.00    -0.086 Cl
BRANCH  28  30
HETATM   30  C14 UNL     1     -52.638 -11.576 -23.132  1.00  0.00    -0.004 A
HETATM   31  C15 UNL     1     -52.448 -12.976 -23.729  1.00  0.00     0.021 C
HETATM   32  C16 UNL     1     -53.217 -11.421 -21.785  1.00  0.00     0.016 A
HETATM   33  C17 UNL     1     -54.082 -11.207 -22.991  1.00  0.00     0.016 A
ENDBRANCH  28  30
ENDBRANCH  26  27
ENDBRANCH   6  26
BRANCH   3  34
HETATM   34  C8  UNL     1     -47.466  -9.904 -17.471  1.00  0.00     0.198 C
BRANCH  34  35
HETATM   35  O5  UNL     1     -47.816  -8.881 -16.617  1.00  0.00    -0.398 OA
ATOM     36  H5  UNL     1     -48.500  -9.141 -16.009  1.00  0.00     0.209 HD
ENDBRANCH  34  35
ENDBRANCH   3  34
BRANCH   5  37
HETATM   37  O7  UNL     1     -47.366 -11.047 -21.642  1.00  0.00    -0.390 OA
ATOM     38  H7  UNL     1     -47.922 -11.811 -21.737  1.00  0.00     0.210 HD
ENDBRANCH   5  37
BRANCH   4  39
HETATM   39  O6  UNL     1     -46.213 -10.025 -19.687  1.00  0.00    -0.390 OA
ATOM     40  H6  UNL     1     -45.923 -10.350 -20.530  1.00  0.00     0.210 HD
ENDBRANCH   4  39
TORSDOF 13
ENDMDL