MODEL 4
REMARK VINA RESULT: -7.430650359      3.407      9.772
REMARK  11 active torsions:
REMARK  status: ('A' for Active; 'I' for Inactive)
REMARK    1  A    between atoms: N1_2  and  C3_4
REMARK    2  A    between atoms: C3_4  and  C4_5
REMARK    3  A    between atoms: C7_9  and  N2_10
REMARK    4  A    between atoms: N2_10  and  C8_12
REMARK    5  A    between atoms: C9_15  and  C10_16
REMARK    6  A    between atoms: C10_16  and  C11_17
REMARK    7  A    between atoms: C11_17  and  O1_18
REMARK    8  A    between atoms: C13_23  and  O2_24
REMARK    9  A    between atoms: O2_24  and  C14_25
REMARK   10  A    between atoms: C20_36  and  O4_37
REMARK   11  A    between atoms: O4_37  and  C21_38
ROOT
HETATM    1  N2  UNL     1     -52.256  -9.682 -25.693  1.00  0.00    -0.338 N
ATOM      2  H2  UNL     1     -51.647  -9.320 -26.427  1.00  0.00     0.167 HD
ENDROOT
BRANCH   1   3
HETATM    3  C7  UNL     1     -51.739 -10.657 -24.813  1.00  0.00     0.075 A
HETATM    4  C6  UNL     1     -51.969 -11.992 -25.038  1.00  0.00     0.144 A
HETATM    5  C5  UNL     1     -51.466 -12.981 -24.179  1.00  0.00     0.060 A
HETATM    6  F1  UNL     1     -52.705 -12.349 -26.126  1.00  0.00    -0.204 F
HETATM    7  C4  UNL     1     -50.721 -12.643 -23.077  1.00  0.00     0.015 A
HETATM    8  C20 UNL     1     -50.481 -11.274 -22.839  1.00  0.00     0.083 A
HETATM    9  C19 UNL     1     -50.986 -10.339 -23.696  1.00  0.00     0.070 A
BRANCH   7  10
HETATM   10  C3  UNL     1     -50.187 -13.641 -22.116  1.00  0.00     0.099 C
BRANCH  10  11
HETATM   11  N1  UNL     1     -50.752 -14.915 -22.272  1.00  0.00    -0.398 N
HETATM   12  C1  UNL     1     -51.637 -15.384 -21.259  1.00  0.00     0.148 C
HETATM   13  C2  UNL     1     -49.997 -15.905 -22.958  1.00  0.00     0.148 C
ENDBRANCH  10  11
ENDBRANCH   7  10
BRANCH   8  14
HETATM   14  O4  UNL     1     -49.742 -10.970 -21.744  1.00  0.00    -0.345 OA
BRANCH  14  15
HETATM   15  C21 UNL     1     -49.925 -10.019 -20.758  1.00  0.00     0.133 C
HETATM   16  C22 UNL     1     -48.744 -10.049 -19.825  1.00  0.00     0.060 C
HETATM   17  C23 UNL     1     -48.969 -10.887 -18.602  1.00  0.00     0.236 C
HETATM   18  N7  UNL     1     -50.045 -11.809 -18.709  1.00  0.00    -0.067 N
HETATM   19  C24 UNL     1     -51.294 -11.181 -18.981  1.00  0.00     0.121 C
ATOM     20  H72 UNL     1     -49.840 -12.528 -19.403  1.00  0.00     0.278 HD
ATOM     21  H71 UNL     1     -50.107 -12.394 -17.875  1.00  0.00     0.278 HD
HETATM   22  C25 UNL     1     -52.277 -12.288 -19.385  1.00  0.00     0.046 C
HETATM   23  C26 UNL     1     -51.849 -10.636 -17.659  1.00  0.00     0.046 C
HETATM   24  C27 UNL     1     -51.240 -10.118 -20.030  1.00  0.00     0.070 C
ENDBRANCH  14  15
ENDBRANCH   8  14
ENDBRANCH   1   3
BRANCH   1  25
HETATM   25  C8  UNL     1     -53.464  -9.224 -25.615  1.00  0.00     0.137 A
HETATM   26  N3  UNL     1     -54.375  -9.639 -24.735  1.00  0.00    -0.330 N
HETATM   27  C9  UNL     1     -55.625  -9.148 -24.681  1.00  0.00     0.085 A
ATOM     28  H3  UNL     1     -54.110 -10.366 -24.070  1.00  0.00     0.168 HD
HETATM   29  N4  UNL     1     -55.949  -8.192 -25.569  1.00  0.00    -0.340 N
HETATM   30  C12 UNL     1     -55.098  -7.705 -26.501  1.00  0.00     0.116 A
ATOM     31  H4  UNL     1     -56.895  -7.811 -25.539  1.00  0.00     0.167 HD
HETATM   32  C13 UNL     1     -55.503  -6.707 -27.400  1.00  0.00     0.173 A
HETATM   33  C18 UNL     1     -53.831  -8.221 -26.534  1.00  0.00     0.109 A
HETATM   34  N5  UNL     1     -54.510  -6.325 -28.287  1.00  0.00    -0.331 N
HETATM   35  C17 UNL     1     -53.291  -6.856 -28.281  1.00  0.00     0.183 A
ATOM     36  H5  UNL     1     -54.724  -5.604 -28.976  1.00  0.00     0.168 HD
HETATM   37  N6  UNL     1     -52.906  -7.806 -27.424  1.00  0.00    -0.347 N
ATOM     38  H6  UNL     1     -51.964  -8.197 -27.442  1.00  0.00     0.167 HD
BRANCH  27  39
HETATM   39  C10 UNL     1     -56.621  -9.636 -23.680  1.00  0.00     0.102 C
BRANCH  39  40
HETATM   40  C11 UNL     1     -57.935  -8.883 -23.904  1.00  0.00     0.171 C
BRANCH  40  41
HETATM   41  O1  UNL     1     -57.937  -7.694 -23.199  1.00  0.00    -0.400 OA
ATOM     42  H1  UNL     1     -58.749  -7.223 -23.344  1.00  0.00     0.209 HD
ENDBRANCH  40  41
ENDBRANCH  39  40
ENDBRANCH  27  39
BRANCH  32  43
HETATM   43  O2  UNL     1     -56.662  -6.185 -27.424  1.00  0.00    -0.324 OA
BRANCH  43  44
HETATM   44  C14 UNL     1     -57.689  -5.417 -27.346  1.00  0.00     0.178 C
HETATM   45  C15 UNL     1     -57.582  -4.139 -26.483  1.00  0.00     0.202 C
HETATM   46  O3  UNL     1     -58.852  -4.457 -26.004  1.00  0.00    -0.386 OA
HETATM   47  C16 UNL     1     -58.772  -5.822 -26.314  1.00  0.00     0.202 C
ENDBRANCH  43  44
ENDBRANCH  32  43
ENDBRANCH   1  25
TORSDOF 11
ENDMDL