MODEL 2
REMARK VINA RESULT: -8.479687818      1.057      1.326
REMARK  10 active torsions:
REMARK  status: ('A' for Active; 'I' for Inactive)
REMARK    1  A    between atoms: C2_2  and  C3_3
REMARK    2  A    between atoms: C3_3  and  C4_4
REMARK    3  A    between atoms: C4_4  and  N1_5
REMARK    4  A    between atoms: N2_8  and  C7_9
REMARK    5  A    between atoms: C7_9  and  C8_10
REMARK    6  A    between atoms: N3_12  and  C10_13
REMARK    7  A    between atoms: C10_13  and  C11_14
REMARK    8  A    between atoms: C13_19  and  C14_20
REMARK    9  A    between atoms: C14_20  and  C15_21
REMARK   10  A    between atoms: C19_31  and  O2_32
ROOT
HETATM    1  C11 UNL     1     -50.302 -14.328 -22.111  1.00  0.00     0.037 C
HETATM    2  N4  UNL     1     -49.589 -13.256 -22.567  1.00  0.00    -0.325 N
ATOM      3  H4  UNL     1     -48.733 -13.436 -23.092  1.00  0.00     0.169 HD
HETATM    4  C12 UNL     1     -49.962 -11.950 -22.360  1.00  0.00     0.255 C
HETATM    5  O1  UNL     1     -49.925 -11.182 -23.362  1.00  0.00    -0.268 OA
HETATM    6  C13 UNL     1     -50.378 -11.355 -21.199  1.00  0.00     0.048 C
HETATM    7  C19 UNL     1     -51.245 -11.989 -20.291  1.00  0.00     0.087 C
HETATM    8  C20 UNL     1     -51.302 -13.369 -20.059  1.00  0.00     0.018 C
HETATM    9  C21 UNL     1     -50.907 -14.424 -20.852  1.00  0.00    -0.022 C
HETATM   10  C22 UNL     1     -51.198 -15.678 -20.143  1.00  0.00     0.044 C
HETATM   11  C23 UNL     1     -52.160 -15.299 -19.065  1.00  0.00     0.047 C
HETATM   12  C24 UNL     1     -51.861 -13.866 -18.761  1.00  0.00     0.207 C
HETATM   13  F1  UNL     1     -52.982 -13.126 -18.485  1.00  0.00    -0.244 F
ENDROOT
BRANCH   1  14
HETATM   14  C10 UNL     1     -50.509 -15.494 -22.971  1.00  0.00     0.186 C
BRANCH  14  15
HETATM   15  N3  UNL     1     -51.514 -15.282 -23.986  1.00  0.00    -0.345 N
HETATM   16  C9  UNL     1     -52.149 -14.073 -24.089  1.00  0.00     0.118 A
HETATM   17  C8  UNL     1     -53.061 -14.146 -25.125  1.00  0.00     0.044 A
HETATM   18  N7  UNL     1     -52.970 -15.381 -25.626  1.00  0.00    -0.353 N
HETATM   19  C25 UNL     1     -52.021 -16.072 -24.925  1.00  0.00     0.183 A
ATOM     20  H7  UNL     1     -53.518 -15.749 -26.403  1.00  0.00     0.166 HD
BRANCH  17  21
HETATM   21  C7  UNL     1     -53.952 -13.004 -25.563  1.00  0.00     0.185 C
BRANCH  21  22
HETATM   22  N2  UNL     1     -53.140 -12.235 -26.476  1.00  0.00    -0.365 N
HETATM   23  C6  UNL     1     -53.716 -12.009 -27.742  1.00  0.00     0.083 C
HETATM   24  C5  UNL     1     -53.886 -10.598 -28.183  1.00  0.00     0.162 C
HETATM   25  N1  UNL     1     -53.504  -9.587 -27.264  1.00  0.00    -0.404 N
HETATM   26  C27 UNL     1     -52.383  -9.874 -26.430  1.00  0.00     0.162 C
HETATM   27  C26 UNL     1     -52.298 -11.260 -25.912  1.00  0.00     0.083 C
BRANCH  25  28
HETATM   28  C4  UNL     1     -54.551  -8.870 -26.646  1.00  0.00     0.117 C
BRANCH  28  29
HETATM   29  C3  UNL     1     -54.169  -8.147 -25.403  1.00  0.00     0.019 C
BRANCH  29  30
HETATM   30  C2  UNL     1     -54.540  -6.708 -25.305  1.00  0.00    -0.003 C
HETATM   31  C1  UNL     1     -55.694  -6.334 -26.178  1.00  0.00     0.005 C
ENDBRANCH  29  30
ENDBRANCH  28  29
ENDBRANCH  25  28
ENDBRANCH  21  22
ENDBRANCH  17  21
ENDBRANCH  14  15
ENDBRANCH   1  14
BRANCH   6  32
HETATM   32  C14 UNL     1     -49.919 -10.029 -20.807  1.00  0.00     0.095 C
BRANCH  32  33
HETATM   33  C15 UNL     1     -48.695 -10.046 -19.929  1.00  0.00     0.013 A
HETATM   34  S1  UNL     1     -48.704  -9.825 -18.195  1.00  0.00    -0.057 SA
HETATM   35  C16 UNL     1     -47.037 -10.011 -17.923  1.00  0.00     0.142 A
HETATM   36  N5  UNL     1     -46.361  -9.962 -16.792  1.00  0.00    -0.380 N
HETATM   37  N6  UNL     1     -46.552 -10.228 -19.139  1.00  0.00    -0.340 N
ATOM     38  H52 UNL     1     -46.734  -9.795 -15.857  1.00  0.00     0.158 HD
ATOM     39  H51 UNL     1     -45.361 -10.074 -16.629  1.00  0.00     0.158 HD
HETATM   40  C17 UNL     1     -47.380 -10.248 -20.155  1.00  0.00     0.021 A
ATOM     41  H6  UNL     1     -45.553 -10.378 -19.280  1.00  0.00     0.168 HD
HETATM   42  C18 UNL     1     -46.855 -10.462 -21.574  1.00  0.00     0.069 C
ENDBRANCH  32  33
ENDBRANCH   6  32
BRANCH   7  43
HETATM   43  O2  UNL     1     -52.120 -11.213 -19.559  1.00  0.00    -0.359 OA
ATOM     44  H2  UNL     1     -52.150 -11.326 -18.616  1.00  0.00     0.217 HD
ENDBRANCH   7  43
TORSDOF 10
ENDMDL