MODEL 3
REMARK VINA RESULT: -8.108396480      2.478      4.536
REMARK  10 active torsions:
REMARK  status: ('A' for Active; 'I' for Inactive)
REMARK    1  A    between atoms: C2_2  and  C3_3
REMARK    2  A    between atoms: C6_7  and  N2_8
REMARK    3  A    between atoms: C10_17  and  C11_18
REMARK    4  A    between atoms: C13_20  and  C14_21
REMARK    5  A    between atoms: C14_21  and  N5_22
REMARK    6  A    between atoms: N5_22  and  C15_23
REMARK    7  A    between atoms: N5_22  and  C18_27
REMARK    8  A    between atoms: C15_23  and  C16_24
REMARK    9  A    between atoms: C18_27  and  C19_28
REMARK   10  A    between atoms: C23_36  and  O3_37
ROOT
HETATM    1  C3  UNL     1     -49.045 -11.288 -20.513  1.00  0.00    -0.005 A
HETATM    2  C4  UNL     1     -49.165 -10.930 -19.181  1.00  0.00     0.096 A
HETATM    3  C5  UNL     1     -48.077 -10.230 -18.570  1.00  0.00     0.104 C
HETATM    4  N1  UNL     1     -47.166  -9.681 -18.055  1.00  0.00    -0.191 NA
HETATM    5  C6  UNL     1     -50.320 -11.282 -18.514  1.00  0.00     0.121 A
HETATM    6  N3  UNL     1     -51.268 -11.957 -19.188  1.00  0.00    -0.338 N
ATOM      7  H3  UNL     1     -52.116 -12.212 -18.683  1.00  0.00     0.167 HD
HETATM    8  C7  UNL     1     -51.179 -12.315 -20.465  1.00  0.00     0.084 A
HETATM    9  C8  UNL     1     -51.937 -13.073 -21.371  1.00  0.00     0.101 A
HETATM   10  C9  UNL     1     -53.194 -13.636 -21.065  1.00  0.00     0.104 C
HETATM   11  N4  UNL     1     -54.221 -14.110 -20.779  1.00  0.00    -0.191 NA
HETATM   12  C10 UNL     1     -51.276 -13.185 -22.568  1.00  0.00     0.069 A
HETATM   13  N9  UNL     1     -50.113 -12.487 -22.394  1.00  0.00    -0.352 N
ATOM     14  H9  UNL     1     -49.394 -12.369 -23.107  1.00  0.00     0.166 HD
HETATM   15  C27 UNL     1     -50.049 -11.978 -21.157  1.00  0.00     0.069 A
ENDROOT
BRANCH   1  16
HETATM   16  C2  UNL     1     -47.795 -11.046 -21.267  1.00  0.00     0.038 C
HETATM   17  C1  UNL     1     -47.831  -9.624 -21.857  1.00  0.00     0.010 C
ENDBRANCH   1  16
BRANCH   5  18
HETATM   18  N2  UNL     1     -50.449 -10.926 -17.261  1.00  0.00    -0.384 N
ATOM     19  H22 UNL     1     -49.720 -10.437 -16.742  1.00  0.00     0.157 HD
ATOM     20  H21 UNL     1     -51.314 -11.163 -16.776  1.00  0.00     0.157 HD
ENDBRANCH   5  18
BRANCH  12  21
HETATM   21  C11 UNL     1     -51.532 -14.069 -23.702  1.00  0.00     0.032 A
HETATM   22  C12 UNL     1     -52.244 -13.769 -24.830  1.00  0.00     0.028 A
HETATM   23  C13 UNL     1     -52.625 -14.692 -25.763  1.00  0.00    -0.010 A
HETATM   24  C23 UNL     1     -52.217 -16.037 -25.475  1.00  0.00     0.078 A
HETATM   25  C25 UNL     1     -51.511 -16.365 -24.378  1.00  0.00     0.080 A
HETATM   26  C26 UNL     1     -51.143 -15.423 -23.465  1.00  0.00     0.131 A
HETATM   27  F1  UNL     1     -50.464 -15.765 -22.358  1.00  0.00    -0.205 F
BRANCH  23  28
HETATM   28  C14 UNL     1     -53.500 -14.647 -26.920  1.00  0.00     0.136 C
BRANCH  28  29
HETATM   29  N5  UNL     1     -53.295 -13.580 -27.878  1.00  0.00    -0.285 NA
BRANCH  29  30
HETATM   30  C15 UNL     1     -53.440 -14.229 -29.201  1.00  0.00     0.109 C
BRANCH  30  31
HETATM   31  C16 UNL     1     -54.867 -14.617 -29.411  1.00  0.00     0.138 C
HETATM   32  C17 UNL     1     -55.268 -14.148 -30.764  1.00  0.00     0.060 C
HETATM   33  N6  UNL     1     -55.561 -13.758 -31.838  1.00  0.00    -0.197 NA
ENDBRANCH  30  31
ENDBRANCH  29  30
BRANCH  29  34
HETATM   34  C18 UNL     1     -53.964 -12.396 -27.815  1.00  0.00     0.094 C
BRANCH  34  35
HETATM   35  C19 UNL     1     -53.418 -11.057 -27.667  1.00  0.00     0.088 C
HETATM   36  C20 UNL     1     -54.277  -9.911 -27.275  1.00  0.00     0.212 C
HETATM   37  N7  UNL     1     -53.492  -9.142 -26.302  1.00  0.00    -0.224 N
HETATM   38  C21 UNL     1     -53.887  -7.911 -25.805  1.00  0.00     0.189 C
HETATM   39  C22 UNL     1     -52.341  -9.892 -26.011  1.00  0.00     0.381 C
HETATM   40  N8  UNL     1     -54.193  -6.861 -25.389  1.00  0.00    -0.172 NA
HETATM   41  O1  UNL     1     -51.550  -9.702 -25.063  1.00  0.00    -0.237 OA
HETATM   42  O2  UNL     1     -52.227 -10.882 -26.962  1.00  0.00    -0.262 OA
ENDBRANCH  34  35
ENDBRANCH  29  34
ENDBRANCH  28  29
ENDBRANCH  23  28
BRANCH  24  43
HETATM   43  O3  UNL     1     -52.562 -17.000 -26.360  1.00  0.00    -0.355 OA
HETATM   44  C24 UNL     1     -52.242 -18.345 -26.439  1.00  0.00     0.210 C
ENDBRANCH  24  43
ENDBRANCH  12  21
TORSDOF 10
ENDMDL