MODEL 5
REMARK VINA RESULT: -9.170982962      2.194      3.404
REMARK  9 active torsions:
REMARK  status: ('A' for Active; 'I' for Inactive)
REMARK    1  A    between atoms: O1_2  and  C2_3
REMARK    2  A    between atoms: C4_5  and  O2_6
REMARK    3  A    between atoms: C6_8  and  C7_9
REMARK    4  A    between atoms: C7_9  and  N1_10
REMARK    5  A    between atoms: N1_10  and  C22_35
REMARK    6  A    between atoms: C8_11  and  C9_12
REMARK    7  A    between atoms: C13_19  and  O4_20
REMARK    8  A    between atoms: O4_20  and  C14_21
REMARK    9  A    between atoms: C28_42  and  O6_43
ROOT
HETATM    1  C9  UNL     1     -52.178 -11.751 -25.165  1.00  0.00     0.019 A
HETATM    2  C10 UNL     1     -52.373 -13.014 -25.574  1.00  0.00     0.035 A
HETATM    3  C11 UNL     1     -52.806 -13.379 -26.859  1.00  0.00     0.060 A
HETATM    4  C12 UNL     1     -52.988 -14.703 -27.219  1.00  0.00     0.261 A
HETATM    5  O3  UNL     1     -52.755 -15.603 -26.361  1.00  0.00    -0.267 OA
HETATM    6  N2  UNL     1     -53.404 -14.998 -28.462  1.00  0.00    -0.288 N
ATOM      7  H2  UNL     1     -53.534 -15.977 -28.718  1.00  0.00     0.172 HD
HETATM    8  C13 UNL     1     -53.654 -14.049 -29.379  1.00  0.00     0.227 A
HETATM    9  N4  UNL     1     -53.470 -12.775 -29.004  1.00  0.00    -0.321 N
ATOM     10  H4  UNL     1     -53.654 -12.037 -29.685  1.00  0.00     0.169 HD
HETATM   11  C19 UNL     1     -53.054 -12.420 -27.770  1.00  0.00     0.054 A
HETATM   12  C20 UNL     1     -52.876 -11.100 -27.422  1.00  0.00     0.073 A
HETATM   13  C21 UNL     1     -52.455 -10.770 -26.171  1.00  0.00     0.130 A
HETATM   14  F1  UNL     1     -52.294  -9.489 -25.867  1.00  0.00    -0.205 F
ENDROOT
BRANCH   1  15
HETATM   15  C8  UNL     1     -51.768 -11.225 -23.927  1.00  0.00     0.101 C
HETATM   16  N1  UNL     1     -51.361 -11.581 -22.708  1.00  0.00    -0.380 N
BRANCH  16  17
HETATM   17  C7  UNL     1     -51.119 -10.337 -21.889  1.00  0.00     0.164 C
BRANCH  17  18
HETATM   18  C6  UNL     1     -49.864 -10.312 -21.187  1.00  0.00    -0.004 A
HETATM   19  C4  UNL     1     -49.856  -9.929 -19.861  1.00  0.00     0.079 A
HETATM   20  C3  UNL     1     -48.711  -9.919 -19.123  1.00  0.00     0.077 A
HETATM   21  C2  UNL     1     -47.526 -10.292 -19.689  1.00  0.00     0.103 A
HETATM   22  C28 UNL     1     -47.481 -10.683 -21.008  1.00  0.00     0.099 A
HETATM   23  C27 UNL     1     -48.659 -10.682 -21.726  1.00  0.00     0.051 A
BRANCH  19  24
HETATM   24  O2  UNL     1     -51.073  -9.541 -19.264  1.00  0.00    -0.355 OA
HETATM   25  C5  UNL     1     -51.607 -10.328 -18.216  1.00  0.00     0.210 C
ENDBRANCH  19  24
BRANCH  21  26
HETATM   26  O1  UNL     1     -46.348 -10.277 -18.915  1.00  0.00    -0.353 OA
HETATM   27  C1  UNL     1     -46.390  -9.901 -17.554  1.00  0.00     0.210 C
ENDBRANCH  21  26
BRANCH  22  28
HETATM   28  O6  UNL     1     -46.255 -11.050 -21.528  1.00  0.00    -0.358 OA
ATOM     29  H6  UNL     1     -46.247 -11.509 -22.360  1.00  0.00     0.217 HD
ENDBRANCH  22  28
ENDBRANCH  17  18
ENDBRANCH  16  17
BRANCH  16  30
HETATM   30  C22 UNL     1     -51.308 -12.685 -21.912  1.00  0.00     0.088 C
HETATM   31  C23 UNL     1     -52.553 -13.387 -21.515  1.00  0.00     0.051 C
HETATM   32  C24 UNL     1     -52.269 -14.857 -21.160  1.00  0.00     0.169 C
HETATM   33  O5  UNL     1     -51.052 -14.921 -20.511  1.00  0.00    -0.391 OA
HETATM   34  C25 UNL     1     -50.069 -14.811 -21.466  1.00  0.00     0.169 C
HETATM   35  C26 UNL     1     -50.482 -13.833 -22.579  1.00  0.00     0.051 C
ENDBRANCH  16  30
ENDBRANCH   1  15
BRANCH   8  36
HETATM   36  O4  UNL     1     -54.081 -14.433 -30.641  1.00  0.00    -0.316 OA
BRANCH  36  37
HETATM   37  C14 UNL     1     -55.114 -13.767 -31.343  1.00  0.00     0.135 C
HETATM   38  C15 UNL     1     -56.405 -14.424 -30.994  1.00  0.00     0.060 C
HETATM   39  C16 UNL     1     -57.427 -14.437 -32.080  1.00  0.00     0.235 C
HETATM   40  N3  UNL     1     -56.895 -14.727 -33.393  1.00  0.00    -0.075 N
HETATM   41  C17 UNL     1     -55.955 -13.637 -33.697  1.00  0.00     0.235 C
ATOM     42  H32 UNL     1     -56.480 -15.656 -33.468  1.00  0.00     0.277 HD
ATOM     43  H31 UNL     1     -57.614 -14.855 -34.104  1.00  0.00     0.277 HD
HETATM   44  C18 UNL     1     -54.762 -13.855 -32.808  1.00  0.00     0.060 C
ENDBRANCH  36  37
ENDBRANCH   8  36
TORSDOF 9
ENDMDL