MODEL 1
REMARK VINA RESULT: -7.637410950      0.000      0.000
REMARK  13 active torsions:
REMARK  status: ('A' for Active; 'I' for Inactive)
REMARK    1  A    between atoms: C2_2  and  N1_3
REMARK    2  A    between atoms: N1_3  and  C3_4
REMARK       I    between atoms: N1_3  and  C11_17
REMARK    3  A    between atoms: C3_4  and  C4_5
REMARK    4  A    between atoms: C4_5  and  N2_6
REMARK    5  A    between atoms: C6_8  and  O1_9
REMARK    6  A    between atoms: N3_11  and  C7_12
REMARK       I    between atoms: C11_17  and  N6_29
REMARK    7  A    between atoms: N4_18  and  N5_20
REMARK    8  A    between atoms: C12_22  and  C14_24
REMARK    9  A    between atoms: C14_24  and  O3_26
REMARK   10  A    between atoms: N6_29  and  C16_31
REMARK   11  A    between atoms: C16_31  and  C17_32
REMARK   12  A    between atoms: C17_32  and  C18_33
REMARK   13  A    between atoms: C18_33  and  C19_34
ROOT
HETATM    1  C18 UNL     1     -53.187 -11.918 -25.293  1.00  0.00     0.089 C
HETATM    2  O4  UNL     1     -53.739 -12.588 -26.432  1.00  0.00    -0.354 OA
HETATM    3  C23 UNL     1     -52.818 -13.298 -27.141  1.00  0.00     0.339 C
HETATM    4  O5  UNL     1     -52.044 -12.450 -27.969  1.00  0.00    -0.366 OA
HETATM    5  C24 UNL     1     -51.520 -11.471 -27.164  1.00  0.00     0.192 C
HETATM    6  C25 UNL     1     -51.772 -11.650 -25.689  1.00  0.00     0.152 C
HETATM    7  C26 UNL     1     -51.107 -10.581 -24.994  1.00  0.00     0.069 C
HETATM    8  N7  UNL     1     -50.555  -9.731 -24.451  1.00  0.00    -0.197 NA
ENDROOT
BRANCH   1   9
HETATM    9  C17 UNL     1     -53.258 -13.015 -24.260  1.00  0.00     0.060 C
BRANCH   9  10
HETATM   10  C16 UNL     1     -52.018 -13.627 -23.775  1.00  0.00     0.141 C
BRANCH  10  11
HETATM   11  N6  UNL     1     -51.702 -12.945 -22.496  1.00  0.00    -0.225 N
HETATM   12  C11 UNL     1     -50.985 -13.622 -21.482  1.00  0.00     0.690 C
HETATM   13  N1  UNL     1     -51.610 -14.707 -20.812  1.00  0.00    -0.215 N
HETATM   14  N4  UNL     1     -49.803 -13.327 -21.106  1.00  0.00    -0.132 N
ATOM     15  H4  UNL     1     -49.422 -13.902 -20.355  1.00  0.00     0.205 HD
ATOM     16  H6  UNL     1     -52.004 -11.983 -22.347  1.00  0.00     0.177 HD
BRANCH  13  17
HETATM   17  C2  UNL     1     -52.796 -14.450 -20.019  1.00  0.00     0.137 C
HETATM   18  C1  UNL     1     -52.417 -13.936 -18.670  1.00  0.00     0.027 C
ENDBRANCH  13  17
BRANCH  13  19
HETATM   19  C3  UNL     1     -51.027 -16.025 -20.933  1.00  0.00     0.161 C
BRANCH  19  20
HETATM   20  C4  UNL     1     -52.023 -17.122 -21.096  1.00  0.00     0.153 C
BRANCH  20  21
HETATM   21  N2  UNL     1     -51.896 -17.653 -22.463  1.00  0.00    -0.304 N
HETATM   22  C5  UNL     1     -50.973 -18.504 -22.886  1.00  0.00     0.151 A
HETATM   23  C6  UNL     1     -51.207 -18.744 -24.239  1.00  0.00     0.162 A
HETATM   24  N3  UNL     1     -52.277 -18.019 -24.586  1.00  0.00    -0.274 N
HETATM   25  C10 UNL     1     -52.684 -17.359 -23.488  1.00  0.00     0.331 A
HETATM   26  O2  UNL     1     -53.671 -16.558 -23.388  1.00  0.00    -0.246 OA
BRANCH  23  27
HETATM   27  O1  UNL     1     -50.418 -19.587 -24.972  1.00  0.00    -0.345 OA
ATOM     28  H1  UNL     1     -50.395 -20.523 -24.811  1.00  0.00     0.219 HD
ENDBRANCH  23  27
BRANCH  24  29
HETATM   29  C7  UNL     1     -52.880 -17.952 -25.869  1.00  0.00     0.097 A
HETATM   30  C8  UNL     1     -52.766 -19.021 -26.880  1.00  0.00     0.028 A
HETATM   31  C9  UNL     1     -54.034 -18.928 -26.084  1.00  0.00     0.028 A
ENDBRANCH  24  29
ENDBRANCH  20  21
ENDBRANCH  19  20
ENDBRANCH  13  19
BRANCH  14  32
HETATM   32  N5  UNL     1     -48.976 -12.339 -21.575  1.00  0.00    -0.289 N
HETATM   33  C12 UNL     1     -48.703 -11.320 -20.810  1.00  0.00     0.066 C
HETATM   34  C13 UNL     1     -49.282 -11.243 -19.456  1.00  0.00     0.071 C
ATOM     35  H5  UNL     1     -48.580 -12.401 -22.513  1.00  0.00     0.187 HD
BRANCH  33  36
HETATM   36  C14 UNL     1     -47.808 -10.258 -21.334  1.00  0.00     0.239 C
HETATM   37  C15 UNL     1     -47.354  -9.425 -20.147  1.00  0.00     0.091 C
HETATM   38  F1  UNL     1     -46.707 -10.838 -21.913  1.00  0.00    -0.205 F
BRANCH  36  39
HETATM   39  O3  UNL     1     -48.458  -9.470 -22.280  1.00  0.00    -0.357 OA
ATOM     40  H3  UNL     1     -48.308  -8.545 -22.122  1.00  0.00     0.213 HD
ENDBRANCH  36  39
ENDBRANCH  33  36
ENDBRANCH  14  32
ENDBRANCH  10  11
ENDBRANCH   9  10
ENDBRANCH   1   9
BRANCH   1  41
HETATM   41  C19 UNL     1     -54.099 -10.783 -25.122  1.00  0.00    -0.018 C
HETATM   42  C20 UNL     1     -55.546 -11.186 -25.494  1.00  0.00     0.018 C
HETATM   43  C21 UNL     1     -54.217 -10.524 -23.602  1.00  0.00     0.018 C
HETATM   44  C22 UNL     1     -53.874  -9.488 -25.764  1.00  0.00     0.018 C
ENDBRANCH   1  41
TORSDOF 13
ENDMDL