MODEL 5
REMARK VINA RESULT: -8.473404119      3.075      4.413
REMARK  7 active torsions:
REMARK  status: ('A' for Active; 'I' for Inactive)
REMARK    1  A    between atoms: C3_3  and  S1_4
REMARK    2  A    between atoms: S1_4  and  N1_7
REMARK    3  A    between atoms: N1_7  and  C4_9
REMARK    4  A    between atoms: C4_9  and  C5_10
REMARK    5  A    between atoms: C4_9  and  C17_28
REMARK       I    between atoms: C5_10  and  N2_12
REMARK       I    between atoms: N2_12  and  C6_14
REMARK       I    between atoms: C6_14  and  N3_16
REMARK    6  A    between atoms: N3_16  and  C7_18
REMARK    7  A    between atoms: C22_33  and  N4_34
REMARK       I    between atoms: N4_34  and  C23_36
ROOT
HETATM    1  C4  UNL     1      51.578  22.652  11.469  1.00  0.00     0.188 C
ENDROOT
BRANCH   1   2
HETATM    2  N1  UNL     1      51.688  22.582  12.851  1.00  0.00    -0.301 N
ATOM      3  H1  UNL     1      51.094  23.274  13.309  1.00  0.00     0.173 HD
BRANCH   2   4
HETATM    4  S1  UNL     1      52.511  21.696  13.933  1.00  0.00     0.260 S
HETATM    5  O1  UNL     1      51.680  20.414  14.235  1.00  0.00    -0.200 OA
HETATM    6  O2  UNL     1      52.522  22.331  15.344  1.00  0.00    -0.200 OA
BRANCH   4   7
HETATM    7  C3  UNL     1      54.119  21.103  13.580  1.00  0.00     0.087 A
HETATM    8  C2  UNL     1      55.278  21.809  13.574  1.00  0.00    -0.015 A
HETATM    9  C1  UNL     1      55.289  23.250  14.019  1.00  0.00     0.052 C
HETATM   10  C24 UNL     1      56.497  21.261  13.239  1.00  0.00     0.068 A
HETATM   11  C22 UNL     1      56.576  19.907  12.859  1.00  0.00     0.058 A
HETATM   12 CL1  UNL     1      57.915  22.268  13.263  1.00  0.00    -0.081 Cl
HETATM   13  C21 UNL     1      55.447  19.157  12.833  1.00  0.00     0.033 A
HETATM   14  C20 UNL     1      54.217  19.783  13.205  1.00  0.00     0.028 A
BRANCH  11  15
HETATM   15  N4  UNL     1      57.878  19.412  12.513  1.00  0.00    -0.310 N
HETATM   16  C23 UNL     1      58.734  18.683  13.347  1.00  0.00     0.333 C
HETATM   17  N5  UNL     1      60.022  18.279  12.906  1.00  0.00    -0.040 NA
HETATM   18  O5  UNL     1      58.452  18.318  14.547  1.00  0.00    -0.251 OA
ATOM     19  H4  UNL     1      58.211  19.609  11.570  1.00  0.00     0.170 HD
ENDBRANCH  11  15
ENDBRANCH   4   7
ENDBRANCH   2   4
ENDBRANCH   1   2
BRANCH   1  20
HETATM   20  C5  UNL     1      51.854  24.029  11.012  1.00  0.00     0.249 C
HETATM   21  O3  UNL     1      51.159  24.787  10.483  1.00  0.00    -0.271 OA
HETATM   22  N2  UNL     1      53.450  24.547  11.308  1.00  0.00    -0.278 N
HETATM   23  C6  UNL     1      53.345  25.776  10.604  1.00  0.00     0.323 C
ATOM     24  H2  UNL     1      54.222  24.119  11.819  1.00  0.00     0.173 HD
HETATM   25  O4  UNL     1      52.510  26.395  10.100  1.00  0.00    -0.247 OA
HETATM   26  N3  UNL     1      54.687  26.467  10.520  1.00  0.00    -0.337 N
ATOM     27  H3  UNL     1      55.540  26.006  10.835  1.00  0.00     0.164 HD
BRANCH  26  28
HETATM   28  C7  UNL     1      54.714  27.807   9.976  1.00  0.00     0.102 C
HETATM   29  C8  UNL     1      55.297  28.798  10.980  1.00  0.00    -0.022 C
HETATM   30  C9  UNL     1      54.331  29.476  11.855  1.00  0.00     0.017 C
HETATM   31  C10 UNL     1      56.506  28.198  11.614  1.00  0.00     0.011 C
HETATM   32  C13 UNL     1      55.978  29.804  10.012  1.00  0.00     0.016 C
HETATM   33  C11 UNL     1      57.487  28.107  10.430  1.00  0.00     0.006 C
HETATM   34  C12 UNL     1      56.754  28.731   9.267  1.00  0.00    -0.004 C
HETATM   35  C14 UNL     1      55.622  27.866   8.806  1.00  0.00    -0.023 C
HETATM   36  C15 UNL     1      56.096  26.531   8.272  1.00  0.00     0.017 C
HETATM   37  C16 UNL     1      54.954  28.561   7.627  1.00  0.00     0.017 C
ENDBRANCH  26  28
ENDBRANCH   1  20
BRANCH   1  38
HETATM   38  C17 UNL     1      50.267  22.095  10.998  1.00  0.00     0.010 C
HETATM   39  C18 UNL     1      50.358  20.544  10.995  1.00  0.00     0.012 C
HETATM   40  C19 UNL     1      49.165  22.373  12.022  1.00  0.00     0.012 C
ENDBRANCH   1  38
TORSDOF 7
ENDMDL