MODEL 1
REMARK VINA RESULT: -8.256641855      0.000      0.000
REMARK  9 active torsions:
REMARK  status: ('A' for Active; 'I' for Inactive)
REMARK    1  A    between atoms: C2_3  and  N2_4
REMARK       I    between atoms: N2_4  and  C3_6
REMARK       I    between atoms: C3_6  and  N3_8
REMARK    2  A    between atoms: N3_8  and  C4_10
REMARK    3  A    between atoms: C9_16  and  C10_17
REMARK       I    between atoms: C10_17  and  N4_19
REMARK    4  A    between atoms: N4_19  and  C11_21
REMARK    5  A    between atoms: C11_21  and  C12_22
REMARK    6  A    between atoms: C12_22  and  O3_23
REMARK    7  A    between atoms: C12_22  and  N5_25
REMARK    8  A    between atoms: N5_25  and  C13_27
REMARK    9  A    between atoms: C13_27  and  C14_28
ROOT
HETATM    1  N1  UNL     1      51.296  24.796  10.181  1.00  0.00    -0.195 NA
HETATM    2  C1  UNL     1      50.970  23.889  10.825  1.00  0.00     0.091 C
HETATM    3  C2  UNL     1      50.552  22.695  11.635  1.00  0.00     0.126 C
HETATM    4  C22 UNL     1      51.415  21.518  11.244  1.00  0.00     0.074 C
HETATM    5  C23 UNL     1      50.575  20.358  10.731  1.00  0.00     0.235 C
HETATM    6  N6  UNL     1      49.550  20.070  11.711  1.00  0.00    -0.075 N
ATOM      7  H61 UNL     1      49.963  19.821  12.611  1.00  0.00     0.277 HD
ATOM      8  H62 UNL     1      49.077  19.192  11.498  1.00  0.00     0.277 HD
HETATM    9  C24 UNL     1      48.609  21.138  11.857  1.00  0.00     0.235 C
HETATM   10  C25 UNL     1      49.102  22.443  11.304  1.00  0.00     0.074 C
ENDROOT
BRANCH   3  11
HETATM   11  N2  UNL     1      50.678  23.103  13.000  1.00  0.00    -0.321 N
HETATM   12  C3  UNL     1      51.861  22.845  13.807  1.00  0.00     0.322 C
HETATM   13  O1  UNL     1      52.783  22.215  13.301  1.00  0.00    -0.247 OA
HETATM   14  N3  UNL     1      51.851  23.337  15.111  1.00  0.00    -0.308 N
ATOM     15  H3  UNL     1      51.053  23.895  15.412  1.00  0.00     0.170 HD
ATOM     16  H2  UNL     1      49.898  23.601  13.430  1.00  0.00     0.166 HD
BRANCH  14  17
HETATM   17  C4  UNL     1      52.888  23.101  16.034  1.00  0.00     0.052 A
HETATM   18  C5  UNL     1      52.828  21.991  16.898  1.00  0.00     0.032 A
HETATM   19  C6  UNL     1      53.746  21.828  17.898  1.00  0.00     0.021 A
HETATM   20  C7  UNL     1      54.746  22.713  18.105  1.00  0.00     0.012 A
HETATM   21 BR1  UNL     1      56.039  22.465  19.524  1.00  0.00    -0.051 Br
HETATM   22  C8  UNL     1      54.858  23.834  17.280  1.00  0.00     0.038 A
HETATM   23  C9  UNL     1      53.903  23.992  16.241  1.00  0.00     0.060 A
BRANCH  23  24
HETATM   24  C10 UNL     1      54.167  25.063  15.261  1.00  0.00     0.255 C
HETATM   25  O2  UNL     1      53.967  26.253  15.636  1.00  0.00    -0.268 OA
HETATM   26  N4  UNL     1      54.610  24.812  13.945  1.00  0.00    -0.340 N
ATOM     27  H4  UNL     1      54.805  23.846  13.687  1.00  0.00     0.164 HD
BRANCH  26  28
HETATM   28  C11 UNL     1      54.809  25.841  12.929  1.00  0.00     0.098 A
HETATM   29  C20 UNL     1      55.822  25.432  11.871  1.00  0.00     0.042 A
HETATM   30  C21 UNL     1      56.116  26.519  12.820  1.00  0.00     0.042 A
BRANCH  28  31
HETATM   31  C12 UNL     1      53.592  26.519  12.427  1.00  0.00     0.140 C
BRANCH  31  32
HETATM   32  O3  UNL     1      52.471  25.924  12.815  1.00  0.00    -0.348 OA
ATOM     33  H3  UNL     1      51.810  25.899  12.133  1.00  0.00     0.219 HD
ENDBRANCH  31  32
BRANCH  31  34
HETATM   34  N5  UNL     1      53.476  27.654  11.649  1.00  0.00    -0.372 N
ATOM     35  H5  UNL     1      53.461  28.564  12.108  1.00  0.00     0.161 HD
BRANCH  34  36
HETATM   36  C13 UNL     1      53.374  27.601  10.208  1.00  0.00     0.126 C
BRANCH  36  37
HETATM   37  C14 UNL     1      54.536  28.075   9.433  1.00  0.00     0.003 C
HETATM   38  C15 UNL     1      55.304  27.079   8.655  1.00  0.00     0.006 C
HETATM   39  C16 UNL     1      56.668  27.660   8.288  1.00  0.00     0.000 C
HETATM   40  C17 UNL     1      56.576  29.163   8.003  1.00  0.00     0.000 C
HETATM   41  C18 UNL     1      56.179  29.913   9.265  1.00  0.00     0.000 C
HETATM   42  C19 UNL     1      55.470  28.973  10.221  1.00  0.00     0.006 C
ENDBRANCH  36  37
ENDBRANCH  34  36
ENDBRANCH  31  34
ENDBRANCH  28  31
ENDBRANCH  26  28
ENDBRANCH  23  24
ENDBRANCH  14  17
ENDBRANCH   3  11
TORSDOF 9
ENDMDL