MODEL 3
REMARK VINA RESULT: -6.646756477      3.812      6.781
REMARK  9 active torsions:
REMARK  status: ('A' for Active; 'I' for Inactive)
REMARK    1  A    between atoms: C2_2  and  C4_4
REMARK    2  A    between atoms: C4_4  and  C5_5
REMARK    3  A    between atoms: C5_5  and  C6_6
REMARK    4  A    between atoms: C21_25  and  C22_26
REMARK    5  A    between atoms: C22_26  and  C23_27
REMARK    6  A    between atoms: C23_27  and  C24_28
REMARK    7  A    between atoms: C24_28  and  N1_29
REMARK    8  A    between atoms: C26_34  and  O4_36
REMARK    9  A    between atoms: C28_38  and  O5_39
ROOT
HETATM    1  C5  UNL     1      52.343  20.842  12.493  1.00  0.00     0.104 C
HETATM    2  C7  UNL     1      52.441  22.389  12.513  1.00  0.00    -0.036 A
HETATM    3  C8  UNL     1      52.181  23.116  13.654  1.00  0.00     0.011 A
HETATM    4  C9  UNL     1      52.315  24.526  13.687  1.00  0.00     0.037 A
HETATM    5  C10 UNL     1      52.704  25.261  12.614  1.00  0.00     0.068 A
HETATM    6  C11 UNL     1      52.957  24.549  11.474  1.00  0.00     0.037 A
HETATM    7  C12 UNL     1      52.829  23.134  11.415  1.00  0.00     0.011 A
HETATM    8  O3  UNL     1      52.842  26.670  12.691  1.00  0.00    -0.351 OA
HETATM    9  C13 UNL     1      54.125  27.252  13.049  1.00  0.00     0.175 C
HETATM   10  C14 UNL     1      54.366  26.906  14.496  1.00  0.00     0.027 C
HETATM   11  C15 UNL     1      55.402  25.784  14.645  1.00  0.00     0.002 C
HETATM   12  C16 UNL     1      55.485  25.242  15.999  1.00  0.00     0.002 C
HETATM   13  C17 UNL     1      55.065  23.845  16.288  1.00  0.00     0.021 C
HETATM   14  C18 UNL     1      55.702  22.877  15.366  1.00  0.00     0.090 C
HETATM   15 CL1  UNL     1      57.427  23.447  15.276  1.00  0.00    -0.124 Cl
HETATM   16  C19 UNL     1      55.780  21.430  15.794  1.00  0.00     0.032 C
HETATM   17  C20 UNL     1      55.948  21.551  17.324  1.00  0.00     0.016 C
HETATM   18  C21 UNL     1      54.618  20.565  15.453  1.00  0.00    -0.042 C
HETATM   19  C26 UNL     1      54.412  20.183  13.992  1.00  0.00     0.105 C
HETATM   20  C27 UNL     1      55.414  20.728  13.061  1.00  0.00     0.053 C
HETATM   21  C28 UNL     1      52.989  20.157  13.666  1.00  0.00     0.180 C
ENDROOT
BRANCH  18  22
HETATM   22  C22 UNL     1      54.374  19.451  16.413  1.00  0.00    -0.019 C
BRANCH  22  23
HETATM   23  C23 UNL     1      53.199  19.417  17.293  1.00  0.00     0.047 C
BRANCH  23  24
HETATM   24  C24 UNL     1      53.237  18.042  18.037  1.00  0.00     0.126 C
BRANCH  24  25
HETATM   25  N1  UNL     1      54.483  17.403  17.661  1.00  0.00    -0.367 N
HETATM   26  C25 UNL     1      55.562  17.498  18.330  1.00  0.00     0.196 C
HETATM   27  N2  UNL     1      56.722  16.830  17.866  1.00  0.00    -0.067 NA
HETATM   28  N3  UNL     1      55.635  18.251  19.522  1.00  0.00    -0.067 NA
ATOM     29  H1  UNL     1      54.496  16.844  16.808  1.00  0.00     0.161 HD
ENDBRANCH  24  25
ENDBRANCH  23  24
ENDBRANCH  22  23
ENDBRANCH  18  22
BRANCH  19  30
HETATM   30  O4  UNL     1      54.868  18.803  14.028  1.00  0.00    -0.383 OA
ATOM     31  H4  UNL     1      55.802  18.943  14.131  1.00  0.00     0.211 HD
ENDBRANCH  19  30
BRANCH  21  32
HETATM   32  O5  UNL     1      52.157  20.454  14.781  1.00  0.00    -0.391 OA
ATOM     33  H5  UNL     1      51.469  19.798  14.763  1.00  0.00     0.210 HD
ENDBRANCH  21  32
BRANCH   1  34
HETATM   34  C4  UNL     1      50.848  20.647  12.517  1.00  0.00     0.032 C
BRANCH  34  35
HETATM   35  C2  UNL     1      49.904  21.039  11.537  1.00  0.00    -0.021 C
HETATM   36  C1  UNL     1      48.952  19.794  11.320  1.00  0.00     0.009 C
HETATM   37  C3  UNL     1      48.879  22.061  12.021  1.00  0.00     0.009 C
ENDBRANCH  34  35
ENDBRANCH   1  34
BRANCH   1  38
HETATM   38  C6  UNL     1      52.757  20.162  11.283  1.00  0.00     0.189 C
HETATM   39  O1  UNL     1      52.729  20.641  10.146  1.00  0.00    -0.647 OA
HETATM   40  O2  UNL     1      53.253  18.832  11.257  1.00  0.00    -0.647 OA
ENDBRANCH   1  38
TORSDOF 9
ENDMDL