MODEL 3
REMARK VINA RESULT: -9.284204539      1.097      1.523
REMARK  11 active torsions:
REMARK  status: ('A' for Active; 'I' for Inactive)
REMARK    1  A    between atoms: C7_8  and  C8_9
REMARK    2  A    between atoms: C8_9  and  O1_10
REMARK    3  A    between atoms: C8_9  and  N1_12
REMARK    4  A    between atoms: N1_12  and  C9_14
REMARK    5  A    between atoms: C13_18  and  C14_19
REMARK    6  A    between atoms: C14_19  and  N2_20
REMARK       I    between atoms: N2_20  and  C15_22
REMARK       I    between atoms: C15_22  and  N3_24
REMARK    7  A    between atoms: N3_24  and  C16_26
REMARK    8  A    between atoms: C21_31  and  C22_32
REMARK    9  A    between atoms: C22_32  and  C23_33
REMARK   10  A    between atoms: C23_33  and  O3_36
REMARK   11  A    between atoms: C28_40  and  O4_41
ROOT
HETATM    1  N2  UNL     1      54.613  27.603  12.857  1.00  0.00    -0.341 N
ATOM      2  H2  UNL     1      55.098  27.100  13.601  1.00  0.00     0.164 HD
HETATM    3  C15 UNL     1      55.133  28.856  12.439  1.00  0.00     0.316 C
HETATM    4  O2  UNL     1      54.551  29.453  11.506  1.00  0.00    -0.247 OA
HETATM    5  N3  UNL     1      56.265  29.443  13.027  1.00  0.00    -0.335 N
ATOM      6  H3  UNL     1      56.695  28.938  13.801  1.00  0.00     0.164 HD
ENDROOT
BRANCH   1   7
HETATM    7  C14 UNL     1      53.426  27.001  12.278  1.00  0.00     0.156 C
BRANCH   7   8
HETATM    8  C13 UNL     1      53.776  26.168  11.068  1.00  0.00     0.139 C
HETATM    9  C12 UNL     1      54.952  25.279  11.221  1.00  0.00     0.034 C
HETATM   10  C11 UNL     1      55.043  24.517  12.486  1.00  0.00     0.005 C
HETATM   11  C10 UNL     1      53.949  23.551  12.771  1.00  0.00     0.027 C
HETATM   12  C9  UNL     1      52.937  23.368  11.689  1.00  0.00     0.107 C
HETATM   13  C30 UNL     1      52.110  24.613  11.461  1.00  0.00     0.193 C
HETATM   14  O5  UNL     1      52.657  25.507  10.565  1.00  0.00    -0.382 OA
BRANCH  12  15
HETATM   15  N1  UNL     1      51.960  22.381  12.220  1.00  0.00    -0.364 N
ATOM     16  H1  UNL     1      51.647  22.456  13.188  1.00  0.00     0.162 HD
BRANCH  15  17
HETATM   17  C8  UNL     1      51.464  21.352  11.415  1.00  0.00     0.147 C
BRANCH  17  18
HETATM   18  C7  UNL     1      50.149  20.747  11.417  1.00  0.00     0.023 A
HETATM   19  C2  UNL     1      48.965  21.408  11.565  1.00  0.00    -0.047 A
HETATM   20  C1  UNL     1      48.928  22.903  11.606  1.00  0.00     0.049 C
HETATM   21  C3  UNL     1      47.743  20.709  11.625  1.00  0.00     0.011 A
HETATM   22  C4  UNL     1      47.678  19.342  11.536  1.00  0.00     0.043 A
HETATM   23  C5  UNL     1      48.871  18.675  11.385  1.00  0.00     0.117 A
HETATM   24  F1  UNL     1      48.802  17.307  11.294  1.00  0.00    -0.206 F
HETATM   25  C6  UNL     1      50.065  19.335  11.327  1.00  0.00     0.058 A
ENDBRANCH  17  18
BRANCH  17  26
HETATM   26  O1  UNL     1      52.329  20.888  10.556  1.00  0.00    -0.346 OA
ATOM     27  H1  UNL     1      53.104  20.466  10.908  1.00  0.00     0.219 HD
ENDBRANCH  17  26
ENDBRANCH  15  17
ENDBRANCH  12  15
ENDBRANCH   7   8
ENDBRANCH   1   7
BRANCH   5  28
HETATM   28  C16 UNL     1      56.870  30.672  12.651  1.00  0.00     0.124 C
HETATM   29  C17 UNL     1      58.111  30.572  11.846  1.00  0.00     0.012 C
HETATM   30  C18 UNL     1      59.342  30.231  12.653  1.00  0.00     0.011 C
HETATM   31  C26 UNL     1      58.381  31.943  11.251  1.00  0.00     0.016 C
HETATM   32  C19 UNL     1      59.500  31.184  13.806  1.00  0.00    -0.010 C
HETATM   33  C20 UNL     1      59.693  32.560  13.264  1.00  0.00     0.014 C
HETATM   34  C29 UNL     1      58.266  31.226  14.682  1.00  0.00     0.044 C
HETATM   35  C21 UNL     1      58.519  32.986  12.347  1.00  0.00    -0.034 C
HETATM   36  C27 UNL     1      57.331  33.010  13.244  1.00  0.00     0.049 C
HETATM   37  C28 UNL     1      57.118  31.602  13.822  1.00  0.00     0.080 C
BRANCH  35  38
HETATM   38  C22 UNL     1      58.960  34.256  11.753  1.00  0.00     0.046 C
BRANCH  38  39
HETATM   39  C23 UNL     1      58.519  35.541  12.315  1.00  0.00     0.051 C
HETATM   40  C24 UNL     1      58.758  35.747  13.790  1.00  0.00     0.045 C
HETATM   41  C25 UNL     1      59.378  36.621  11.620  1.00  0.00     0.045 C
BRANCH  39  42
HETATM   42  O3  UNL     1      57.212  35.895  11.954  1.00  0.00    -0.391 OA
ATOM     43  H3  UNL     1      57.168  36.623  11.346  1.00  0.00     0.210 HD
ENDBRANCH  39  42
ENDBRANCH  38  39
ENDBRANCH  35  38
BRANCH  37  44
HETATM   44  O4  UNL     1      55.923  31.676  14.566  1.00  0.00    -0.388 OA
ATOM     45  H4  UNL     1      56.137  32.045  15.415  1.00  0.00     0.210 HD
ENDBRANCH  37  44
ENDBRANCH   5  28
TORSDOF 11
ENDMDL