MODEL 5
REMARK VINA RESULT: -7.400788223      4.900      8.635
REMARK  9 active torsions:
REMARK  status: ('A' for Active; 'I' for Inactive)
REMARK    1  A    between atoms: C2_2  and  C3_3
REMARK    2  A    between atoms: C2_2  and  N1_6
REMARK    3  A    between atoms: C3_3  and  O1_4
REMARK       I    between atoms: N1_6  and  C4_8
REMARK       I    between atoms: C4_8  and  N2_10
REMARK    4  A    between atoms: N2_10  and  C6_12
REMARK    5  A    between atoms: C17_26  and  C18_27
REMARK    6  A    between atoms: C23_35  and  O3_36
REMARK    7  A    between atoms: N5_38  and  C24_39
REMARK    8  A    between atoms: C24_39  and  C26_41
REMARK    9  A    between atoms: C26_41  and  O4_42
ROOT
HETATM    1  C6  UNL     1      55.767  27.384   9.033  1.00  0.00     0.098 C
HETATM    2  C7  UNL     1      55.543  26.983  10.404  1.00  0.00    -0.056 C
HETATM    3  C8  UNL     1      55.362  25.573  10.794  1.00  0.00     0.037 C
HETATM    4  C9  UNL     1      53.976  25.088  11.142  1.00  0.00     0.013 C
HETATM    5  C10 UNL     1      53.882  24.335  12.438  1.00  0.00     0.090 C
HETATM    6  C11 UNL     1      53.090  24.978  13.515  1.00  0.00     0.165 C
HETATM    7  F1  UNL     1      51.795  25.292  13.154  1.00  0.00    -0.191 F
HETATM    8  N3  UNL     1      53.461  25.275  14.693  1.00  0.00    -0.335 N
ATOM      9  H3  UNL     1      52.660  25.701  15.161  1.00  0.00     0.168 HD
HETATM   10  C12 UNL     1      54.499  25.258  15.598  1.00  0.00     0.059 A
HETATM   11  C13 UNL     1      55.367  26.391  15.728  1.00  0.00     0.043 A
HETATM   12  C14 UNL     1      56.429  26.327  16.623  1.00  0.00     0.018 A
HETATM   13  C15 UNL     1      56.665  25.219  17.382  1.00  0.00     0.002 A
HETATM   14  C16 UNL     1      55.847  24.148  17.269  1.00  0.00     0.014 A
HETATM   15  C17 UNL     1      54.739  24.126  16.384  1.00  0.00    -0.006 A
HETATM   16  C23 UNL     1      55.204  27.705  15.127  1.00  0.00     0.155 C
HETATM   17  N5  UNL     1      55.052  28.224  13.831  1.00  0.00    -0.334 N
HETATM   18  C27 UNL     1      55.447  27.565  12.677  1.00  0.00     0.075 C
HETATM   19  C28 UNL     1      56.221  27.857  11.510  1.00  0.00     0.050 C
HETATM   20  C29 UNL     1      56.381  29.263  11.090  1.00  0.00     0.020 C
ENDROOT
BRANCH   1  21
HETATM   21  N2  UNL     1      56.808  26.926   8.206  1.00  0.00    -0.314 N
HETATM   22  C4  UNL     1      57.023  27.393   6.889  1.00  0.00     0.322 C
HETATM   23  N1  UNL     1      58.040  26.953   6.005  1.00  0.00    -0.336 N
HETATM   24  O2  UNL     1      56.251  28.302   6.412  1.00  0.00    -0.247 OA
ATOM     25  H1  UNL     1      58.681  26.223   6.315  1.00  0.00     0.164 HD
HETATM   26  C5  UNL     1      57.735  25.928   8.664  1.00  0.00     0.160 C
BRANCH  23  27
HETATM   27  C2  UNL     1      58.198  27.508   4.672  1.00  0.00     0.105 C
HETATM   28  C1  UNL     1      58.859  26.576   3.694  1.00  0.00     0.034 C
BRANCH  27  29
HETATM   29  C3  UNL     1      59.094  28.761   4.739  1.00  0.00     0.189 C
BRANCH  29  30
HETATM   30  O1  UNL     1      58.318  29.914   4.805  1.00  0.00    -0.399 OA
ATOM     31  H1  UNL     1      58.690  30.598   4.262  1.00  0.00     0.209 HD
ENDBRANCH  29  30
ENDBRANCH  27  29
ENDBRANCH  23  27
ENDBRANCH   1  21
BRANCH  17  32
HETATM   32  C24 UNL     1      54.384  29.510  13.701  1.00  0.00     0.110 C
HETATM   33  C25 UNL     1      53.453  29.615  12.519  1.00  0.00     0.035 C
BRANCH  32  34
HETATM   34  C26 UNL     1      55.415  30.639  13.506  1.00  0.00     0.189 C
BRANCH  34  35
HETATM   35  O4  UNL     1      55.476  31.299  14.731  1.00  0.00    -0.399 OA
ATOM     36  H4  UNL     1      56.330  31.088  15.088  1.00  0.00     0.209 HD
ENDBRANCH  34  35
ENDBRANCH  32  34
ENDBRANCH  17  32
BRANCH  16  37
HETATM   37  O3  UNL     1      55.195  28.676  16.029  1.00  0.00    -0.345 OA
ATOM     38  H3  UNL     1      55.562  28.403  16.861  1.00  0.00     0.219 HD
ENDBRANCH  16  37
BRANCH  15  39
HETATM   39  C18 UNL     1      54.002  22.855  16.420  1.00  0.00    -0.064 C
HETATM   40  C19 UNL     1      54.420  21.884  15.334  1.00  0.00     0.062 C
HETATM   41  C20 UNL     1      55.229  20.790  16.105  1.00  0.00     0.236 C
HETATM   42  N4  UNL     1      54.307  19.977  16.846  1.00  0.00    -0.075 N
HETATM   43  C21 UNL     1      53.144  20.732  17.253  1.00  0.00     0.236 C
ATOM     44  H42 UNL     1      54.045  19.140  16.325  1.00  0.00     0.277 HD
ATOM     45  H41 UNL     1      54.760  19.531  17.644  1.00  0.00     0.277 HD
HETATM   46  C22 UNL     1      53.656  22.158  17.643  1.00  0.00     0.062 C
ENDBRANCH  15  39
TORSDOF 9
ENDMDL