MODEL 1
REMARK VINA RESULT: -9.019688056      0.000      0.000
REMARK  11 active torsions:
REMARK  status: ('A' for Active; 'I' for Inactive)
REMARK    1  A    between atoms: C4_5  and  N2_6
REMARK    2  A    between atoms: N2_6  and  C5_8
REMARK    3  A    between atoms: C5_8  and  O1_9
REMARK    4  A    between atoms: N3_11  and  C6_13
REMARK    5  A    between atoms: C6_13  and  C7_14
REMARK    6  A    between atoms: C7_14  and  C8_15
REMARK    7  A    between atoms: C8_15  and  N4_16
REMARK       I    between atoms: N4_16  and  C9_18
REMARK    8  A    between atoms: C9_18  and  C10_20
REMARK    9  A    between atoms: N5_23  and  C13_24
REMARK   10  A    between atoms: C13_24  and  O3_25
REMARK   11  A    between atoms: C13_24  and  C14_27
ROOT
HETATM    1  C10 UNL     1      52.938  21.947  15.695  1.00  0.00     0.081 C
HETATM    2  C11 UNL     1      52.410  22.072  14.272  1.00  0.00     0.034 C
HETATM    3  C12 UNL     1      53.403  22.692  13.358  1.00  0.00     0.125 C
HETATM    4  N5  UNL     1      53.785  24.010  13.897  1.00  0.00    -0.365 N
HETATM    5  C25 UNL     1      54.318  24.011  15.216  1.00  0.00     0.125 C
HETATM    6  C26 UNL     1      53.377  23.312  16.176  1.00  0.00     0.034 C
ENDROOT
BRANCH   1   7
HETATM    7  C9  UNL     1      54.028  20.962  15.653  1.00  0.00     0.225 C
HETATM    8  N4  UNL     1      53.800  19.728  14.956  1.00  0.00    -0.337 N
ATOM      9  H4  UNL     1      52.880  19.543  14.557  1.00  0.00     0.168 HD
HETATM   10  O2  UNL     1      55.121  21.196  16.193  1.00  0.00    -0.273 OA
BRANCH   8  11
HETATM   11  C8  UNL     1      54.826  18.759  14.812  1.00  0.00     0.092 C
BRANCH  11  12
HETATM   12  C7  UNL     1      55.639  18.753  13.624  1.00  0.00     0.034 C
BRANCH  12  13
HETATM   13  C6  UNL     1      55.196  18.561  12.284  1.00  0.00     0.093 C
BRANCH  13  14
HETATM   14  N3  UNL     1      54.337  19.409  11.553  1.00  0.00    -0.332 N
HETATM   15  C5  UNL     1      53.073  19.585  11.455  1.00  0.00     0.221 C
ATOM     16  H3  UNL     1      54.856  20.045  10.948  1.00  0.00     0.168 HD
BRANCH  15  17
HETATM   17  N2  UNL     1      52.148  20.317  10.695  1.00  0.00    -0.322 N
ATOM     18  H2  UNL     1      52.471  20.666   9.793  1.00  0.00     0.169 HD
BRANCH  17  19
HETATM   19  C4  UNL     1      50.793  20.625  11.055  1.00  0.00     0.036 A
HETATM   20  C3  UNL     1      50.444  21.913  11.383  1.00  0.00     0.031 A
HETATM   21  C2  UNL     1      49.136  22.181  11.782  1.00  0.00     0.030 A
HETATM   22  C1  UNL     1      48.161  21.240  11.876  1.00  0.00     0.068 A
HETATM   23  N1  UNL     1      46.827  21.478  12.272  1.00  0.00    -0.101 NA
HETATM   24  C28 UNL     1      48.560  19.934  11.534  1.00  0.00     0.060 A
HETATM   25  C27 UNL     1      49.836  19.640  11.136  1.00  0.00     0.055 A
HETATM   26 CL1  UNL     1      47.356  18.648  11.631  1.00  0.00    -0.082 Cl
ENDBRANCH  17  19
ENDBRANCH  15  17
BRANCH  15  27
HETATM   27  O1  UNL     1      52.351  18.820  12.349  1.00  0.00    -0.332 OA
ATOM     28  H1  UNL     1      52.436  17.914  12.074  1.00  0.00     0.220 HD
ENDBRANCH  15  27
ENDBRANCH  13  14
ENDBRANCH  12  13
ENDBRANCH  11  12
ENDBRANCH   8  11
ENDBRANCH   1   7
BRANCH   4  29
HETATM   29  C13 UNL     1      53.602  25.107  13.058  1.00  0.00     0.117 C
BRANCH  29  30
HETATM   30  O3  UNL     1      52.465  25.743  13.118  1.00  0.00    -0.349 OA
ATOM     31  H3  UNL     1      52.485  26.692  13.153  1.00  0.00     0.219 HD
ENDBRANCH  29  30
BRANCH  29  32
HETATM   32  C14 UNL     1      54.534  25.685  12.065  1.00  0.00     0.060 C
HETATM   33  C15 UNL     1      55.881  25.093  12.204  1.00  0.00     0.013 C
HETATM   34  C16 UNL     1      56.931  25.638  11.251  1.00  0.00     0.002 C
HETATM   35  C17 UNL     1      56.552  25.619   9.820  1.00  0.00     0.010 C
HETATM   36  C18 UNL     1      55.757  26.811   9.362  1.00  0.00    -0.037 C
HETATM   37  C19 UNL     1      56.553  28.074   9.621  1.00  0.00     0.037 C
HETATM   38  C22 UNL     1      55.639  26.677   7.854  1.00  0.00     0.037 C
HETATM   39  C23 UNL     1      54.374  26.852   9.922  1.00  0.00     0.010 C
HETATM   40  C20 UNL     1      55.858  29.302   9.091  1.00  0.00     0.233 C
HETATM   41  N6  UNL     1      54.891  28.971   8.062  1.00  0.00    -0.075 N
HETATM   42  C21 UNL     1      55.548  28.031   7.178  1.00  0.00     0.233 C
ATOM     43  H62 UNL     1      54.006  28.628   8.433  1.00  0.00     0.277 HD
ATOM     44  H61 UNL     1      54.516  29.788   7.580  1.00  0.00     0.277 HD
HETATM   45  C24 UNL     1      54.003  25.589  10.662  1.00  0.00     0.013 C
ENDBRANCH  29  32
ENDBRANCH   4  29
TORSDOF 11
ENDMDL