MODEL 5
REMARK VINA RESULT: -8.439908148      3.771      6.768
REMARK  9 active torsions:
REMARK  status: ('A' for Active; 'I' for Inactive)
REMARK    1  A    between atoms: O1_2  and  C2_3
REMARK    2  A    between atoms: C2_3  and  C3_5
REMARK    3  A    between atoms: C7_9  and  C8_10
REMARK    4  A    between atoms: C9_11  and  C10_12
REMARK    5  A    between atoms: C9_11  and  N1_15
REMARK    6  A    between atoms: C10_12  and  O3_13
REMARK       I    between atoms: N1_15  and  C11_17
REMARK       I    between atoms: C11_17  and  N5_25
REMARK       I    between atoms: N2_18  and  C12_20
REMARK    7  A    between atoms: N5_25  and  C13_27
REMARK    8  A    between atoms: C13_27  and  C14_28
REMARK    9  A    between atoms: C26_41  and  O4_42
ROOT
HETATM    1  C8  UNL     1      54.711  20.748  14.799  1.00  0.00     0.012 C
HETATM    2  C9  UNL     1      54.151  20.140  13.667  1.00  0.00     0.047 C
ENDROOT
BRANCH   2   3
HETATM    3  C10 UNL     1      54.349  18.774  13.174  1.00  0.00     0.221 C
BRANCH   3   4
HETATM    4  O3  UNL     1      53.216  18.085  12.766  1.00  0.00    -0.395 OA
ATOM      5  H3  UNL     1      52.806  17.518  13.407  1.00  0.00     0.209 HD
ENDBRANCH   3   4
ENDBRANCH   2   3
BRANCH   2   6
HETATM    6  N1  UNL     1      52.746  20.458  13.316  1.00  0.00    -0.194 N
HETATM    7  C11 UNL     1      52.338  21.681  12.690  1.00  0.00     0.681 C
HETATM    8  N2  UNL     1      53.059  22.742  12.961  1.00  0.00    -0.164 N
HETATM    9  N5  UNL     1      51.232  21.827  11.864  1.00  0.00    -0.222 N
HETATM   10  C12 UNL     1      52.771  24.008  12.414  1.00  0.00     0.200 C
ATOM     11  H2  UNL     1      53.857  22.647  13.589  1.00  0.00     0.187 HD
HETATM   12  N3  UNL     1      53.434  24.431  11.397  1.00  0.00    -0.373 N
HETATM   13  N4  UNL     1      51.775  24.876  12.932  1.00  0.00    -0.063 NA
ATOM     14  H32 UNL     1      54.151  23.807  11.024  1.00  0.00     0.158 HD
ATOM     15  H31 UNL     1      53.225  25.348  11.001  1.00  0.00     0.158 HD
ATOM     16  H5  UNL     1      50.820  22.760  11.839  1.00  0.00     0.178 HD
ATOM     17  H1  UNL     1      52.028  19.766  13.534  1.00  0.00     0.184 HD
BRANCH   9  18
HETATM   18  C13 UNL     1      50.588  20.838  11.036  1.00  0.00     0.176 C
BRANCH  18  19
HETATM   19  C14 UNL     1      49.160  20.622  11.332  1.00  0.00    -0.040 A
HETATM   20  C15 UNL     1      48.369  21.670  11.732  1.00  0.00     0.012 A
HETATM   21  C16 UNL     1      47.020  21.487  12.017  1.00  0.00     0.043 A
HETATM   22  C17 UNL     1      46.476  20.241  11.895  1.00  0.00     0.116 A
HETATM   23  F1  UNL     1      45.161  20.022  12.166  1.00  0.00    -0.206 F
HETATM   24  C18 UNL     1      47.261  19.189  11.495  1.00  0.00     0.043 A
HETATM   25  C19 UNL     1      48.599  19.373  11.214  1.00  0.00     0.012 A
ENDBRANCH  18  19
ENDBRANCH   9  18
ENDBRANCH   2   6
BRANCH   1  26
HETATM   26  C7  UNL     1      54.795  20.634  16.255  1.00  0.00    -0.004 C
HETATM   27  C6  UNL     1      53.323  20.584  16.738  1.00  0.00     0.016 C
HETATM   28  C5  UNL     1      52.756  21.949  16.607  1.00  0.00     0.021 C
HETATM   29  C3  UNL     1      53.834  22.682  17.300  1.00  0.00     0.052 C
HETATM   30  C4  UNL     1      53.479  22.677  18.764  1.00  0.00     0.027 C
HETATM   31  C20 UNL     1      55.102  22.028  16.885  1.00  0.00    -0.016 C
HETATM   32  C21 UNL     1      55.694  22.999  15.856  1.00  0.00     0.018 C
HETATM   33  C22 UNL     1      56.011  22.085  18.019  1.00  0.00     0.012 C
HETATM   34  C23 UNL     1      56.340  20.863  18.776  1.00  0.00     0.013 C
HETATM   35  C24 UNL     1      56.747  19.916  17.741  1.00  0.00    -0.010 C
HETATM   36  C25 UNL     1      57.932  20.353  16.939  1.00  0.00     0.018 C
HETATM   37  C26 UNL     1      57.196  18.616  18.366  1.00  0.00     0.127 C
HETATM   38  C29 UNL     1      55.541  19.533  16.904  1.00  0.00    -0.022 C
HETATM   39  C27 UNL     1      57.130  17.775  17.166  1.00  0.00     0.033 C
HETATM   40  C28 UNL     1      56.288  18.514  16.109  1.00  0.00     0.013 C
HETATM   41  C30 UNL     1      54.613  18.657  17.771  1.00  0.00     0.017 C
BRANCH  29  42
HETATM   42  C2  UNL     1      53.705  24.127  16.911  1.00  0.00     0.267 C
HETATM   43  O2  UNL     1      52.990  24.486  15.910  1.00  0.00    -0.264 OA
BRANCH  42  44
HETATM   44  O1  UNL     1      54.330  25.159  17.588  1.00  0.00    -0.326 OA
HETATM   45  C1  UNL     1      54.477  26.449  16.984  1.00  0.00     0.213 C
ENDBRANCH  42  44
ENDBRANCH  29  42
BRANCH  37  46
HETATM   46  O4  UNL     1      56.625  18.254  19.524  1.00  0.00    -0.395 OA
ATOM     47  H4  UNL     1      55.706  18.012  19.505  1.00  0.00     0.210 HD
ENDBRANCH  37  46
ENDBRANCH   1  26
TORSDOF 9
ENDMDL