MODEL 1
REMARK VINA RESULT: -8.676958007      0.000      0.000
REMARK  11 active torsions:
REMARK  status: ('A' for Active; 'I' for Inactive)
REMARK    1  A    between atoms: C2_2  and  O1_4
REMARK    2  A    between atoms: C2_2  and  C4_6
REMARK    3  A    between atoms: C4_6  and  C5_7
REMARK    4  A    between atoms: C5_7  and  C6_8
REMARK    5  A    between atoms: C6_8  and  C7_9
REMARK    6  A    between atoms: C6_8  and  C13_22
REMARK    7  A    between atoms: C7_9  and  O2_10
REMARK    8  A    between atoms: C7_9  and  N1_12
REMARK    9  A    between atoms: N1_12  and  C8_14
REMARK   10  A    between atoms: C30_41  and  C31_42
REMARK   11  A    between atoms: C31_42  and  O5_43
ROOT
HETATM    1  C13 UNL     1      53.967  22.658  14.043  1.00  0.00    -0.002 C
HETATM    2  C14 UNL     1      52.936  23.548  14.630  1.00  0.00     0.006 C
HETATM    3  C15 UNL     1      52.347  24.339  13.439  1.00  0.00     0.006 C
HETATM    4  C16 UNL     1      53.433  24.350  12.411  1.00  0.00    -0.003 C
HETATM    5  C17 UNL     1      54.580  23.589  13.002  1.00  0.00    -0.005 C
HETATM    6  C18 UNL     1      55.605  24.399  13.693  1.00  0.00     0.009 C
HETATM    7  C19 UNL     1      55.951  25.709  13.054  1.00  0.00     0.045 C
HETATM    8  C20 UNL     1      54.737  26.487  12.739  1.00  0.00     0.121 C
HETATM    9  F1  UNL     1      54.155  26.848  13.951  1.00  0.00    -0.241 F
HETATM   10  C21 UNL     1      53.813  25.701  11.880  1.00  0.00     0.034 C
HETATM   11  C22 UNL     1      54.362  25.528  10.504  1.00  0.00     0.035 C
HETATM   12  C23 UNL     1      55.466  26.458  10.149  1.00  0.00    -0.023 C
HETATM   13  C24 UNL     1      55.800  27.539  10.845  1.00  0.00    -0.069 C
HETATM   14  C25 UNL     1      56.954  28.283  10.249  1.00  0.00     0.042 C
HETATM   15  C26 UNL     1      56.733  29.766  10.181  1.00  0.00     0.082 C
HETATM   16  C27 UNL     1      56.857  30.301  11.567  1.00  0.00     0.127 C
HETATM   17  O4  UNL     1      57.867  30.955  11.776  1.00  0.00    -0.298 OA
HETATM   18  C28 UNL     1      55.892  30.107  12.663  1.00  0.00     0.079 C
HETATM   19  C29 UNL     1      55.669  28.696  13.054  1.00  0.00     0.027 C
HETATM   20  C30 UNL     1      55.003  27.817  12.043  1.00  0.00     0.041 C
ENDROOT
BRANCH   1  21
HETATM   21  C6  UNL     1      53.624  21.330  13.536  1.00  0.00     0.038 C
BRANCH  21  22
HETATM   22  C5  UNL     1      54.497  20.240  14.171  1.00  0.00     0.012 C
BRANCH  22  23
HETATM   23  C4  UNL     1      55.433  19.588  13.232  1.00  0.00     0.037 C
BRANCH  23  24
HETATM   24  C2  UNL     1      54.919  18.278  12.673  1.00  0.00     0.051 C
HETATM   25  C1  UNL     1      55.989  17.208  12.689  1.00  0.00     0.045 C
HETATM   26  C3  UNL     1      54.398  18.386  11.283  1.00  0.00     0.045 C
BRANCH  24  27
HETATM   27  O1  UNL     1      53.863  17.784  13.474  1.00  0.00    -0.391 OA
ATOM     28  H1  UNL     1      53.128  18.368  13.327  1.00  0.00     0.210 HD
ENDBRANCH  24  27
ENDBRANCH  23  24
ENDBRANCH  22  23
ENDBRANCH  21  22
BRANCH  21  29
HETATM   29  C7  UNL     1      52.208  20.880  13.823  1.00  0.00     0.218 C
BRANCH  29  30
HETATM   30  O2  UNL     1      52.216  20.090  15.007  1.00  0.00    -0.377 OA
ATOM     31  H2  UNL     1      51.595  19.379  14.900  1.00  0.00     0.212 HD
ENDBRANCH  29  30
BRANCH  29  32
HETATM   32  N1  UNL     1      51.714  19.953  12.827  1.00  0.00    -0.392 N
ATOM     33  H1  UNL     1      51.983  18.970  12.838  1.00  0.00     0.156 HD
BRANCH  32  34
HETATM   34  C8  UNL     1      50.841  20.470  11.835  1.00  0.00     0.089 C
HETATM   35  C9  UNL     1      49.684  19.619  11.467  1.00  0.00     0.045 C
HETATM   36  C10 UNL     1      48.445  20.445  11.121  1.00  0.00     0.124 C
HETATM   37  N2  UNL     1      48.901  21.630  10.432  1.00  0.00    -0.361 N
HETATM   38  C11 UNL     1      49.758  22.501  11.168  1.00  0.00     0.219 C
ATOM     39  H2  UNL     1      48.626  21.833   9.471  1.00  0.00     0.162 HD
HETATM   40  O3  UNL     1      49.937  23.675  10.829  1.00  0.00    -0.274 OA
HETATM   41  C12 UNL     1      50.399  21.851  12.366  1.00  0.00     0.127 C
ENDBRANCH  32  34
ENDBRANCH  29  32
ENDBRANCH  21  29
ENDBRANCH   1  21
BRANCH  20  42
HETATM   42  C31 UNL     1      53.700  28.437  11.606  1.00  0.00     0.181 C
BRANCH  42  43
HETATM   43  O5  UNL     1      52.888  28.819  12.658  1.00  0.00    -0.400 OA
ATOM     44  H5  UNL     1      52.810  29.761  12.754  1.00  0.00     0.209 HD
ENDBRANCH  42  43
ENDBRANCH  20  42
TORSDOF 11
ENDMDL