MODEL 5
REMARK VINA RESULT: -8.612290974      1.518      2.794
REMARK  8 active torsions:
REMARK  status: ('A' for Active; 'I' for Inactive)
REMARK    1  A    between atoms: N1_2  and  C2_4
REMARK    2  A    between atoms: C2_4  and  C3_5
REMARK    3  A    between atoms: C6_8  and  C7_9
REMARK       I    between atoms: C7_9  and  N2_11
REMARK    4  A    between atoms: N2_11  and  C8_13
REMARK    5  A    between atoms: C11_16  and  C12_17
REMARK    6  A    between atoms: C17_23  and  C18_24
REMARK    7  A    between atoms: C24_35  and  C25_36
REMARK    8  A    between atoms: C25_36  and  C26_37
ROOT
HETATM    1  C7  UNL     1      52.703  24.827  11.503  1.00  0.00     0.268 C
HETATM    2  O1  UNL     1      52.046  25.193  10.498  1.00  0.00    -0.266 OA
HETATM    3  N2  UNL     1      53.993  25.336  11.657  1.00  0.00    -0.342 N
ATOM      4  H2  UNL     1      54.538  25.088  12.484  1.00  0.00     0.163 HD
ENDROOT
BRANCH   1   5
HETATM    5  C6  UNL     1      52.088  23.878  12.453  1.00  0.00     0.093 C
HETATM    6  C5  UNL     1      50.958  23.065  11.971  1.00  0.00     0.010 C
HETATM    7  C4  UNL     1      51.135  21.836  11.202  1.00  0.00     0.060 C
HETATM    8  C3  UNL     1      51.021  20.635  12.102  1.00  0.00     0.126 C
HETATM    9  N5  UNL     1      52.366  20.355  12.574  1.00  0.00    -0.350 N
HETATM   10  C30 UNL     1      53.288  21.150  13.279  1.00  0.00     0.241 C
ATOM     11  H5  UNL     1      52.700  19.416  12.356  1.00  0.00     0.163 HD
HETATM   12  C24 UNL     1      53.220  22.351  14.093  1.00  0.00     0.174 C
HETATM   13  O3  UNL     1      54.459  20.662  13.151  1.00  0.00    -0.271 OA
HETATM   14  N4  UNL     1      52.769  23.554  13.628  1.00  0.00    -0.372 N
ATOM     15  H4  UNL     1      52.961  24.346  14.241  1.00  0.00     0.160 HD
BRANCH   8  16
HETATM   16  C2  UNL     1      50.298  19.455  11.604  1.00  0.00     0.080 C
BRANCH  16  17
HETATM   17  N1  UNL     1      49.108  19.592  10.877  1.00  0.00    -0.405 N
HETATM   18  C1  UNL     1      47.887  19.033  11.271  1.00  0.00     0.145 C
ATOM     19  H1  UNL     1      49.133  20.130  10.011  1.00  0.00     0.158 HD
ENDBRANCH  16  17
ENDBRANCH   8  16
BRANCH  12  20
HETATM   20  C25 UNL     1      52.548  21.956  15.401  1.00  0.00     0.043 C
BRANCH  20  21
HETATM   21  C26 UNL     1      53.393  21.839  16.600  1.00  0.00    -0.049 C
HETATM   22  C27 UNL     1      52.815  22.868  17.610  1.00  0.00     0.014 C
HETATM   23  C28 UNL     1      53.289  20.498  17.279  1.00  0.00     0.014 C
HETATM   24  C29 UNL     1      54.821  22.236  16.432  1.00  0.00     0.014 C
ENDBRANCH  20  21
ENDBRANCH  12  20
ENDBRANCH   1   5
BRANCH   3  25
HETATM   25  C8  UNL     1      54.570  26.218  10.650  1.00  0.00     0.177 C
HETATM   26  C9  UNL     1      54.208  27.656  10.791  1.00  0.00     0.041 C
HETATM   27  C10 UNL     1      55.062  28.676  10.118  1.00  0.00     0.061 C
HETATM   28  C11 UNL     1      56.381  28.241   9.620  1.00  0.00     0.026 C
HETATM   29  N3  UNL     1      56.785  26.879   9.816  1.00  0.00    -0.328 N
HETATM   30  C23 UNL     1      55.992  25.920  10.419  1.00  0.00     0.244 C
ATOM     31  H3  UNL     1      57.711  26.601   9.493  1.00  0.00     0.168 HD
HETATM   32  O2  UNL     1      56.501  24.792  10.766  1.00  0.00    -0.271 OA
BRANCH  28  33
HETATM   33  C12 UNL     1      56.935  28.788   8.396  1.00  0.00     0.032 A
HETATM   34  C13 UNL     1      56.440  28.314   7.168  1.00  0.00     0.129 A
HETATM   35  F1  UNL     1      55.377  27.508   7.182  1.00  0.00    -0.205 F
HETATM   36  C14 UNL     1      56.961  28.637   5.952  1.00  0.00     0.043 A
HETATM   37  C15 UNL     1      58.034  29.476   5.892  1.00  0.00     0.004 A
HETATM   38  C16 UNL     1      58.568  29.971   7.060  1.00  0.00     0.009 A
HETATM   39  C17 UNL     1      58.005  29.615   8.311  1.00  0.00    -0.039 A
BRANCH  39  40
HETATM   40  C18 UNL     1      58.693  30.129   9.514  1.00  0.00     0.019 C
HETATM   41  C19 UNL     1      59.980  30.853   9.134  1.00  0.00     0.009 C
HETATM   42  C20 UNL     1      59.812  32.300   9.213  1.00  0.00     0.001 C
HETATM   43  C21 UNL     1      58.353  32.513   9.444  1.00  0.00     0.001 C
HETATM   44  C22 UNL     1      57.887  31.232  10.150  1.00  0.00     0.009 C
ENDBRANCH  39  40
ENDBRANCH  28  33
ENDBRANCH   3  25
TORSDOF 8
ENDMDL