MODEL 4
REMARK VINA RESULT: -8.182602568      3.302      6.102
REMARK  9 active torsions:
REMARK  status: ('A' for Active; 'I' for Inactive)
REMARK    1  A    between atoms: C2_2  and  C4_4
REMARK    2  A    between atoms: C4_4  and  N1_5
REMARK    3  A    between atoms: C4_4  and  C20_32
REMARK    4  A    between atoms: N1_5  and  C5_7
REMARK    5  A    between atoms: C5_7  and  C6_12
REMARK    6  A    between atoms: N2_8  and  O1_10
REMARK    7  A    between atoms: C6_12  and  N3_13
REMARK    8  A    between atoms: C6_12  and  C16_28
REMARK       I    between atoms: N3_13  and  C7_15
REMARK    9  A    between atoms: C7_15  and  C8_17
REMARK       I    between atoms: C20_32  and  N5_34
ROOT
HETATM    1  C5  UNL     1      51.858  24.050  11.594  1.00  0.00     0.149 C
HETATM    2  N2  UNL     1      51.377  24.573  10.536  1.00  0.00    -0.251 N
ATOM      3  H2  UNL     1      51.912  25.343  10.135  1.00  0.00     0.196 HD
ENDROOT
BRANCH   1   4
HETATM    4  N1  UNL     1      51.193  23.003  12.220  1.00  0.00    -0.338 N
ATOM      5  H1  UNL     1      50.902  23.165  13.184  1.00  0.00     0.167 HD
BRANCH   4   6
HETATM    6  C4  UNL     1      50.873  21.746  11.676  1.00  0.00     0.083 C
BRANCH   6   7
HETATM    7  C2  UNL     1      49.631  21.023  11.846  1.00  0.00     0.033 C
HETATM    8  C1  UNL     1      48.452  22.036  11.833  1.00  0.00     0.016 C
HETATM    9  C3  UNL     1      49.287  19.855  10.991  1.00  0.00     0.016 C
ENDBRANCH   6   7
BRANCH   6  10
HETATM   10  C20 UNL     1      52.150  20.879  11.629  1.00  0.00     0.268 C
HETATM   11  O3  UNL     1      52.653  20.757  10.510  1.00  0.00    -0.266 OA
HETATM   12  N5  UNL     1      52.659  20.306  12.791  1.00  0.00    -0.325 N
HETATM   13  C21 UNL     1      53.689  19.446  13.008  1.00  0.00     0.027 C
ATOM     14  H5  UNL     1      52.166  20.584  13.639  1.00  0.00     0.169 HD
HETATM   15  C22 UNL     1      54.837  19.240  12.030  1.00  0.00     0.084 C
HETATM   16  C29 UNL     1      54.316  19.473  14.341  1.00  0.00     0.020 A
HETATM   17  C23 UNL     1      55.284  17.777  12.262  1.00  0.00     0.181 C
HETATM   18  O4  UNL     1      55.024  17.362  13.607  1.00  0.00    -0.350 OA
HETATM   19  C24 UNL     1      55.027  18.285  14.638  1.00  0.00     0.083 A
HETATM   20  C25 UNL     1      55.648  18.113  15.832  1.00  0.00     0.079 A
HETATM   21  C26 UNL     1      55.573  19.138  16.759  1.00  0.00     0.119 A
HETATM   22  F1  UNL     1      56.194  19.001  17.976  1.00  0.00    -0.206 F
HETATM   23  C27 UNL     1      54.869  20.318  16.461  1.00  0.00     0.043 A
HETATM   24  C28 UNL     1      54.244  20.470  15.250  1.00  0.00     0.019 A
ENDBRANCH   6  10
ENDBRANCH   4   6
ENDBRANCH   1   4
BRANCH   1  25
HETATM   25  C6  UNL     1      53.218  24.589  11.926  1.00  0.00     0.065 C
BRANCH  25  26
HETATM   26  N3  UNL     1      53.583  25.557  10.975  1.00  0.00    -0.325 N
HETATM   27  C7  UNL     1      54.812  25.898  10.348  1.00  0.00     0.253 C
HETATM   28  O2  UNL     1      55.841  25.229  10.580  1.00  0.00    -0.271 OA
ATOM     29  H3  UNL     1      52.801  26.136  10.669  1.00  0.00     0.169 HD
BRANCH  27  30
HETATM   30  C8  UNL     1      54.908  27.021   9.410  1.00  0.00     0.277 C
HETATM   31  C9  UNL     1      55.170  28.373  10.052  1.00  0.00     0.043 C
HETATM   32  C10 UNL     1      56.363  29.043   9.366  1.00  0.00     0.007 C
HETATM   33  C11 UNL     1      56.361  29.079   7.903  1.00  0.00    -0.012 C
HETATM   34  C12 UNL     1      57.562  28.271   7.342  1.00  0.00     0.007 C
HETATM   35  C15 UNL     1      55.162  28.481   7.200  1.00  0.00     0.037 C
HETATM   36  C13 UNL     1      56.916  27.208   6.412  1.00  0.00     0.033 C
HETATM   37  C14 UNL     1      55.635  27.001   7.187  1.00  0.00     0.187 C
HETATM   38  N4  UNL     1      56.113  26.750   8.586  1.00  0.00    -0.058 N
ATOM     39  H42 UNL     1      56.939  27.285   8.854  1.00  0.00     0.278 HD
ATOM     40  H41 UNL     1      56.530  25.831   8.733  1.00  0.00     0.278 HD
ENDBRANCH  27  30
ENDBRANCH  25  26
BRANCH  25  41
HETATM   41  C16 UNL     1      53.627  24.814  13.276  1.00  0.00    -0.005 C
HETATM   42  C17 UNL     1      54.243  26.123  13.636  1.00  0.00     0.021 C
HETATM   43  C18 UNL     1      52.521  24.500  14.307  1.00  0.00     0.021 C
HETATM   44  C19 UNL     1      54.722  23.776  13.649  1.00  0.00     0.021 C
ENDBRANCH  25  41
ENDBRANCH   1  25
BRANCH   2  45
HETATM   45  O1  UNL     1      50.264  24.238   9.894  1.00  0.00    -0.288 OA
ATOM     46  H1  UNL     1      49.371  24.478  10.111  1.00  0.00     0.244 HD
ENDBRANCH   2  45
TORSDOF 9
ENDMDL