MODEL 1
REMARK VINA RESULT: -8.843163269      0.000      0.000
REMARK  1 active torsions:
REMARK  status: ('A' for Active; 'I' for Inactive)
REMARK    1  A    between atoms: C17_22  and  C18_23
ROOT
HETATM    1  C1  UNL     1      -5.550  14.928 -11.724  1.00  0.00     0.018 C
HETATM    2  C2  UNL     1      -4.167  14.605 -11.139  1.00  0.00     0.050 C
HETATM    3  C3  UNL     1      -4.337  14.019  -9.779  1.00  0.00     0.047 C
HETATM    4  C4  UNL     1      -4.501  12.545  -9.731  1.00  0.00     0.223 C
HETATM    5  C5  UNL     1      -5.910  12.047  -9.843  1.00  0.00     0.037 C
HETATM    6  C6  UNL     1      -5.767  10.614  -9.363  1.00  0.00     0.032 C
HETATM    7  C7  UNL     1      -4.630  10.699  -8.376  1.00  0.00     0.273 C
HETATM    8  N1  UNL     1      -4.110  12.048  -8.427  1.00  0.00     0.093 N
HETATM    9  C8  UNL     1      -4.627  12.798  -7.328  1.00  0.00     0.273 C
HETATM   10  C9  UNL     1      -3.832  12.474  -6.082  1.00  0.00     0.031 C
HETATM   11  C10 UNL     1      -3.644  13.682  -5.200  1.00  0.00     0.011 C
HETATM   12  C11 UNL     1      -2.539  14.591  -5.642  1.00  0.00     0.105 C
HETATM   13  C12 UNL     1      -1.192  14.111  -5.234  1.00  0.00     0.238 C
HETATM   14  O1  UNL     1      -0.758  13.099  -5.865  1.00  0.00    -0.272 OA
HETATM   15  N2  UNL     1      -0.371  14.653  -4.240  1.00  0.00    -0.256 N
HETATM   16  C13 UNL     1       0.444  13.955  -3.232  1.00  0.00     0.154 C
HETATM   17  C14 UNL     1      -0.039  14.701  -2.008  1.00  0.00     0.044 C
HETATM   18  C15 UNL     1      -0.039  16.127  -2.491  1.00  0.00     0.154 C
HETATM   19  N3  UNL     1      -0.145  16.017  -3.960  1.00  0.00    -0.255 N
HETATM   20  C16 UNL     1      -0.056  17.063  -4.913  1.00  0.00     0.269 C
HETATM   21  O2  UNL     1      -0.808  18.083  -4.647  1.00  0.00    -0.269 OA
HETATM   22  C17 UNL     1       0.751  17.150  -6.129  1.00  0.00     0.282 C
HETATM   23  N4  UNL     1       0.575  16.121  -7.101  1.00  0.00    -0.062 N
ATOM     24  H41 UNL     1      -0.301  15.622  -6.946  1.00  0.00     0.278 HD
ATOM     25  H42 UNL     1       1.233  15.357  -6.943  1.00  0.00     0.278 HD
HETATM   26  C21 UNL     1       0.660  16.603  -8.471  1.00  0.00     0.233 C
HETATM   27  C22 UNL     1       1.391  15.622  -9.319  1.00  0.00     0.027 C
HETATM   28  C23 UNL     1       0.722  15.301 -10.629  1.00  0.00     0.003 C
HETATM   29  C24 UNL     1      -0.753  15.021 -10.470  1.00  0.00     0.020 C
HETATM   30  C25 UNL     1      -1.052  13.688 -11.048  1.00  0.00     0.121 C
HETATM   31  N5  UNL     1      -1.971  13.728 -12.176  1.00  0.00    -0.380 N
ATOM     32  H5  UNL     1      -1.566  13.722 -13.111  1.00  0.00     0.160 HD
HETATM   33  C26 UNL     1      -3.383  13.775 -12.080  1.00  0.00     0.074 C
HETATM   34  N6  UNL     1      -4.073  13.034 -12.882  1.00  0.00    -0.389 N
ATOM     35  H61 UNL     1      -3.532  12.462 -13.529  1.00  0.00     0.157 HD
ATOM     36  H62 UNL     1      -5.090  13.067 -12.812  1.00  0.00     0.157 HD
ENDROOT
BRANCH  22  37
HETATM   37  C18 UNL     1       2.235  17.338  -5.886  1.00  0.00     0.017 C
HETATM   38  C19 UNL     1       2.513  18.445  -4.896  1.00  0.00     0.012 C
HETATM   39  C20 UNL     1       3.013  16.140  -5.566  1.00  0.00     0.012 C
ENDBRANCH  22  37
TORSDOF 1
ENDMDL