MODEL 3
REMARK VINA RESULT: -8.255393965      1.620      2.164
REMARK  4 active torsions:
REMARK  status: ('A' for Active; 'I' for Inactive)
REMARK    1  A    between atoms: C2_2  and  C4_4
REMARK    2  A    between atoms: C17_21  and  N2_22
REMARK    3  A    between atoms: N2_22  and  C18_24
REMARK    4  A    between atoms: C18_24  and  N3_26
ROOT
HETATM    1  C4  UNL     1       0.721  14.562  -5.989  1.00  0.00     0.180 C
HETATM    2  N1  UNL     1       0.000  13.331  -5.739  1.00  0.00    -0.347 N
ATOM      3  H1  UNL     1       0.551  12.536  -5.415  1.00  0.00     0.163 HD
HETATM    4  C5  UNL     1      -1.385  13.118  -5.897  1.00  0.00     0.227 C
HETATM    5  O1  UNL     1      -1.775  12.068  -6.509  1.00  0.00    -0.273 OA
HETATM    6  C6  UNL     1      -2.469  14.006  -5.416  1.00  0.00     0.176 C
HETATM    7  S1  UNL     1      -3.942  13.911  -6.467  1.00  0.00    -0.160 SA
HETATM    8  C7  UNL     1      -4.965  12.483  -6.107  1.00  0.00     0.074 C
HETATM    9  C8  UNL     1      -6.125  12.474  -7.079  1.00  0.00     0.010 C
HETATM   10  C9  UNL     1      -6.087  11.252  -7.962  1.00  0.00     0.001 C
HETATM   11  C10 UNL     1      -4.775  11.092  -8.677  1.00  0.00     0.000 C
HETATM   12  C11 UNL     1      -4.916  11.105 -10.182  1.00  0.00     0.000 C
HETATM   13  C12 UNL     1      -5.126  12.502 -10.730  1.00  0.00     0.000 C
HETATM   14  C13 UNL     1      -3.894  13.039 -11.409  1.00  0.00     0.000 C
HETATM   15  C14 UNL     1      -3.445  14.336 -10.761  1.00  0.00     0.000 C
HETATM   16  C15 UNL     1      -1.928  14.494 -10.870  1.00  0.00     0.004 C
HETATM   17  C16 UNL     1      -1.228  13.746  -9.760  1.00  0.00     0.047 C
HETATM   18  C17 UNL     1      -0.146  14.539  -9.092  1.00  0.00     0.186 C
HETATM   19  N4  UNL     1      -0.689  15.292  -7.987  1.00  0.00    -0.338 N
ATOM     20  H4  UNL     1      -1.634  15.662  -8.094  1.00  0.00     0.164 HD
HETATM   21  C23 UNL     1      -0.021  15.562  -6.766  1.00  0.00     0.242 C
HETATM   22  O2  UNL     1      -0.075  16.741  -6.331  1.00  0.00    -0.271 OA
ENDROOT
BRANCH  18  23
HETATM   23  N2  UNL     1       0.618  15.360 -10.002  1.00  0.00    -0.346 N
ATOM     24  H2  UNL     1       0.626  15.085 -10.984  1.00  0.00     0.164 HD
BRANCH  23  25
HETATM   25  C18 UNL     1       1.342  16.495  -9.655  1.00  0.00     0.171 C
HETATM   26  S2  UNL     1       0.944  17.938 -10.291  1.00  0.00    -0.041 SA
BRANCH  25  27
HETATM   27  N3  UNL     1       2.428  16.413  -8.751  1.00  0.00    -0.358 N
HETATM   28  C19 UNL     1       3.351  15.283  -8.558  1.00  0.00     0.125 C
HETATM   29  C20 UNL     1       4.663  15.904  -8.183  1.00  0.00     0.021 C
HETATM   30  C21 UNL     1       4.401  17.391  -8.047  1.00  0.00     0.021 C
HETATM   31  C22 UNL     1       2.898  17.405  -7.796  1.00  0.00     0.125 C
ENDBRANCH  25  27
ENDBRANCH  23  25
ENDBRANCH  18  23
BRANCH   1  32
HETATM   32  C2  UNL     1       1.353  15.118  -4.744  1.00  0.00     0.009 C
HETATM   33  C1  UNL     1       1.030  14.401  -3.486  1.00  0.00     0.012 C
HETATM   34  C3  UNL     1       2.872  15.025  -4.943  1.00  0.00     0.012 C
ENDBRANCH   1  32
TORSDOF 4
ENDMDL