MODEL 5
REMARK VINA RESULT: -9.055805850      1.901      2.546
REMARK  3 active torsions:
REMARK  status: ('A' for Active; 'I' for Inactive)
REMARK    1  A    between atoms: C1_2  and  C2_3
REMARK       I    between atoms: C1_2  and  N3_27
REMARK    2  A    between atoms: C2_3  and  C3_4
REMARK    3  A    between atoms: N3_27  and  N4_29
REMARK       I    between atoms: N4_29  and  C21_31
REMARK       I    between atoms: C21_31  and  N5_33
ROOT
HETATM    1  C3  UNL     1      -1.268  13.199  -6.598  1.00  0.00     0.066 C
HETATM    2  C4  UNL     1      -1.071  14.357  -7.547  1.00  0.00     0.013 C
HETATM    3  C5  UNL     1       0.320  14.911  -7.570  1.00  0.00     0.001 C
HETATM    4  C6  UNL     1       0.321  16.221  -8.349  1.00  0.00     0.000 C
HETATM    5  C7  UNL     1       1.421  17.152  -7.926  1.00  0.00     0.000 C
HETATM    6  C8  UNL     1       0.811  18.522  -7.674  1.00  0.00     0.000 C
HETATM    7  C9  UNL     1       1.319  19.130  -6.375  1.00  0.00     0.002 C
HETATM    8  C10 UNL     1       1.450  18.072  -5.300  1.00  0.00     0.020 C
HETATM    9  C11 UNL     1       1.145  18.620  -3.931  1.00  0.00     0.127 C
HETATM   10  N1  UNL     1       0.694  17.624  -3.004  1.00  0.00    -0.365 N
HETATM   11  C12 UNL     1      -0.599  17.796  -2.489  1.00  0.00     0.063 C
HETATM   12  C13 UNL     1      -1.694  18.018  -3.518  1.00  0.00     0.044 C
HETATM   13  C14 UNL     1      -2.878  17.110  -3.294  1.00  0.00     0.005 C
HETATM   14  C15 UNL     1      -2.538  15.664  -3.231  1.00  0.00     0.003 C
HETATM   15  C16 UNL     1      -1.695  15.180  -4.386  1.00  0.00     0.033 C
HETATM   16  C17 UNL     1      -0.912  13.951  -4.102  1.00  0.00     0.154 C
HETATM   17  N2  UNL     1       0.139  14.071  -3.134  1.00  0.00    -0.345 N
ATOM     18  H2  UNL     1       0.574  13.189  -2.862  1.00  0.00     0.163 HD
HETATM   19  C18 UNL     1       0.665  15.206  -2.501  1.00  0.00     0.257 C
HETATM   20  O2  UNL     1       0.573  15.226  -1.214  1.00  0.00    -0.267 OA
HETATM   21  C19 UNL     1       1.311  16.378  -3.077  1.00  0.00     0.164 C
HETATM   22  C20 UNL     1      -0.458  13.325  -5.370  1.00  0.00     0.154 C
HETATM   23  O3  UNL     1       0.677  12.876  -5.402  1.00  0.00    -0.295 OA
ENDROOT
BRANCH   1  24
HETATM   24  C2  UNL     1      -1.083  11.938  -7.371  1.00  0.00     0.117 C
BRANCH  24  25
HETATM   25  C1  UNL     1      -2.335  11.555  -8.111  1.00  0.00     0.236 C
HETATM   26  O1  UNL     1      -3.045  10.676  -7.603  1.00  0.00    -0.272 OA
HETATM   27  N3  UNL     1      -2.641  12.205  -9.328  1.00  0.00    -0.266 N
ATOM     28  H3  UNL     1      -1.957  12.906  -9.613  1.00  0.00     0.190 HD
BRANCH  27  29
HETATM   29  N4  UNL     1      -3.685  12.061 -10.184  1.00  0.00    -0.249 N
HETATM   30  C21 UNL     1      -5.069  11.987  -9.994  1.00  0.00     0.337 C
HETATM   31  O4  UNL     1      -5.627  12.049  -8.880  1.00  0.00    -0.245 OA
HETATM   32  N5  UNL     1      -5.950  11.829 -11.112  1.00  0.00    -0.333 N
HETATM   33  C22 UNL     1      -7.400  11.709 -11.002  1.00  0.00     0.127 C
HETATM   34  C25 UNL     1      -5.579  11.773 -12.509  1.00  0.00     0.127 C
HETATM   35  C23 UNL     1      -7.934  11.786 -12.395  1.00  0.00     0.022 C
HETATM   36  C24 UNL     1      -6.797  12.426 -13.156  1.00  0.00     0.022 C
ATOM     37  H4  UNL     1      -3.404  11.994 -11.162  1.00  0.00     0.192 HD
ENDBRANCH  27  29
ENDBRANCH  24  25
ENDBRANCH   1  24
TORSDOF 3
ENDMDL