MODEL 4
REMARK VINA RESULT: -7.912458435      4.429      8.339
REMARK  1 active torsions:
REMARK  status: ('A' for Active; 'I' for Inactive)
REMARK    1  A    between atoms: C1_2  and  C2_4
ROOT
HETATM    1  C2  UNL     1      -2.342  14.005  -4.181  1.00  0.00     0.282 C
HETATM    2  C3  UNL     1      -2.473  14.921  -5.377  1.00  0.00     0.251 C
HETATM    3  O2  UNL     1      -3.595  15.028  -5.938  1.00  0.00    -0.271 OA
HETATM    4  N2  UNL     1      -1.387  15.669  -5.899  1.00  0.00    -0.359 N
ATOM      5  H2  UNL     1      -1.575  16.620  -6.217  1.00  0.00     0.162 HD
HETATM    6  C4  UNL     1      -0.027  15.177  -6.012  1.00  0.00     0.122 C
HETATM    7  C5  UNL     1       0.318  15.113  -7.493  1.00  0.00     0.020 C
HETATM    8  C6  UNL     1       1.656  15.735  -7.776  1.00  0.00     0.002 C
HETATM    9  C7  UNL     1       1.530  17.237  -7.900  1.00  0.00     0.000 C
HETATM   10  C8  UNL     1       2.398  17.769  -9.007  1.00  0.00     0.000 C
HETATM   11  C9  UNL     1       1.570  18.407 -10.101  1.00  0.00     0.000 C
HETATM   12  C10 UNL     1       0.849  19.638  -9.612  1.00  0.00     0.000 C
HETATM   13  C11 UNL     1       1.751  20.673  -9.025  1.00  0.00     0.000 C
HETATM   14  C12 UNL     1       1.519  20.803  -7.526  1.00  0.00     0.000 C
HETATM   15  C13 UNL     1       1.512  22.252  -7.090  1.00  0.00     0.000 C
HETATM   16  C14 UNL     1       0.259  22.595  -6.304  1.00  0.00     0.000 C
HETATM   17  C15 UNL     1      -0.012  21.602  -5.215  1.00  0.00     0.000 C
HETATM   18  C16 UNL     1      -0.217  22.271  -3.875  1.00  0.00     0.000 C
HETATM   19  C17 UNL     1      -1.609  22.113  -3.346  1.00  0.00     0.000 C
HETATM   20  C18 UNL     1      -1.739  21.017  -2.315  1.00  0.00     0.000 C
HETATM   21  C19 UNL     1      -1.327  19.675  -2.863  1.00  0.00     0.000 C
HETATM   22  C20 UNL     1      -1.316  18.687  -1.728  1.00  0.00     0.000 C
HETATM   23  C21 UNL     1      -2.623  18.000  -1.501  1.00  0.00     0.007 C
HETATM   24  C22 UNL     1      -2.387  16.489  -1.485  1.00  0.00     0.010 C
HETATM   25  C23 UNL     1      -2.441  16.044  -2.928  1.00  0.00     0.149 C
HETATM   26  N3  UNL     1      -2.902  14.681  -3.062  1.00  0.00    -0.302 N
HETATM   27  N4  UNL     1      -2.971  14.005  -1.875  1.00  0.00    -0.271 N
ATOM     28  H4  UNL     1      -3.856  13.530  -1.698  1.00  0.00     0.189 HD
HETATM   29  C24 UNL     1      -1.993  13.866  -0.850  1.00  0.00     0.240 C
HETATM   30  O3  UNL     1      -2.098  12.776  -0.219  1.00  0.00    -0.271 OA
HETATM   31  C25 UNL     1      -0.905  14.788  -0.434  1.00  0.00     0.084 A
HETATM   32  C26 UNL     1       0.003  15.423  -1.386  1.00  0.00     0.020 A
HETATM   33  C27 UNL     1      -1.098  16.196  -0.795  1.00  0.00     0.005 A
ENDROOT
BRANCH   1  34
HETATM   34  C1  UNL     1      -2.904  12.681  -4.475  1.00  0.00     0.264 C
HETATM   35  N1  UNL     1      -3.978  12.058  -3.786  1.00  0.00    -0.060 NA
HETATM   36  O1  UNL     1      -2.427  11.971  -5.428  1.00  0.00    -0.274 OA
ENDBRANCH   1  34
TORSDOF 1
ENDMDL