MODEL 5
REMARK VINA RESULT: -6.415006094      1.774      2.364
REMARK  3 active torsions:
REMARK  status: ('A' for Active; 'I' for Inactive)
REMARK    1  A    between atoms: C3_5  and  N2_6
REMARK       I    between atoms: N2_6  and  C4_8
REMARK    2  A    between atoms: C18_28  and  C19_29
REMARK    3  A    between atoms: C25_35  and  O4_36
ROOT
HETATM    1  C1  UNL     1       0.892  21.271  -6.626  1.00  0.00     0.161 C
HETATM    2  N1  UNL     1       1.368  19.847  -6.533  1.00  0.00    -0.303 N
HETATM    3  C2  UNL     1       2.468  19.588  -7.395  1.00  0.00     0.248 C
HETATM    4  O1  UNL     1       3.308  20.561  -7.548  1.00  0.00    -0.271 OA
HETATM    5  C3  UNL     1       2.822  18.383  -8.158  1.00  0.00     0.178 C
HETATM    6  C5  UNL     1       2.745  18.742  -9.633  1.00  0.00     0.035 C
HETATM    7  C6  UNL     1       1.420  18.358 -10.239  1.00  0.00     0.002 C
HETATM    8  C7  UNL     1       1.116  16.896  -9.991  1.00  0.00     0.000 C
HETATM    9  C8  UNL     1       0.482  16.261 -11.189  1.00  0.00     0.000 C
HETATM   10  C9  UNL     1       0.243  14.794 -10.800  1.00  0.00     0.002 C
HETATM   11  C10 UNL     1      -0.615  14.708  -9.558  1.00  0.00     0.030 C
HETATM   12  C11 UNL     1       0.196  14.319  -8.328  1.00  0.00     0.273 C
HETATM   13  N4  UNL     1      -0.499  14.692  -7.111  1.00  0.00     0.102 N
HETATM   14  C12 UNL     1      -1.319  13.612  -6.720  1.00  0.00     0.273 C
HETATM   15  C13 UNL     1      -0.930  12.846  -5.512  1.00  0.00     0.030 C
HETATM   16  C14 UNL     1       0.576  12.767  -5.478  1.00  0.00     0.004 C
HETATM   17  C15 UNL     1       1.109  14.150  -5.331  1.00  0.00     0.046 C
HETATM   18  C16 UNL     1       0.414  15.200  -6.147  1.00  0.00     0.314 C
HETATM   19  C17 UNL     1      -0.294  16.114  -5.220  1.00  0.00     0.252 C
HETATM   20  O3  UNL     1      -1.579  15.991  -5.292  1.00  0.00    -0.271 OA
HETATM   21  N5  UNL     1       0.193  17.041  -4.320  1.00  0.00    -0.347 N
ATOM     22  H5  UNL     1      -0.116  16.890  -3.360  1.00  0.00     0.163 HD
HETATM   23  C18 UNL     1       1.068  18.196  -4.487  1.00  0.00     0.163 C
HETATM   24  C25 UNL     1       0.708  18.992  -5.660  1.00  0.00     0.143 C
ENDROOT
BRANCH  23  25
HETATM   25  C19 UNL     1       2.506  17.825  -4.302  1.00  0.00     0.016 C
HETATM   26  C20 UNL     1       3.379  18.974  -3.848  1.00  0.00     0.007 C
HETATM   27  C21 UNL     1       3.820  18.797  -2.377  1.00  0.00     0.000 C
HETATM   28  C22 UNL     1       4.712  17.600  -2.201  1.00  0.00     0.000 C
HETATM   29  C23 UNL     1       4.161  16.506  -3.081  1.00  0.00     0.000 C
HETATM   30  C24 UNL     1       2.666  16.749  -3.228  1.00  0.00     0.007 C
ENDBRANCH  23  25
BRANCH  24  31
HETATM   31  O4  UNL     1      -0.561  18.867  -5.963  1.00  0.00    -0.348 OA
ATOM     32  H4  UNL     1      -1.049  18.436  -5.272  1.00  0.00     0.219 HD
ENDBRANCH  24  31
BRANCH   5  33
HETATM   33  N2  UNL     1       4.244  18.130  -7.910  1.00  0.00    -0.332 N
HETATM   34  C4  UNL     1       4.864  16.876  -8.093  1.00  0.00     0.329 C
HETATM   35  N3  UNL     1       6.244  16.708  -7.831  1.00  0.00    -0.040 NA
HETATM   36  O2  UNL     1       4.191  15.898  -8.490  1.00  0.00    -0.251 OA
ATOM     37  H2  UNL     1       4.820  18.907  -7.586  1.00  0.00     0.164 HD
ENDBRANCH   5  33
TORSDOF 3
ENDMDL