MODEL 4
REMARK VINA RESULT: -7.115222561      4.171      7.314
REMARK  6 active torsions:
REMARK  status: ('A' for Active; 'I' for Inactive)
REMARK    1  A    between atoms: C2_2  and  N1_5
REMARK       I    between atoms: N1_5  and  C5_7
REMARK    2  A    between atoms: C5_7  and  C6_9
REMARK    3  A    between atoms: C8_11  and  N2_12
REMARK       I    between atoms: N3_17  and  C10_18
REMARK    4  A    between atoms: C10_18  and  C11_20
REMARK    5  A    between atoms: C13_22  and  C14_23
REMARK       I    between atoms: N4_31  and  C22_32
REMARK       I    between atoms: C22_32  and  N5_34
REMARK    6  A    between atoms: N5_34  and  C23_36
ROOT
HETATM    1  C11 UNL     1       0.807  16.935  -9.391  1.00  0.00     0.181 C
HETATM    2  C12 UNL     1       1.298  17.230 -10.760  1.00  0.00     0.040 C
HETATM    3  C13 UNL     1       0.731  18.475 -11.395  1.00  0.00    -0.005 C
HETATM    4  C18 UNL     1       0.260  19.520 -10.431  1.00  0.00     0.005 C
HETATM    5  C19 UNL     1       1.163  19.870  -9.319  1.00  0.00     0.002 C
HETATM    6  C20 UNL     1       0.651  19.474  -7.933  1.00  0.00     0.020 C
HETATM    7  C21 UNL     1       1.636  18.428  -7.344  1.00  0.00     0.128 C
HETATM    8  N4  UNL     1       1.746  17.383  -8.355  1.00  0.00    -0.321 N
HETATM    9  C22 UNL     1       2.970  16.706  -8.341  1.00  0.00     0.319 C
HETATM   10  O3  UNL     1       3.285  15.801  -9.191  1.00  0.00    -0.247 OA
HETATM   11  N5  UNL     1       3.985  16.946  -7.388  1.00  0.00    -0.335 N
ATOM     12  H5  UNL     1       3.821  17.649  -6.668  1.00  0.00     0.165 HD
ENDROOT
BRANCH   1  13
HETATM   13  C10 UNL     1       0.378  15.537  -9.135  1.00  0.00     0.243 C
HETATM   14  N3  UNL     1      -0.236  15.063  -7.948  1.00  0.00    -0.335 N
HETATM   15  C6  UNL     1      -0.680  13.671  -7.721  1.00  0.00     0.181 C
HETATM   16  C9  UNL     1      -0.581  15.700  -6.705  1.00  0.00     0.159 C
HETATM   17  C7  UNL     1      -0.630  13.414  -6.258  1.00  0.00     0.069 C
HETATM   18  C8  UNL     1      -0.011  14.677  -5.704  1.00  0.00     0.204 C
HETATM   19  O2  UNL     1       0.559  14.634 -10.039  1.00  0.00    -0.271 OA
BRANCH  15  20
HETATM   20  C5  UNL     1      -2.078  13.512  -8.204  1.00  0.00     0.241 C
HETATM   21  N1  UNL     1      -2.464  13.810  -9.531  1.00  0.00    -0.351 N
ATOM     22  H1  UNL     1      -1.748  14.149 -10.174  1.00  0.00     0.163 HD
HETATM   23  O1  UNL     1      -2.980  13.093  -7.421  1.00  0.00    -0.271 OA
BRANCH  21  24
HETATM   24  C2  UNL     1      -3.804  13.666 -10.026  1.00  0.00     0.022 C
HETATM   25  C1  UNL     1      -4.835  14.169  -9.040  1.00  0.00     0.037 C
HETATM   26  C3  UNL     1      -4.139  12.239 -10.408  1.00  0.00     0.037 C
HETATM   27  C4  UNL     1      -3.988  14.507 -11.296  1.00  0.00     0.037 C
ENDBRANCH  21  24
ENDBRANCH  15  20
BRANCH  18  28
HETATM   28  N2  UNL     1       1.413  14.567  -5.815  1.00  0.00    -0.073 N
ATOM     29  H23 UNL     1       1.790  15.121  -6.584  1.00  0.00     0.274 HD
ATOM     30  H22 UNL     1       1.904  15.034  -5.054  1.00  0.00     0.274 HD
ATOM     31  H21 UNL     1       1.653  13.578  -5.890  1.00  0.00     0.274 HD
ENDBRANCH  18  28
ENDBRANCH   1  13
BRANCH   3  32
HETATM   32  C14 UNL     1       1.593  19.015 -12.488  1.00  0.00    -0.048 C
HETATM   33  C15 UNL     1       2.836  19.721 -12.062  1.00  0.00     0.015 C
HETATM   34  C16 UNL     1       2.037  17.880 -13.424  1.00  0.00     0.015 C
HETATM   35  C17 UNL     1       0.822  19.979 -13.391  1.00  0.00     0.015 C
ENDBRANCH   3  32
BRANCH  11  36
HETATM   36  C23 UNL     1       5.254  16.237  -7.389  1.00  0.00     0.023 C
HETATM   37  C24 UNL     1       5.852  16.339  -6.004  1.00  0.00     0.037 C
HETATM   38  C25 UNL     1       5.084  14.778  -7.717  1.00  0.00     0.037 C
HETATM   39  C26 UNL     1       6.243  16.833  -8.364  1.00  0.00     0.037 C
ENDBRANCH  11  36
TORSDOF 6
ENDMDL