MODEL 1
REMARK VINA RESULT: -9.306932970      0.000      0.000
REMARK  8 active torsions:
REMARK  status: ('A' for Active; 'I' for Inactive)
REMARK    1  A    between atoms: C3_3  and  C4_4
REMARK    2  A    between atoms: C3_3  and  N7_36
REMARK    3  A    between atoms: C6_6  and  N1_7
REMARK       I    between atoms: N1_7  and  C7_9
REMARK    4  A    between atoms: C7_9  and  C8_11
REMARK    5  A    between atoms: C12_16  and  N2_17
REMARK    6  A    between atoms: N2_17  and  C13_19
REMARK    7  A    between atoms: C13_19  and  O2_23
REMARK    8  A    between atoms: O2_23  and  C15_24
REMARK       I    between atoms: N7_36  and  C22_38
ROOT
HETATM    1  C8  UNL     1      -0.012  15.050  -9.504  1.00  0.00     0.034 A
HETATM    2  C9  UNL     1      -0.129  15.275  -8.156  1.00  0.00     0.018 A
HETATM    3  C10 UNL     1      -1.163  14.660  -7.491  1.00  0.00     0.022 A
HETATM    4  C11 UNL     1      -2.067  13.832  -8.177  1.00  0.00     0.035 A
HETATM    5  S1  UNL     1      -3.441  12.910  -7.755  1.00  0.00    -0.052 SA
HETATM    6  C12 UNL     1      -3.802  12.287  -9.302  1.00  0.00     0.152 A
HETATM    7  N4  UNL     1      -2.857  12.811 -10.071  1.00  0.00    -0.335 N
ATOM      8  H4  UNL     1      -2.824  12.605 -11.070  1.00  0.00     0.168 HD
HETATM    9  C19 UNL     1      -1.968  13.596  -9.522  1.00  0.00     0.052 A
HETATM   10  C20 UNL     1      -0.894  14.245 -10.160  1.00  0.00     0.048 A
ENDROOT
BRANCH   1  11
HETATM   11  C7  UNL     1       1.097  15.698 -10.265  1.00  0.00     0.257 C
HETATM   12  N1  UNL     1       1.000  15.846 -11.662  1.00  0.00    -0.308 N
ATOM     13  H1  UNL     1       0.942  15.023 -12.262  1.00  0.00     0.170 HD
HETATM   14  O1  UNL     1       2.125  16.119  -9.683  1.00  0.00    -0.267 OA
BRANCH  12  15
HETATM   15  C6  UNL     1       0.986  17.025 -12.178  1.00  0.00     0.124 A
HETATM   16  C5  UNL     1       1.281  17.395 -13.457  1.00  0.00     0.083 A
HETATM   17  C4  UNL     1       1.132  18.790 -13.577  1.00  0.00     0.078 A
HETATM   18  N6  UNL     1       0.753  19.189 -12.354  1.00  0.00    -0.297 N
HETATM   19  N5  UNL     1       0.669  18.138 -11.531  1.00  0.00    -0.285 N
ATOM     20  H6  UNL     1       0.557  20.154 -12.089  1.00  0.00     0.187 HD
ATOM     21  H5  UNL     1       0.399  18.186 -10.549  1.00  0.00     0.188 HD
BRANCH  17  22
HETATM   22  C3  UNL     1       1.376  19.547 -14.784  1.00  0.00     0.060 C
HETATM   23  C2  UNL     1       2.452  20.147 -15.110  1.00  0.00     0.001 C
HETATM   24  C1  UNL     1       3.703  20.236 -14.378  1.00  0.00     0.038 C
BRANCH  22  25
HETATM   25  N7  UNL     1       0.265  19.622 -15.725  1.00  0.00    -0.321 N
HETATM   26  C21 UNL     1      -0.812  20.532 -15.470  1.00  0.00     0.159 C
HETATM   27  C22 UNL     1       0.256  18.782 -16.867  1.00  0.00     0.220 C
HETATM   28  C23 UNL     1       1.376  17.844 -17.080  1.00  0.00     0.117 C
HETATM   29  O3  UNL     1      -0.712  18.867 -17.658  1.00  0.00    -0.274 OA
ENDBRANCH  22  25
ENDBRANCH  17  22
ENDBRANCH  12  15
ENDBRANCH   1  11
BRANCH   6  30
HETATM   30  N2  UNL     1      -4.778  11.480  -9.668  1.00  0.00    -0.302 N
ATOM     31  H2  UNL     1      -4.679  10.473  -9.534  1.00  0.00     0.171 HD
BRANCH  30  32
HETATM   32  C13 UNL     1      -5.952  11.995 -10.241  1.00  0.00     0.221 C
HETATM   33  N3  UNL     1      -7.061  11.346 -10.229  1.00  0.00    -0.360 N
HETATM   34  C14 UNL     1      -7.122  10.040  -9.610  1.00  0.00     0.150 C
ATOM     35  H3  UNL     1      -7.896  11.751 -10.654  1.00  0.00     0.162 HD
BRANCH  32  36
HETATM   36  O2  UNL     1      -5.921  13.240 -10.838  1.00  0.00    -0.312 OA
BRANCH  36  37
HETATM   37  C15 UNL     1      -5.828  13.448 -12.220  1.00  0.00     0.060 C
HETATM   38  C16 UNL     1      -7.254  13.465 -12.772  1.00  0.00     0.046 C
HETATM   39  C17 UNL     1      -5.102  12.332 -12.941  1.00  0.00     0.046 C
HETATM   40  C18 UNL     1      -5.159  14.779 -12.467  1.00  0.00     0.046 C
ENDBRANCH  36  37
ENDBRANCH  32  36
ENDBRANCH  30  32
ENDBRANCH   6  30
TORSDOF 8
ENDMDL