MODEL 3
REMARK VINA RESULT: -11.407216790      0.830      1.180
REMARK  2 active torsions:
REMARK  status: ('A' for Active; 'I' for Inactive)
REMARK    1  A    between atoms: C17_20  and  N2_21
REMARK       I    between atoms: N2_21  and  C18_23
REMARK    2  A    between atoms: C18_23  and  C19_25
ROOT
HETATM    1  C1  UNL     1      -0.495  19.052  -4.622  1.00  0.00     0.044 C
HETATM    2  C2  UNL     1      -0.094  18.587  -5.793  1.00  0.00     0.045 A
HETATM    3  N1  UNL     1       0.339  19.315  -6.774  1.00  0.00    -0.355 N
ATOM      4  H1  UNL     1       0.416  20.332  -6.759  1.00  0.00     0.166 HD
HETATM    5  C3  UNL     1       0.677  18.519  -7.828  1.00  0.00     0.045 A
HETATM    6  C4  UNL     1       1.006  18.985  -9.081  1.00  0.00     0.030 A
HETATM    7  C5  UNL     1       1.124  18.035 -10.043  1.00  0.00     0.003 A
HETATM    8  C6  UNL     1       0.932  16.773  -9.692  1.00  0.00     0.013 A
HETATM    9  C7  UNL     1       0.611  16.179  -8.491  1.00  0.00    -0.010 A
HETATM   10  C8  UNL     1       0.227  14.938  -8.454  1.00  0.00    -0.002 A
HETATM   11  C9  UNL     1       0.024  14.082  -7.318  1.00  0.00    -0.010 A
HETATM   12  C10 UNL     1       1.162  14.160  -6.360  1.00  0.00     0.013 A
HETATM   13  C11 UNL     1       1.288  13.289  -5.349  1.00  0.00     0.001 A
HETATM   14  C12 UNL     1       0.380  12.277  -5.131  1.00  0.00     0.001 A
HETATM   15  C13 UNL     1      -0.668  12.202  -6.017  1.00  0.00     0.016 A
HETATM   16  C14 UNL     1      -0.808  13.090  -7.068  1.00  0.00     0.026 A
HETATM   17  C15 UNL     1      -1.770  12.730  -8.148  1.00  0.00     0.196 A
HETATM   18  O1  UNL     1      -2.543  11.808  -7.907  1.00  0.00    -0.286 OA
HETATM   19  C16 UNL     1      -1.665  13.519  -9.357  1.00  0.00     0.053 A
HETATM   20  C17 UNL     1      -2.593  13.156 -10.381  1.00  0.00     0.050 A
HETATM   21  C24 UNL     1      -2.617  13.811 -11.594  1.00  0.00     0.030 A
HETATM   22  C25 UNL     1      -1.763  14.819 -11.840  1.00  0.00     0.003 A
HETATM   23  C26 UNL     1      -0.854  15.167 -10.818  1.00  0.00     0.013 A
HETATM   24  C27 UNL     1      -0.779  14.561  -9.614  1.00  0.00    -0.008 A
HETATM   25  C28 UNL     1       0.451  17.155  -7.479  1.00  0.00     0.025 A
HETATM   26  C29 UNL     1      -0.053  17.232  -6.199  1.00  0.00     0.083 A
HETATM   27  C30 UNL     1      -0.833  16.332  -5.405  1.00  0.00     0.102 C
HETATM   28  N4  UNL     1      -1.535  15.657  -4.741  1.00  0.00    -0.191 NA
ENDROOT
BRANCH  20  29
HETATM   29  N2  UNL     1      -3.615  12.218 -10.081  1.00  0.00    -0.322 N
HETATM   30  C18 UNL     1      -4.965  12.574  -9.881  1.00  0.00     0.261 C
HETATM   31  O2  UNL     1      -5.314  13.766  -9.992  1.00  0.00    -0.267 OA
ATOM     32  H2  UNL     1      -3.359  11.233 -10.006  1.00  0.00     0.169 HD
BRANCH  30  33
HETATM   33  C19 UNL     1      -6.030  11.619  -9.547  1.00  0.00     0.100 A
HETATM   34  C20 UNL     1      -6.217  11.360  -8.184  1.00  0.00     0.024 A
HETATM   35  C21 UNL     1      -7.211  10.505  -7.780  1.00  0.00     0.018 A
HETATM   36  C22 UNL     1      -8.031   9.892  -8.685  1.00  0.00     0.091 A
HETATM   37  N3  UNL     1      -7.829  10.157  -9.981  1.00  0.00    -0.333 N
HETATM   38  C23 UNL     1      -6.867  10.989 -10.413  1.00  0.00     0.261 A
ATOM     39  H3  UNL     1      -8.432   9.707 -10.671  1.00  0.00     0.168 HD
HETATM   40  O3  UNL     1      -6.723  11.198 -11.663  1.00  0.00    -0.267 OA
ENDBRANCH  30  33
ENDBRANCH  20  29
TORSDOF 2
ENDMDL