MODEL 5
REMARK VINA RESULT: -9.224396953      2.594      4.734
REMARK  5 active torsions:
REMARK  status: ('A' for Active; 'I' for Inactive)
REMARK    1  A    between atoms: C3_7  and  C4_8
REMARK    2  A    between atoms: C7_15  and  C8_16
REMARK    3  A    between atoms: C8_16  and  C9_17
REMARK    4  A    between atoms: C9_17  and  C10_18
REMARK    5  A    between atoms: C22_30  and  C23_31
ROOT
HETATM    1  C4  UNL     1      -1.115  14.227  -7.982  1.00  0.00     0.060 C
HETATM    2  C5  UNL     1      -0.882  14.380  -9.335  1.00  0.00     0.260 C
HETATM    3  O3  UNL     1       0.334  14.309  -9.680  1.00  0.00    -0.267 OA
HETATM    4  N2  UNL     1      -1.759  14.595 -10.357  1.00  0.00    -0.288 N
ATOM      5  H2  UNL     1      -1.450  15.212 -11.109  1.00  0.00     0.172 HD
HETATM    6  C6  UNL     1      -3.001  14.068 -10.470  1.00  0.00     0.267 C
HETATM    7  O4  UNL     1      -3.587  14.164 -11.571  1.00  0.00    -0.266 OA
HETATM    8  C7  UNL     1      -3.736  13.409  -9.488  1.00  0.00     0.097 C
HETATM    9  C16 UNL     1      -3.537  13.562  -8.123  1.00  0.00    -0.001 A
HETATM   10  C17 UNL     1      -4.714  13.291  -7.466  1.00  0.00     0.014 A
HETATM   11  C18 UNL     1      -4.718  13.396  -6.091  1.00  0.00     0.001 A
HETATM   12  C19 UNL     1      -3.572  13.761  -5.418  1.00  0.00     0.001 A
HETATM   13  C20 UNL     1      -2.369  14.037  -6.082  1.00  0.00     0.013 A
HETATM   14  C21 UNL     1      -2.362  13.934  -7.448  1.00  0.00    -0.007 A
ENDROOT
BRANCH   1  15
HETATM   15  C3  UNL     1      -0.019  14.379  -7.046  1.00  0.00     0.065 A
HETATM   16  C2  UNL     1       0.628  13.149  -6.498  1.00  0.00     0.260 A
HETATM   17  N1  UNL     1       1.690  13.543  -5.644  1.00  0.00    -0.289 N
HETATM   18  O2  UNL     1       0.297  11.958  -6.744  1.00  0.00    -0.267 OA
HETATM   19  C1  UNL     1       1.681  14.954  -5.677  1.00  0.00     0.260 A
ATOM     20  H1  UNL     1       2.322  12.938  -5.121  1.00  0.00     0.172 HD
HETATM   21  O1  UNL     1       2.456  15.708  -5.066  1.00  0.00    -0.267 OA
HETATM   22  C22 UNL     1       0.583  15.429  -6.576  1.00  0.00     0.061 A
BRANCH  22  23
HETATM   23  C23 UNL     1       0.284  16.817  -6.848  1.00  0.00     0.009 A
HETATM   24  C24 UNL     1      -0.453  17.733  -6.170  1.00  0.00     0.101 A
HETATM   25  N3  UNL     1      -0.424  18.934  -6.800  1.00  0.00    -0.364 N
HETATM   26  C25 UNL     1       0.336  18.828  -7.905  1.00  0.00     0.043 A
ATOM     27  H3  UNL     1      -0.900  19.780  -6.487  1.00  0.00     0.165 HD
HETATM   28  C26 UNL     1       0.668  19.768  -8.857  1.00  0.00     0.030 A
HETATM   29  C30 UNL     1       0.787  17.518  -7.954  1.00  0.00     0.003 A
HETATM   30  C27 UNL     1       1.482  19.413  -9.912  1.00  0.00     0.002 A
HETATM   31  C28 UNL     1       1.956  18.122 -10.002  1.00  0.00     0.001 A
HETATM   32  C29 UNL     1       1.597  17.207  -9.022  1.00  0.00     0.014 A
ENDBRANCH  22  23
ENDBRANCH   1  15
BRANCH   8  33
HETATM   33  C8  UNL     1      -4.769  12.507  -9.915  1.00  0.00    -0.055 C
BRANCH  33  34
HETATM   34  C9  UNL     1      -5.635  11.739 -10.250  1.00  0.00    -0.061 C
BRANCH  34  35
HETATM   35  C10 UNL     1      -6.666  10.809 -10.624  1.00  0.00     0.018 A
HETATM   36  C11 UNL     1      -7.376  10.925 -11.803  1.00  0.00     0.020 A
HETATM   37  C12 UNL     1      -8.363  10.043 -12.168  1.00  0.00     0.001 A
HETATM   38  C13 UNL     1      -8.654   9.001 -11.320  1.00  0.00     0.000 A
HETATM   39  C14 UNL     1      -7.977   8.836 -10.130  1.00  0.00     0.001 A
HETATM   40  C15 UNL     1      -6.993   9.743  -9.801  1.00  0.00     0.020 A
ENDBRANCH  34  35
ENDBRANCH  33  34
ENDBRANCH   8  33
TORSDOF 5
ENDMDL