MODEL 4
REMARK VINA RESULT: -8.843438087      2.007      4.605
REMARK  9 active torsions:
REMARK  status: ('A' for Active; 'I' for Inactive)
REMARK    1  A    between atoms: C3_5  and  N2_6
REMARK       I    between atoms: N2_6  and  C4_8
REMARK    2  A    between atoms: C4_8  and  C5_10
REMARK    3  A    between atoms: C5_10  and  O2_11
REMARK    4  A    between atoms: C5_10  and  N3_13
REMARK       I    between atoms: N3_13  and  C6_15
REMARK       I    between atoms: C6_15  and  N4_17
REMARK    5  A    between atoms: C9_20  and  N5_21
REMARK    6  A    between atoms: N5_21  and  C10_23
REMARK    7  A    between atoms: C10_23  and  N6_25
REMARK    8  A    between atoms: N6_25  and  C11_27
REMARK    9  A    between atoms: C15_31  and  C16_32
ROOT
HETATM    1  C1  UNL     1       0.567  14.162  -2.878  1.00  0.00     0.069 C
HETATM    2  C2  UNL     1      -0.059  14.286  -4.247  1.00  0.00     0.019 A
HETATM    3  N1  UNL     1      -1.380  14.255  -4.346  1.00  0.00    -0.343 N
ATOM      4  H1  UNL     1      -1.887  14.150  -3.468  1.00  0.00     0.167 HD
HETATM    5  C3  UNL     1      -2.134  14.343  -5.441  1.00  0.00     0.143 A
HETATM    6  C9  UNL     1      -1.590  14.492  -6.732  1.00  0.00     0.121 A
HETATM    7  S2  UNL     1       0.104  14.551  -6.809  1.00  0.00    -0.072 SA
HETATM    8  C21 UNL     1       0.845  14.418  -5.274  1.00  0.00     0.003 A
HETATM    9  C22 UNL     1       2.318  14.448  -5.083  1.00  0.00     0.058 C
ENDROOT
BRANCH   6  10
HETATM   10  N5  UNL     1      -2.390  14.608  -7.739  1.00  0.00    -0.324 N
ATOM     11  H5  UNL     1      -3.197  15.219  -7.612  1.00  0.00     0.169 HD
BRANCH  10  12
HETATM   12  C10 UNL     1      -2.266  13.985  -8.984  1.00  0.00     0.177 C
HETATM   13  S1  UNL     1      -0.733  14.165  -9.696  1.00  0.00    -0.040 SA
BRANCH  12  14
HETATM   14  N6  UNL     1      -3.156  13.244  -9.747  1.00  0.00    -0.333 N
ATOM     15  H6  UNL     1      -3.306  12.286  -9.430  1.00  0.00     0.168 HD
BRANCH  14  16
HETATM   16  C11 UNL     1      -3.890  13.621 -10.903  1.00  0.00     0.034 A
HETATM   17  C12 UNL     1      -3.594  14.660 -11.721  1.00  0.00     0.029 A
HETATM   18  C13 UNL     1      -4.352  15.001 -12.850  1.00  0.00     0.003 A
HETATM   19  C14 UNL     1      -5.456  14.242 -13.143  1.00  0.00     0.008 A
HETATM   20  C15 UNL     1      -5.804  13.161 -12.332  1.00  0.00    -0.048 A
HETATM   21  C20 UNL     1      -5.034  12.863 -11.240  1.00  0.00     0.037 A
BRANCH  20  22
HETATM   22  C16 UNL     1      -7.027  12.382 -12.697  1.00  0.00    -0.024 C
HETATM   23  C17 UNL     1      -8.287  13.165 -12.422  1.00  0.00     0.019 C
HETATM   24  C18 UNL     1      -7.092  11.099 -11.878  1.00  0.00     0.019 C
HETATM   25  C19 UNL     1      -7.014  12.039 -14.179  1.00  0.00     0.019 C
ENDBRANCH  20  22
ENDBRANCH  14  16
ENDBRANCH  12  14
ENDBRANCH  10  12
ENDBRANCH   6  10
BRANCH   5  26
HETATM   26  N2  UNL     1      -3.408  14.291  -5.442  1.00  0.00    -0.304 N
HETATM   27  C4  UNL     1      -4.222  13.126  -5.691  1.00  0.00     0.298 C
HETATM   28  O1  UNL     1      -4.087  12.162  -4.900  1.00  0.00    -0.263 OA
ATOM     29  H2  UNL     1      -3.902  15.162  -5.247  1.00  0.00     0.171 HD
BRANCH  27  30
HETATM   30  C5  UNL     1      -5.129  13.145  -6.816  1.00  0.00     0.214 C
BRANCH  30  31
HETATM   31  O2  UNL     1      -5.157  14.289  -7.457  1.00  0.00    -0.342 OA
ATOM     32  H2  UNL     1      -4.821  14.242  -8.345  1.00  0.00     0.219 HD
ENDBRANCH  30  31
BRANCH  30  33
HETATM   33  N3  UNL     1      -5.975  12.177  -7.338  1.00  0.00    -0.285 N
HETATM   34  C6  UNL     1      -5.656  11.011  -8.056  1.00  0.00     0.323 C
HETATM   35  O3  UNL     1      -4.521  10.640  -8.379  1.00  0.00    -0.247 OA
HETATM   36  N4  UNL     1      -6.750  10.159  -8.464  1.00  0.00    -0.343 N
HETATM   37  C7  UNL     1      -8.120  10.500  -8.137  1.00  0.00     0.154 C
HETATM   38  C8  UNL     1      -6.480   8.959  -9.190  1.00  0.00     0.154 C
ATOM     39  H3  UNL     1      -6.970  12.333  -7.177  1.00  0.00     0.172 HD
ENDBRANCH  30  33
ENDBRANCH  27  30
ENDBRANCH   5  26
TORSDOF 9
ENDMDL