MODEL 2
REMARK VINA RESULT: -5.527615875      1.748      4.228
REMARK  1 active torsions:
REMARK  status: ('A' for Active; 'I' for Inactive)
REMARK    1  A    between atoms: C1_2  and  C2_4
ROOT
HETATM    1  C2  UNL     1     -11.844  -6.224  40.932  1.00  0.00     0.115 A
HETATM    2  C3  UNL     1     -12.132  -7.472  40.417  1.00  0.00     0.128 A
HETATM    3  N2  UNL     1     -13.375  -7.828  40.107  1.00  0.00    -0.199 N
ATOM      4  H2  UNL     1     -13.550  -8.759  39.729  1.00  0.00     0.183 HD
HETATM    5  C4  UNL     1     -14.413  -6.977  40.284  1.00  0.00     0.707 A
HETATM    6  N3  UNL     1     -15.740  -7.058  40.065  1.00  0.00    -0.184 N
ATOM      7  H3  UNL     1     -16.224  -7.873  39.687  1.00  0.00     0.185 HD
HETATM    8  C5  UNL     1     -16.333  -5.905  40.421  1.00  0.00     0.216 A
HETATM    9  N4  UNL     1     -15.342  -5.109  40.862  1.00  0.00    -0.272 N
ATOM     10  H4  UNL     1     -15.471  -4.157  41.205  1.00  0.00     0.189 HD
HETATM   11  N5  UNL     1     -14.178  -5.733  40.789  1.00  0.00    -0.046 N
HETATM   12  C6  UNL     1     -12.918  -5.377  41.102  1.00  0.00     0.299 A
HETATM   13  O2  UNL     1     -12.697  -4.231  41.569  1.00  0.00    -0.264 OA
ENDROOT
BRANCH   1  14
HETATM   14  C1  UNL     1     -10.488  -5.843  41.268  1.00  0.00     0.271 C
HETATM   15  N1  UNL     1      -9.946  -6.257  42.514  1.00  0.00    -0.057 NA
HETATM   16  O1  UNL     1      -9.803  -5.160  40.475  1.00  0.00    -0.271 OA
ENDBRANCH   1  14
TORSDOF 1
ENDMDL