MODEL 1
REMARK VINA RESULT: -6.075273810      0.000      0.000
REMARK  3 active torsions:
REMARK  status: ('A' for Active; 'I' for Inactive)
REMARK    1  A    between atoms: O1_1  and  N1_3
REMARK    2  A    between atoms: N1_3  and  N2_5
REMARK    3  A    between atoms: N2_5  and  C1_7
ROOT
HETATM    1  C1  UNL     1     -11.168  -6.146  41.369  1.00  0.00     0.125 C
HETATM    2  C2  UNL     1     -11.601  -7.391  40.919  1.00  0.00     0.055 C
HETATM    3  C3  UNL     1     -12.823  -7.648  40.298  1.00  0.00     0.078 C
HETATM    4  C4  UNL     1     -13.838  -6.754  39.957  1.00  0.00     0.249 C
HETATM    5  O2  UNL     1     -14.622  -7.113  39.042  1.00  0.00    -0.268 OA
HETATM    6  N3  UNL     1     -14.015  -5.560  40.544  1.00  0.00    -0.275 N
ATOM      7  H3  UNL     1     -14.905  -5.115  40.326  1.00  0.00     0.173 HD
HETATM    8  C5  UNL     1     -13.226  -4.845  41.371  1.00  0.00     0.328 C
HETATM    9  O3  UNL     1     -13.710  -3.809  41.907  1.00  0.00    -0.247 OA
HETATM   10  N4  UNL     1     -11.932  -5.097  41.718  1.00  0.00    -0.293 N
ATOM     11  H4  UNL     1     -11.488  -4.403  42.319  1.00  0.00     0.172 HD
ENDROOT
BRANCH   1  12
HETATM   12  N2  UNL     1      -9.881  -6.007  41.453  1.00  0.00    -0.266 N
ATOM     13  H2  UNL     1      -9.272  -6.658  40.960  1.00  0.00     0.190 HD
BRANCH  12  14
HETATM   14  N1  UNL     1      -9.320  -4.977  42.210  1.00  0.00    -0.209 N
ATOM     15  H1  UNL     1      -9.499  -4.000  41.976  1.00  0.00     0.215 HD
BRANCH  14  16
HETATM   16  O1  UNL     1      -8.585  -5.281  43.192  1.00  0.00    -0.274 OA
ATOM     17  H1  UNL     1      -8.832  -4.974  44.057  1.00  0.00     0.246 HD
ENDBRANCH  14  16
ENDBRANCH  12  14
ENDBRANCH   1  12
TORSDOF 3
ENDMDL