MODEL 5
REMARK VINA RESULT: -5.192372903      3.009      4.878
REMARK  1 active torsions:
REMARK  status: ('A' for Active; 'I' for Inactive)
REMARK    1  A    between atoms: C2_7  and  C3_8
ROOT
HETATM    1  O1  UNL     1     -16.505  -6.139  38.783  1.00  0.00    -0.245 OA
HETATM    2  C1  UNL     1     -15.425  -6.098  39.407  1.00  0.00     0.341 A
HETATM    3  N1  UNL     1     -14.989  -4.913  39.878  1.00  0.00    -0.251 N
ATOM      4  H1  UNL     1     -15.545  -4.073  39.719  1.00  0.00     0.191 HD
HETATM    5  N2  UNL     1     -13.865  -4.828  40.534  1.00  0.00    -0.290 N
ATOM      6  H2  UNL     1     -13.580  -3.908  40.869  1.00  0.00     0.187 HD
HETATM    7  C2  UNL     1     -13.049  -5.878  40.803  1.00  0.00     0.140 A
HETATM    8  C6  UNL     1     -13.485  -7.085  40.329  1.00  0.00     0.279 A
HETATM    9  O2  UNL     1     -12.857  -8.138  40.488  1.00  0.00    -0.265 OA
HETATM   10  N5  UNL     1     -14.661  -7.181  39.640  1.00  0.00    -0.272 N
ATOM     11  H5  UNL     1     -14.966  -8.091  39.295  1.00  0.00     0.173 HD
ENDROOT
BRANCH   7  12
HETATM   12  C3  UNL     1     -11.806  -5.715  41.551  1.00  0.00     0.057 C
HETATM   13  N3  UNL     1     -10.932  -6.677  41.712  1.00  0.00    -0.306 N
HETATM   14  N4  UNL     1      -9.852  -6.222  42.471  1.00  0.00    -0.141 NA
ATOM     15  H3  UNL     1     -11.027  -7.620  41.338  1.00  0.00     0.182 HD
HETATM   16  C4  UNL     1      -9.809  -4.802  42.181  1.00  0.00     0.141 C
HETATM   17  C5  UNL     1     -11.310  -4.522  42.237  1.00  0.00     0.078 C
ENDBRANCH   7  12
TORSDOF 1
ENDMDL