MODEL 1
REMARK VINA RESULT: -5.442839320      0.000      0.000
REMARK  2 active torsions:
REMARK  status: ('A' for Active; 'I' for Inactive)
REMARK    1  A    between atoms: N1_1  and  N2_4
REMARK    2  A    between atoms: C1_5  and  C2_6
ROOT
HETATM    1  N2  UNL     1     -11.942  -5.863  41.401  1.00  0.00    -0.190 N
HETATM    2  C1  UNL     1     -10.882  -5.175  41.889  1.00  0.00     0.178 A
HETATM    3  N5  UNL     1      -9.858  -6.043  41.906  1.00  0.00    -0.278 N
ATOM      4  H5  UNL     1      -8.915  -5.819  42.225  1.00  0.00     0.189 HD
HETATM    5  N6  UNL     1     -10.237  -7.230  41.454  1.00  0.00    -0.248 N
ATOM      6  H6  UNL     1      -9.657  -8.065  41.362  1.00  0.00     0.192 HD
HETATM    7  C6  UNL     1     -11.546  -7.111  41.138  1.00  0.00     0.361 A
HETATM    8  O2  UNL     1     -12.301  -8.010  40.669  1.00  0.00    -0.243 OA
ENDROOT
BRANCH   2   9
HETATM    9  C2  UNL     1     -10.929  -3.782  42.288  1.00  0.00     0.148 A
HETATM   10  N3  UNL     1     -11.339  -3.390  43.500  1.00  0.00    -0.357 N
HETATM   11  C3  UNL     1     -11.386  -2.100  43.879  1.00  0.00     0.105 A
ATOM     12  H3  UNL     1     -11.630  -4.104  44.168  1.00  0.00     0.165 HD
HETATM   13  C4  UNL     1     -10.995  -1.147  42.982  1.00  0.00     0.108 A
HETATM   14  N4  UNL     1     -10.579  -1.519  41.759  1.00  0.00    -0.330 N
HETATM   15  C5  UNL     1     -10.535  -2.823  41.383  1.00  0.00     0.276 A
ATOM     16  H4  UNL     1     -10.289  -0.801  41.094  1.00  0.00     0.168 HD
HETATM   17  O1  UNL     1     -10.138  -3.107  40.225  1.00  0.00    -0.266 OA
ENDBRANCH   2   9
BRANCH   1  18
HETATM   18  N1  UNL     1     -13.221  -5.326  41.218  1.00  0.00    -0.333 N
ATOM     19  H12 UNL     1     -13.619  -4.962  40.352  1.00  0.00     0.177 HD
ATOM     20  H11 UNL     1     -13.921  -5.236  41.955  1.00  0.00     0.177 HD
ENDBRANCH   1  18
TORSDOF 2
ENDMDL