MODEL 5
REMARK VINA RESULT: -5.445881405      1.683      4.091
REMARK  0 active torsions:
REMARK  status: ('A' for Active; 'I' for Inactive)
REMARK       I    between atoms: C1_2  and  N2_4
ROOT
HETATM    1  N1  UNL     1      -9.449  -4.792  43.156  1.00  0.00    -0.039 NA
HETATM    2  C1  UNL     1     -10.237  -5.678  42.394  1.00  0.00     0.341 C
HETATM    3  O1  UNL     1      -9.800  -6.833  42.167  1.00  0.00    -0.250 OA
HETATM    4  N2  UNL     1     -11.505  -5.279  41.889  1.00  0.00    -0.246 N
HETATM    5  C2  UNL     1     -12.065  -4.057  42.078  1.00  0.00     0.195 A
HETATM    6  N3  UNL     1     -13.244  -4.099  41.445  1.00  0.00    -0.344 N
ATOM      7  H3  UNL     1     -13.908  -3.325  41.403  1.00  0.00     0.167 HD
HETATM    8  C3  UNL     1     -13.429  -5.290  40.878  1.00  0.00     0.147 A
HETATM    9  C4  UNL     1     -14.435  -5.865  40.125  1.00  0.00     0.277 A
HETATM   10  O2  UNL     1     -15.435  -5.168  39.877  1.00  0.00    -0.266 OA
HETATM   11  N4  UNL     1     -14.374  -7.122  39.661  1.00  0.00    -0.318 N
ATOM     12  H4  UNL     1     -15.129  -7.523  39.106  1.00  0.00     0.169 HD
HETATM   13  C5  UNL     1     -13.267  -7.828  39.960  1.00  0.00     0.185 A
HETATM   14  N5  UNL     1     -12.251  -7.332  40.688  1.00  0.00    -0.336 N
ATOM     15  H5  UNL     1     -11.434  -7.909  40.888  1.00  0.00     0.168 HD
HETATM   16  C6  UNL     1     -12.319  -6.057  41.156  1.00  0.00     0.150 A
ENDROOT
TORSDOF 0
ENDMDL