MODEL 3
REMARK VINA RESULT: -5.075356318      1.456      3.612
REMARK  2 active torsions:
REMARK  status: ('A' for Active; 'I' for Inactive)
REMARK    1  A    between atoms: C3_4  and  C4_5
REMARK    2  A    between atoms: C4_5  and  N2_6
ROOT
HETATM    1  N1  UNL     1     -12.831  -7.911  40.470  1.00  0.00    -0.191 NA
HETATM    2  C1  UNL     1     -12.375  -6.894  40.844  1.00  0.00     0.107 C
HETATM    3  C2  UNL     1     -11.820  -5.647  41.283  1.00  0.00     0.136 A
HETATM    4  C3  UNL     1     -12.492  -4.467  40.994  1.00  0.00     0.063 A
HETATM    5  N3  UNL     1     -11.939  -3.322  41.423  1.00  0.00    -0.331 N
ATOM      6  H3  UNL     1     -12.406  -2.436  41.229  1.00  0.00     0.168 HD
HETATM    7  C5  UNL     1     -10.780  -3.322  42.104  1.00  0.00     0.195 A
HETATM    8  N4  UNL     1     -10.186  -2.093  42.564  1.00  0.00    -0.063 NA
HETATM    9  N5  UNL     1     -10.108  -4.450  42.397  1.00  0.00    -0.296 N
ATOM     10  H5  UNL     1      -9.231  -4.422  42.915  1.00  0.00     0.171 HD
HETATM   11  C6  UNL     1     -10.636  -5.620  41.982  1.00  0.00     0.270 A
HETATM   12  O1  UNL     1     -10.004  -6.696  42.257  1.00  0.00    -0.266 OA
ENDROOT
BRANCH   4  13
HETATM   13  C4  UNL     1     -13.769  -4.507  40.240  1.00  0.00     0.288 C
BRANCH  13  14
HETATM   14  N2  UNL     1     -13.882  -3.261  39.519  1.00  0.00    -0.074 N
ATOM     15  H23 UNL     1     -13.547  -2.460  40.053  1.00  0.00     0.274 HD
ATOM     16  H22 UNL     1     -13.223  -3.189  38.743  1.00  0.00     0.274 HD
ATOM     17  H21 UNL     1     -14.855  -3.166  39.226  1.00  0.00     0.274 HD
ENDBRANCH  13  14
ENDBRANCH   4  13
TORSDOF 2
ENDMDL