MODEL 3
REMARK VINA RESULT: -5.201456316      2.079      5.121
REMARK  2 active torsions:
REMARK  status: ('A' for Active; 'I' for Inactive)
REMARK    1  A    between atoms: N1_1  and  N2_4
REMARK       I    between atoms: N2_4  and  C1_5
REMARK    2  A    between atoms: C1_5  and  C2_7
ROOT
HETATM    1  C2  UNL     1     -12.028  -6.413  40.931  1.00  0.00     0.134 A
HETATM    2  C3  UNL     1     -12.962  -7.279  40.411  1.00  0.00     0.129 A
HETATM    3  N3  UNL     1     -14.179  -6.646  40.410  1.00  0.00    -0.341 N
HETATM    4  C4  UNL     1     -13.990  -5.421  40.916  1.00  0.00     0.101 A
HETATM    5  N4  UNL     1     -12.709  -5.290  41.228  1.00  0.00    -0.338 N
ATOM      6  H4  UNL     1     -12.295  -4.453  41.637  1.00  0.00     0.167 HD
HETATM    7  C5  UNL     1     -15.190  -4.521  40.990  1.00  0.00     0.190 C
HETATM    8  N5  UNL     1     -16.296  -5.228  41.524  1.00  0.00    -0.413 N
ATOM      9  H5  UNL     1     -16.923  -4.809  42.211  1.00  0.00     0.153 HD
HETATM   10  C6  UNL     1     -16.483  -6.564  41.044  1.00  0.00     0.134 C
HETATM   11  C7  UNL     1     -15.499  -7.021  40.016  1.00  0.00     0.149 C
ENDROOT
BRANCH   1  12
HETATM   12  C1  UNL     1     -10.577  -6.695  41.087  1.00  0.00     0.362 C
HETATM   13  N2  UNL     1      -9.824  -5.948  41.933  1.00  0.00    -0.287 NA
HETATM   14  O1  UNL     1     -10.179  -7.671  40.362  1.00  0.00    -0.247 OA
BRANCH  13  15
HETATM   15  N1  UNL     1      -9.086  -5.218  42.760  1.00  0.00    -0.276 N
ATOM     16  H12 UNL     1      -9.654  -5.748  42.099  1.00  0.00     0.191 HD
ATOM     17  H11 UNL     1      -8.518  -4.658  43.396  1.00  0.00     0.191 HD
ENDBRANCH  13  15
ENDBRANCH   1  12
TORSDOF 2
ENDMDL