MODEL 4
REMARK VINA RESULT: -4.720357535      0.620      1.795
REMARK  2 active torsions:
REMARK  status: ('A' for Active; 'I' for Inactive)
REMARK    1  A    between atoms: N1_1  and  C1_4
REMARK    2  A    between atoms: C3_12  and  N5_13
ROOT
HETATM    1  C1  UNL     1     -12.216  -5.787  41.217  1.00  0.00     0.146 A
HETATM    2  N2  UNL     1     -11.729  -7.061  40.967  1.00  0.00    -0.335 N
ATOM      3  H2  UNL     1     -12.312  -7.748  40.488  1.00  0.00     0.168 HD
HETATM    4  C2  UNL     1     -10.498  -7.382  41.356  1.00  0.00     0.199 A
HETATM    5  N3  UNL     1      -9.745  -6.461  41.987  1.00  0.00    -0.294 N
ATOM      6  H3  UNL     1      -8.801  -6.709  42.284  1.00  0.00     0.187 HD
HETATM    7  N4  UNL     1     -10.195  -5.252  42.228  1.00  0.00    -0.282 N
ATOM      8  H4  UNL     1      -9.585  -4.591  42.709  1.00  0.00     0.188 HD
HETATM    9  C3  UNL     1     -11.457  -4.840  41.859  1.00  0.00     0.162 A
ENDROOT
BRANCH   9  10
HETATM   10  N5  UNL     1     -11.847  -3.520  42.122  1.00  0.00    -0.360 N
HETATM   11  C4  UNL     1     -11.293  -2.469  41.211  1.00  0.00     0.143 C
HETATM   12  C5  UNL     1     -11.305  -1.168  41.971  1.00  0.00     0.133 C
HETATM   13  N6  UNL     1     -11.054  -1.276  43.357  1.00  0.00    -0.418 N
HETATM   14  C6  UNL     1     -11.857  -2.213  44.092  1.00  0.00     0.133 C
ATOM     15  H6  UNL     1     -10.336  -0.715  43.816  1.00  0.00     0.153 HD
HETATM   16  C7  UNL     1     -12.714  -2.970  43.094  1.00  0.00     0.143 C
ENDBRANCH   9  10
BRANCH   1  17
HETATM   17  N1  UNL     1     -13.378  -5.569  40.849  1.00  0.00    -0.382 N
ATOM     18  H12 UNL     1     -13.891  -6.212  40.244  1.00  0.00     0.157 HD
ATOM     19  H11 UNL     1     -13.791  -4.694  41.171  1.00  0.00     0.157 HD
ENDBRANCH   1  17
TORSDOF 2
ENDMDL