MODEL 2
REMARK VINA RESULT: -5.038512927      4.222      5.522
REMARK  2 active torsions:
REMARK  status: ('A' for Active; 'I' for Inactive)
REMARK    1  A    between atoms: N1_1  and  C1_4
REMARK    2  A    between atoms: C2_7  and  N3_8
ROOT
HETATM    1  C1  UNL     1     -10.918  -6.499  41.620  1.00  0.00     0.705 A
HETATM    2  N2  UNL     1     -11.573  -5.333  41.732  1.00  0.00    -0.020 N
ATOM      3  H2  UNL     1     -12.557  -5.189  41.510  1.00  0.00     0.203 HD
HETATM    4  C2  UNL     1     -10.723  -4.368  42.188  1.00  0.00     0.710 A
HETATM    5  N5  UNL     1      -9.549  -4.989  42.345  1.00  0.00    -0.117 N
ATOM      6  H5  UNL     1      -8.695  -4.542  42.678  1.00  0.00     0.206 HD
HETATM    7  N6  UNL     1      -9.652  -6.278  42.005  1.00  0.00    -0.118 N
ATOM      8  H6  UNL     1      -8.903  -6.969  42.032  1.00  0.00     0.206 HD
ENDROOT
BRANCH   4   9
HETATM    9  N3  UNL     1     -11.058  -3.006  42.432  1.00  0.00    -0.206 N
HETATM   10  C3  UNL     1     -12.150  -2.701  43.318  1.00  0.00     0.161 C
HETATM   11  C4  UNL     1     -11.709  -1.741  44.429  1.00  0.00     0.143 C
HETATM   12  N4  UNL     1     -10.869  -0.695  43.923  1.00  0.00    -0.358 N
HETATM   13  C5  UNL     1     -10.051  -0.826  42.765  1.00  0.00     0.236 C
ATOM     14  H4  UNL     1     -10.858   0.195  44.421  1.00  0.00     0.162 HD
HETATM   15  O1  UNL     1      -9.115  -0.008  42.566  1.00  0.00    -0.272 OA
HETATM   16  C6  UNL     1     -10.321  -1.938  41.804  1.00  0.00     0.244 C
ENDBRANCH   4   9
BRANCH   1  17
HETATM   17  N1  UNL     1     -11.431  -7.628  41.211  1.00  0.00    -0.233 N
ATOM     18  H12 UNL     1     -11.027  -8.279  40.537  1.00  0.00     0.174 HD
ATOM     19  H11 UNL     1     -12.322  -8.022  41.511  1.00  0.00     0.174 HD
ENDBRANCH   1  17
TORSDOF 2
ENDMDL