MODEL 3
REMARK VINA RESULT: -4.903005672      1.779      4.829
REMARK  2 active torsions:
REMARK  status: ('A' for Active; 'I' for Inactive)
REMARK    1  A    between atoms: N1_1  and  C1_4
REMARK    2  A    between atoms: C3_10  and  N4_11
ROOT
HETATM    1  C1  UNL     1     -14.631  -3.406  39.338  1.00  0.00     0.691 A
HETATM    2  N2  UNL     1     -15.746  -4.149  39.485  1.00  0.00    -0.187 N
ATOM      3  H2  UNL     1     -16.624  -3.845  39.065  1.00  0.00     0.185 HD
HETATM    4  C2  UNL     1     -15.691  -5.303  40.193  1.00  0.00     0.215 A
HETATM    5  N3  UNL     1     -14.523  -5.697  40.745  1.00  0.00    -0.187 N
ATOM      6  H3  UNL     1     -14.492  -6.568  41.277  1.00  0.00     0.185 HD
HETATM    7  C3  UNL     1     -13.396  -4.969  40.612  1.00  0.00     0.695 A
HETATM    8  N6  UNL     1     -13.483  -3.829  39.902  1.00  0.00    -0.022 N
ATOM      9  H6  UNL     1     -12.644  -3.260  39.787  1.00  0.00     0.203 HD
ENDROOT
BRANCH   7  10
HETATM   10  N4  UNL     1     -12.175  -5.387  41.192  1.00  0.00    -0.214 N
HETATM   11  C4  UNL     1     -11.754  -6.734  41.037  1.00  0.00     0.160 C
HETATM   12  C5  UNL     1     -10.471  -7.103  41.666  1.00  0.00     0.134 C
HETATM   13  N5  UNL     1      -9.665  -6.040  42.159  1.00  0.00    -0.418 N
HETATM   14  C6  UNL     1      -9.925  -4.748  41.612  1.00  0.00     0.134 C
ATOM     15  H5  UNL     1      -8.943  -6.193  42.864  1.00  0.00     0.153 HD
HETATM   16  C7  UNL     1     -11.391  -4.425  41.926  1.00  0.00     0.160 C
ENDBRANCH   7  10
BRANCH   1  17
HETATM   17  N1  UNL     1     -14.699  -2.301  38.656  1.00  0.00    -0.234 N
ATOM     18  H12 UNL     1     -13.888  -1.698  38.518  1.00  0.00     0.174 HD
ATOM     19  H11 UNL     1     -15.593  -2.030  38.247  1.00  0.00     0.174 HD
ENDBRANCH   1  17
TORSDOF 2
ENDMDL