MODEL 4
REMARK VINA RESULT: -6.326429728      5.444      9.164
REMARK  7 active torsions:
REMARK  status: ('A' for Active; 'I' for Inactive)
REMARK    1  A    between atoms: C2_2  and  N1_3
REMARK    2  A    between atoms: N1_3  and  C3_5
REMARK    3  A    between atoms: C4_8  and  C5_9
REMARK    4  A    between atoms: C8_14  and  N4_15
REMARK    5  A    between atoms: C11_18  and  C13_20
REMARK    6  A    between atoms: C13_20  and  N5_21
REMARK       I    between atoms: N5_21  and  C14_22
REMARK    7  A    between atoms: C14_22  and  C15_24
ROOT
HETATM    1  C15 UNL     1      -4.913  48.523 -10.398  1.00  0.00     0.190 A
HETATM    2  N6  UNL     1      -4.671  49.407  -9.425  1.00  0.00    -0.322 N
ATOM      3  H6  UNL     1      -5.176  50.293  -9.409  1.00  0.00     0.169 HD
HETATM    4  C16 UNL     1      -3.745  49.130  -8.446  1.00  0.00     0.123 A
HETATM    5  N7  UNL     1      -3.539  49.959  -7.497  1.00  0.00    -0.384 N
ATOM      6  H71 UNL     1      -2.853  49.754  -6.771  1.00  0.00     0.157 HD
ATOM      7  H72 UNL     1      -4.064  50.833  -7.508  1.00  0.00     0.157 HD
HETATM    8  C17 UNL     1      -3.029  47.936  -8.431  1.00  0.00     0.103 A
HETATM    9  C18 UNL     1      -2.036  47.638  -7.443  1.00  0.00     0.104 C
HETATM   10  N8  UNL     1      -1.245  47.395  -6.608  1.00  0.00    -0.191 NA
HETATM   11  C19 UNL     1      -3.317  47.060  -9.462  1.00  0.00     0.116 A
HETATM   12  N9  UNL     1      -4.241  47.395 -10.384  1.00  0.00    -0.345 N
ATOM     13  H9  UNL     1      -4.432  46.722 -11.127  1.00  0.00     0.167 HD
ENDROOT
BRANCH   1  14
HETATM   14  C14 UNL     1      -5.853  48.899 -11.483  1.00  0.00     0.355 C
HETATM   15  N5  UNL     1      -6.737  48.042 -12.077  1.00  0.00    -0.408 NA
HETATM   16  O1  UNL     1      -5.737  50.091 -11.841  1.00  0.00    -0.248 OA
BRANCH  15  17
HETATM   17  C13 UNL     1      -7.640  47.189 -12.692  1.00  0.00     0.233 C
BRANCH  17  18
HETATM   18  C11 UNL     1      -8.118  46.076 -11.738  1.00  0.00     0.002 C
HETATM   19  C10 UNL     1      -9.173  45.246 -12.386  1.00  0.00     0.034 C
HETATM   20  C9  UNL     1     -10.384  46.120 -12.265  1.00  0.00     0.142 C
HETATM   21  N4  UNL     1     -10.271  46.317 -10.798  1.00  0.00    -0.216 N
HETATM   22  C20 UNL     1      -8.931  46.739 -10.615  1.00  0.00     0.153 C
HETATM   23  C12 UNL     1      -6.929  45.397 -11.216  1.00  0.00     0.020 C
BRANCH  21  24
HETATM   24  C8  UNL     1     -11.388  45.994  -9.992  1.00  0.00     0.696 A
HETATM   25  N3  UNL     1     -12.569  46.646 -10.283  1.00  0.00    -0.179 N
HETATM   26  C4  UNL     1     -13.690  46.475  -9.520  1.00  0.00     0.117 A
ATOM     27  H3  UNL     1     -12.606  47.270 -11.088  1.00  0.00     0.185 HD
HETATM   28  N2  UNL     1     -13.688  45.686  -8.470  1.00  0.00    -0.179 N
HETATM   29  C3  UNL     1     -12.502  45.021  -8.170  1.00  0.00     0.694 A
ATOM     30  H2  UNL     1     -14.523  45.564  -7.897  1.00  0.00     0.185 HD
HETATM   31  N10 UNL     1     -11.427  45.205  -8.941  1.00  0.00    -0.022 N
ATOM     32  H10 UNL     1     -10.576  44.698  -8.697  1.00  0.00     0.203 HD
BRANCH  26  33
HETATM   33  C5  UNL     1     -14.885  47.244  -9.899  1.00  0.00     0.054 A
HETATM   34  C6  UNL     1     -16.246  46.943  -9.339  1.00  0.00     0.013 A
HETATM   35  C7  UNL     1     -15.484  48.145  -8.858  1.00  0.00     0.013 A
ENDBRANCH  26  33
BRANCH  29  36
HETATM   36  N1  UNL     1     -12.496  44.272  -7.149  1.00  0.00    -0.226 N
ATOM     37  H1  UNL     1     -11.767  43.564  -7.056  1.00  0.00     0.177 HD
BRANCH  36  38
HETATM   38  C2  UNL     1     -13.502  44.395  -6.103  1.00  0.00     0.133 C
HETATM   39  C1  UNL     1     -12.947  44.020  -4.732  1.00  0.00     0.027 C
ENDBRANCH  36  38
ENDBRANCH  29  36
ENDBRANCH  21  24
ENDBRANCH  17  18
ENDBRANCH  15  17
ENDBRANCH   1  14
TORSDOF 7
ENDMDL