MODEL 4
REMARK VINA RESULT: -6.032468298      3.466      5.991
REMARK  10 active torsions:
REMARK  status: ('A' for Active; 'I' for Inactive)
REMARK    1  A    between atoms: C2_2  and  C3_3
REMARK    2  A    between atoms: C3_3  and  C5_5
REMARK    3  A    between atoms: C7_7  and  N1_8
REMARK    4  A    between atoms: N1_8  and  C8_10
REMARK    5  A    between atoms: C8_10  and  C9_11
REMARK    6  A    between atoms: C9_11  and  N2_12
REMARK    7  A    between atoms: N2_12  and  C10_14
REMARK    8  A    between atoms: C11_17  and  N4_18
REMARK       I    between atoms: N6_24  and  C13_25
REMARK    9  A    between atoms: C13_25  and  C14_27
REMARK   10  A    between atoms: C14_27  and  N7_29
ROOT
HETATM    1  C10 UNL     1      -6.411  51.023 -12.886  1.00  0.00     0.681 A
HETATM    2  N3  UNL     1      -5.980  50.396 -14.011  1.00  0.00    -0.175 N
ATOM      3  H3  UNL     1      -6.343  50.700 -14.914  1.00  0.00     0.186 HD
HETATM    4  C11 UNL     1      -5.106  49.405 -13.976  1.00  0.00     0.147 A
HETATM    5  C12 UNL     1      -4.597  48.971 -12.751  1.00  0.00     0.139 A
HETATM    6  N5  UNL     1      -3.818  48.177 -11.981  1.00  0.00    -0.283 N
ATOM      7  H5  UNL     1      -3.170  47.414 -12.173  1.00  0.00     0.188 HD
HETATM    8  N6  UNL     1      -4.229  48.778 -10.885  1.00  0.00    -0.202 N
HETATM    9  C13 UNL     1      -3.961  48.641  -9.505  1.00  0.00     0.267 C
HETATM   10  O1  UNL     1      -4.551  49.412  -8.669  1.00  0.00    -0.269 OA
HETATM   11  C17 UNL     1      -5.017  49.589 -11.606  1.00  0.00     0.177 A
HETATM   12  N10 UNL     1      -5.924  50.609 -11.718  1.00  0.00    -0.172 N
ATOM     13  H10 UNL     1      -6.242  51.073 -10.867  1.00  0.00     0.186 HD
ENDROOT
BRANCH   1  14
HETATM   14  N2  UNL     1      -7.251  51.972 -12.951  1.00  0.00    -0.224 N
ATOM     15  H2  UNL     1      -7.717  52.269 -12.093  1.00  0.00     0.177 HD
BRANCH  14  16
HETATM   16  C9  UNL     1      -7.575  52.645 -14.168  1.00  0.00     0.157 C
BRANCH  16  17
HETATM   17  C8  UNL     1      -7.544  54.146 -13.900  1.00  0.00     0.140 C
BRANCH  17  18
HETATM   18  N1  UNL     1      -6.574  54.526 -12.943  1.00  0.00    -0.383 N
ATOM     19  H1  UNL     1      -6.808  54.458 -11.952  1.00  0.00     0.160 HD
BRANCH  18  20
HETATM   20  C7  UNL     1      -5.413  54.953 -13.273  1.00  0.00     0.072 A
HETATM   21  C6  UNL     1      -4.416  54.216 -13.855  1.00  0.00     0.062 A
HETATM   22  C5  UNL     1      -3.169  54.677 -14.208  1.00  0.00     0.015 A
HETATM   23  N11 UNL     1      -2.714  55.922 -14.043  1.00  0.00    -0.363 N
HETATM   24  C18 UNL     1      -3.373  56.954 -13.509  1.00  0.00     0.140 A
ATOM     25  H11 UNL     1      -1.761  56.104 -14.359  1.00  0.00     0.165 HD
HETATM   26  S1  UNL     1      -4.955  56.600 -12.999  1.00  0.00    -0.067 SA
BRANCH  22  27
HETATM   27  C3  UNL     1      -2.205  53.704 -14.844  1.00  0.00     0.031 C
HETATM   28  C4  UNL     1      -2.816  52.335 -14.725  1.00  0.00     0.016 C
BRANCH  27  29
HETATM   29  C2  UNL     1      -0.862  53.757 -14.173  1.00  0.00     0.006 C
HETATM   30  C1  UNL     1       0.193  53.392 -15.192  1.00  0.00     0.006 C
ENDBRANCH  27  29
ENDBRANCH  22  27
ENDBRANCH  18  20
ENDBRANCH  17  18
ENDBRANCH  16  17
ENDBRANCH  14  16
ENDBRANCH   1  14
BRANCH   4  31
HETATM   31  N4  UNL     1      -4.701  48.812 -15.048  1.00  0.00    -0.383 N
ATOM     32  H42 UNL     1      -5.112  49.093 -15.939  1.00  0.00     0.157 HD
ATOM     33  H41 UNL     1      -3.989  48.082 -15.026  1.00  0.00     0.157 HD
ENDBRANCH   4  31
BRANCH   9  34
HETATM   34  C14 UNL     1      -3.040  47.662  -8.925  1.00  0.00     0.174 C
HETATM   35  C15 UNL     1      -3.326  46.245  -9.409  1.00  0.00     0.042 C
BRANCH  34  36
HETATM   36  N7  UNL     1      -1.651  47.922  -9.176  1.00  0.00    -0.354 N
HETATM   37  C16 UNL     1      -0.795  47.782  -8.245  1.00  0.00     0.197 C
HETATM   38  N8  UNL     1       0.571  48.034  -8.480  1.00  0.00    -0.067 NA
HETATM   39  N9  UNL     1      -1.196  47.371  -6.953  1.00  0.00    -0.067 NA
ATOM     40  H7  UNL     1      -1.349  48.220 -10.104  1.00  0.00     0.162 HD
ENDBRANCH  34  36
ENDBRANCH   9  34
TORSDOF 10
ENDMDL