MODEL 1
REMARK VINA RESULT: -6.745838775      0.000      0.000
REMARK  9 active torsions:
REMARK  status: ('A' for Active; 'I' for Inactive)
REMARK    1  A    between atoms: C2_2  and  C3_3
REMARK    2  A    between atoms: C3_3  and  C4_4
REMARK    3  A    between atoms: C4_4  and  N1_5
REMARK    4  A    between atoms: C6_10  and  N4_11
REMARK    5  A    between atoms: C9_14  and  N5_15
REMARK    6  A    between atoms: N5_15  and  C10_17
REMARK    7  A    between atoms: C11_20  and  N7_21
REMARK    8  A    between atoms: C12_26  and  N9_27
REMARK    9  A    between atoms: N9_27  and  C13_29
ROOT
HETATM    1  N4  UNL     1      -8.151  47.494 -12.213  1.00  0.00    -0.365 N
HETATM    2  C7  UNL     1      -7.654  48.730 -12.847  1.00  0.00     0.126 C
HETATM    3  C8  UNL     1      -6.733  49.473 -11.909  1.00  0.00     0.045 C
HETATM    4  C9  UNL     1      -5.823  48.527 -11.156  1.00  0.00     0.102 C
HETATM    5  C16 UNL     1      -5.735  47.256 -11.974  1.00  0.00     0.045 C
HETATM    6  C17 UNL     1      -7.124  46.591 -11.824  1.00  0.00     0.126 C
ENDROOT
BRANCH   4   7
HETATM    7  N5  UNL     1      -4.620  49.051 -10.687  1.00  0.00    -0.220 N
ATOM      8  H5  UNL     1      -4.178  49.667 -11.370  1.00  0.00     0.178 HD
BRANCH   7   9
HETATM    9  C10 UNL     1      -3.942  48.955  -9.632  1.00  0.00     0.707 A
HETATM   10  N6  UNL     1      -4.301  49.483  -8.462  1.00  0.00    -0.022 N
HETATM   11  C11 UNL     1      -3.534  49.348  -7.366  1.00  0.00     0.705 A
ATOM     12  H6  UNL     1      -5.176  50.002  -8.397  1.00  0.00     0.203 HD
HETATM   13  N8  UNL     1      -2.389  48.680  -7.409  1.00  0.00    -0.022 N
HETATM   14  C12 UNL     1      -1.979  48.129  -8.556  1.00  0.00     0.707 A
ATOM     15  H8  UNL     1      -1.821  48.587  -6.567  1.00  0.00     0.203 HD
HETATM   16  N10 UNL     1      -2.752  48.273  -9.631  1.00  0.00    -0.021 N
ATOM     17  H10 UNL     1      -2.440  47.852 -10.507  1.00  0.00     0.203 HD
BRANCH  11  18
HETATM   18  N7  UNL     1      -3.906  49.874  -6.237  1.00  0.00    -0.234 N
ATOM     19  H72 UNL     1      -4.645  50.576  -6.246  1.00  0.00     0.174 HD
ATOM     20  H71 UNL     1      -3.463  49.585  -5.365  1.00  0.00     0.174 HD
ENDBRANCH  11  18
BRANCH  14  21
HETATM   21  N9  UNL     1      -0.855  47.465  -8.625  1.00  0.00    -0.221 N
ATOM     22  H9  UNL     1      -0.620  46.790  -7.898  1.00  0.00     0.178 HD
BRANCH  21  23
HETATM   23  C13 UNL     1       0.047  47.681  -9.716  1.00  0.00     0.091 C
HETATM   24  C14 UNL     1       1.424  48.122  -9.205  1.00  0.00     0.032 C
HETATM   25  C15 UNL     1       0.288  46.426 -10.543  1.00  0.00     0.032 C
ENDBRANCH  21  23
ENDBRANCH  14  21
ENDBRANCH   7   9
ENDBRANCH   4   7
BRANCH   1  26
HETATM   26  C6  UNL     1      -9.546  47.366 -12.068  1.00  0.00     0.136 A
HETATM   27  C5  UNL     1     -10.117  46.697 -11.015  1.00  0.00     0.135 A
HETATM   28  N3  UNL     1      -9.604  46.008  -9.895  1.00  0.00    -0.277 N
HETATM   29  C19 UNL     1     -11.495  46.624 -10.944  1.00  0.00     0.153 A
HETATM   30  N2  UNL     1     -10.633  45.917  -8.942  1.00  0.00    -0.018 NA
ATOM     31  H3  UNL     1      -8.657  45.642  -9.795  1.00  0.00     0.184 HD
HETATM   32  N1  UNL     1     -11.786  45.871  -9.749  1.00  0.00    -0.258 N
HETATM   33  N12 UNL     1     -12.293  47.184 -11.870  1.00  0.00    -0.336 N
HETATM   34  C18 UNL     1     -11.730  47.837 -12.897  1.00  0.00     0.183 A
ATOM     35  H12 UNL     1     -13.308  47.114 -11.793  1.00  0.00     0.168 HD
HETATM   36  N11 UNL     1     -10.404  47.912 -12.973  1.00  0.00    -0.337 N
ATOM     37  H11 UNL     1     -10.001  48.415 -13.764  1.00  0.00     0.168 HD
BRANCH  32  38
HETATM   38  C4  UNL     1     -13.037  45.235  -9.517  1.00  0.00     0.148 C
BRANCH  38  39
HETATM   39  C3  UNL     1     -13.466  45.138  -8.081  1.00  0.00     0.021 C
BRANCH  39  40
HETATM   40  C2  UNL     1     -13.067  43.841  -7.434  1.00  0.00    -0.003 C
HETATM   41  C1  UNL     1     -12.696  44.082  -5.989  1.00  0.00     0.005 C
ENDBRANCH  39  40
ENDBRANCH  38  39
ENDBRANCH  32  38
ENDBRANCH   1  26
TORSDOF 9
ENDMDL