MODEL 5
REMARK VINA RESULT: -6.765440493      1.504      2.390
REMARK  7 active torsions:
REMARK  status: ('A' for Active; 'I' for Inactive)
REMARK    1  A    between atoms: C5_9  and  C6_10
REMARK    2  A    between atoms: C6_10  and  N3_11
REMARK    3  A    between atoms: N3_11  and  C7_13
REMARK    4  A    between atoms: C7_13  and  C8_14
REMARK    5  A    between atoms: N4_17  and  C11_18
REMARK    6  A    between atoms: C12_21  and  N6_22
REMARK    7  A    between atoms: C14_29  and  N8_30
ROOT
HETATM    1  C8  UNL     1      -5.709  49.023 -13.187  1.00  0.00     0.118 C
HETATM    2  C9  UNL     1      -6.912  49.208 -12.171  1.00  0.00     0.040 C
HETATM    3  C10 UNL     1      -6.281  48.372 -11.071  1.00  0.00     0.135 C
HETATM    4  N4  UNL     1      -4.883  48.900 -11.050  1.00  0.00    -0.301 N
HETATM    5  C20 UNL     1      -4.671  49.577 -12.286  1.00  0.00     0.234 C
HETATM    6  O2  UNL     1      -3.808  50.423 -12.498  1.00  0.00    -0.272 OA
ENDROOT
BRANCH   4   7
HETATM    7  C11 UNL     1      -4.060  48.602  -9.940  1.00  0.00     0.158 A
HETATM    8  N5  UNL     1      -4.213  49.376  -8.798  1.00  0.00    -0.174 N
HETATM    9  C12 UNL     1      -3.454  49.254  -7.725  1.00  0.00     0.680 A
ATOM     10  H5  UNL     1      -4.953  50.078  -8.788  1.00  0.00     0.186 HD
HETATM   11  N7  UNL     1      -2.490  48.356  -7.707  1.00  0.00    -0.154 N
HETATM   12  C13 UNL     1      -2.297  47.578  -8.782  1.00  0.00     0.290 A
ATOM     13  H7  UNL     1      -1.898  48.253  -6.884  1.00  0.00     0.187 HD
HETATM   14  O1  UNL     1      -1.380  46.744  -8.750  1.00  0.00    -0.265 OA
HETATM   15  C14 UNL     1      -3.090  47.677  -9.948  1.00  0.00     0.145 A
BRANCH   9  16
HETATM   16  N6  UNL     1      -3.720  50.048  -6.727  1.00  0.00    -0.234 N
ATOM     17  H62 UNL     1      -3.628  51.063  -6.772  1.00  0.00     0.174 HD
ATOM     18  H61 UNL     1      -4.032  49.609  -5.861  1.00  0.00     0.174 HD
ENDBRANCH   9  16
BRANCH  15  19
HETATM   19  N8  UNL     1      -2.847  46.741 -10.962  1.00  0.00    -0.370 N
HETATM   20  C15 UNL     1      -3.659  45.501 -10.914  1.00  0.00     0.153 C
HETATM   21  C16 UNL     1      -2.950  44.334 -11.510  1.00  0.00     0.291 C
HETATM   22  N9  UNL     1      -1.525  44.411 -11.522  1.00  0.00     0.087 N
HETATM   23  C17 UNL     1      -0.993  43.318 -12.334  1.00  0.00     0.310 C
HETATM   24  C18 UNL     1      -0.955  45.614 -12.048  1.00  0.00     0.291 C
HETATM   25  C19 UNL     1      -1.917  46.778 -12.049  1.00  0.00     0.153 C
ENDBRANCH  15  19
ENDBRANCH   4   7
BRANCH   1  26
HETATM   26  C7  UNL     1      -6.033  49.657 -14.439  1.00  0.00     0.070 C
BRANCH  26  27
HETATM   27  N3  UNL     1      -5.142  50.531 -15.025  1.00  0.00    -0.397 N
ATOM     28  H3  UNL     1      -4.159  50.282 -15.138  1.00  0.00     0.158 HD
BRANCH  27  29
HETATM   29  C6  UNL     1      -5.646  51.816 -15.476  1.00  0.00     0.161 C
BRANCH  29  30
HETATM   30  C5  UNL     1      -5.590  52.810 -14.399  1.00  0.00     0.007 A
HETATM   31  C2  UNL     1      -4.570  53.559 -13.916  1.00  0.00     0.032 A
HETATM   32  C1  UNL     1      -3.156  53.461 -14.333  1.00  0.00     0.070 C
HETATM   33  N1  UNL     1      -5.033  54.400 -12.937  1.00  0.00    -0.304 N
HETATM   34  N2  UNL     1      -6.309  54.182 -12.815  1.00  0.00    -0.304 N
ATOM     35  H1  UNL     1      -4.479  55.072 -12.404  1.00  0.00     0.186 HD
HETATM   36  C3  UNL     1      -6.713  53.214 -13.689  1.00  0.00     0.032 A
ATOM     37  H2  UNL     1      -6.922  54.666 -12.159  1.00  0.00     0.186 HD
HETATM   38  C4  UNL     1      -8.122  52.819 -13.797  1.00  0.00     0.070 C
ENDBRANCH  29  30
ENDBRANCH  27  29
ENDBRANCH  26  27
ENDBRANCH   1  26
TORSDOF 7
ENDMDL