MODEL 3
REMARK VINA RESULT: -5.833987072      2.394      3.638
REMARK  9 active torsions:
REMARK  status: ('A' for Active; 'I' for Inactive)
REMARK    1  A    between atoms: C3_3  and  N1_4
REMARK    2  A    between atoms: C11_19  and  O3_20
REMARK    3  A    between atoms: C12_24  and  N6_25
REMARK    4  A    between atoms: N6_25  and  C13_27
REMARK    5  A    between atoms: C13_27  and  C14_28
REMARK    6  A    between atoms: C14_28  and  C15_29
REMARK    7  A    between atoms: C15_29  and  C16_30
REMARK    8  A    between atoms: C16_30  and  C17_31
REMARK    9  A    between atoms: C17_31  and  N7_32
ROOT
HETATM    1  C1  UNL     1      -6.880  43.190 -12.147  1.00  0.00     0.054 C
HETATM    2  C2  UNL     1      -5.862  44.244 -11.826  1.00  0.00     0.010 A
HETATM    3  C3  UNL     1      -6.252  45.528 -11.773  1.00  0.00     0.121 A
HETATM    4  N4  UNL     1      -5.359  46.485 -11.490  1.00  0.00    -0.326 N
ATOM      5  H4  UNL     1      -5.679  47.452 -11.453  1.00  0.00     0.169 HD
HETATM    6  C9  UNL     1      -4.061  46.229 -11.252  1.00  0.00     0.141 A
HETATM    7  C10 UNL     1      -3.634  44.899 -11.302  1.00  0.00     0.087 A
HETATM    8  C11 UNL     1      -2.310  44.615 -11.075  1.00  0.00     0.171 A
HETATM    9  N5  UNL     1      -1.463  45.652 -10.811  1.00  0.00    -0.170 N
ATOM     10  H5  UNL     1      -0.476  45.460 -10.643  1.00  0.00     0.186 HD
HETATM   11  C12 UNL     1      -1.904  46.922 -10.769  1.00  0.00     0.683 A
HETATM   12  N8  UNL     1      -3.191  47.228 -10.985  1.00  0.00    -0.172 N
HETATM   13  C18 UNL     1      -3.708  48.577 -10.939  1.00  0.00     0.177 C
HETATM   14  C19 UNL     1      -4.534  43.870 -11.592  1.00  0.00     0.053 A
HETATM   15  N9  UNL     1      -4.274  42.658 -11.661  1.00  0.00    -0.398 N
ATOM     16  H91 UNL     1      -3.306  42.386 -11.490  1.00  0.00     0.156 HD
ATOM     17  H92 UNL     1      -4.931  41.907 -11.873  1.00  0.00     0.156 HD
ENDROOT
BRANCH   3  18
HETATM   18  N1  UNL     1      -7.607  45.957 -12.036  1.00  0.00    -0.283 N
HETATM   19  C4  UNL     1      -8.403  45.883 -10.826  1.00  0.00     0.155 C
HETATM   20  C5  UNL     1      -9.547  46.856 -10.804  1.00  0.00     0.147 C
HETATM   21  N2  UNL     1     -10.585  46.495 -11.758  1.00  0.00    -0.337 N
HETATM   22  C6  UNL     1     -11.861  46.032 -11.225  1.00  0.00     0.154 C
HETATM   23  C7  UNL     1     -10.442  46.561 -13.178  1.00  0.00     0.326 C
HETATM   24  O1  UNL     1     -11.514  46.609 -13.813  1.00  0.00    -0.247 OA
HETATM   25  N3  UNL     1      -9.206  46.576 -13.917  1.00  0.00    -0.260 N
HETATM   26  C8  UNL     1      -7.887  46.354 -13.370  1.00  0.00     0.332 C
ATOM     27  H3  UNL     1      -9.268  46.761 -14.918  1.00  0.00     0.175 HD
HETATM   28  O2  UNL     1      -6.939  46.527 -14.137  1.00  0.00    -0.246 OA
ENDBRANCH   3  18
BRANCH   8  29
HETATM   29  O3  UNL     1      -1.831  43.335 -11.111  1.00  0.00    -0.345 OA
ATOM     30  H3  UNL     1      -2.142  42.666 -10.512  1.00  0.00     0.219 HD
ENDBRANCH   8  29
BRANCH  11  31
HETATM   31  N6  UNL     1      -1.068  47.888 -10.530  1.00  0.00    -0.226 N
ATOM     32  H6  UNL     1      -1.155  48.782 -11.011  1.00  0.00     0.177 HD
BRANCH  31  33
HETATM   33  C13 UNL     1      -0.031  47.672  -9.585  1.00  0.00     0.138 C
BRANCH  33  34
HETATM   34  C14 UNL     1      -0.508  47.277  -8.239  1.00  0.00     0.020 C
BRANCH  34  35
HETATM   35  C15 UNL     1      -1.386  48.238  -7.527  1.00  0.00     0.003 C
BRANCH  35  36
HETATM   36  C16 UNL     1      -2.769  47.796  -7.228  1.00  0.00     0.027 C
BRANCH  36  37
HETATM   37  C17 UNL     1      -3.692  48.987  -7.549  1.00  0.00     0.229 C
BRANCH  37  38
HETATM   38  N7  UNL     1      -3.550  50.046  -6.599  1.00  0.00    -0.079 N
ATOM     39  H73 UNL     1      -3.068  50.847  -7.007  1.00  0.00     0.274 HD
ATOM     40  H72 UNL     1      -4.449  50.484  -6.397  1.00  0.00     0.274 HD
ATOM     41  H71 UNL     1      -3.090  49.734  -5.744  1.00  0.00     0.274 HD
ENDBRANCH  37  38
ENDBRANCH  36  37
ENDBRANCH  35  36
ENDBRANCH  34  35
ENDBRANCH  33  34
ENDBRANCH  31  33
ENDBRANCH  11  31
TORSDOF 9
ENDMDL