MODEL 2
REMARK VINA RESULT: -5.661327239      4.748      6.766
REMARK  8 active torsions:
REMARK  status: ('A' for Active; 'I' for Inactive)
REMARK    1  A    between atoms: N2_6  and  C5_7
REMARK    2  A    between atoms: C5_7  and  C6_8
REMARK    3  A    between atoms: C6_8  and  N3_9
REMARK    4  A    between atoms: N3_9  and  C7_11
REMARK    5  A    between atoms: C7_11  and  C8_13
REMARK    6  A    between atoms: N6_20  and  C11_21
REMARK    7  A    between atoms: C13_23  and  C14_24
REMARK    8  A    between atoms: C14_24  and  N7_25
ROOT
HETATM    1  C8  UNL     1      -4.791  52.021 -13.516  1.00  0.00     0.146 A
HETATM    2  N4  UNL     1      -5.218  53.300 -13.643  1.00  0.00    -0.336 N
ATOM      3  H4  UNL     1      -6.174  53.614 -13.474  1.00  0.00     0.168 HD
HETATM    4  C9  UNL     1      -4.220  54.085 -14.017  1.00  0.00     0.097 A
HETATM    5  C10 UNL     1      -3.818  55.365 -14.339  1.00  0.00     0.141 A
HETATM    6  N5  UNL     1      -2.509  55.361 -14.645  1.00  0.00    -0.301 N
ATOM      7  H5  UNL     1      -1.951  56.170 -14.920  1.00  0.00     0.186 HD
HETATM    8  N6  UNL     1      -2.074  54.111 -14.524  1.00  0.00    -0.234 N
HETATM    9  C17 UNL     1      -3.100  53.298 -14.140  1.00  0.00     0.157 A
HETATM   10  N10 UNL     1      -3.463  52.045 -13.830  1.00  0.00    -0.323 N
ATOM     11  H10 UNL     1      -2.843  51.236 -13.831  1.00  0.00     0.169 HD
ENDROOT
BRANCH   8  12
HETATM   12  C11 UNL     1      -0.764  53.640 -14.745  1.00  0.00     0.102 A
HETATM   13  C12 UNL     1      -0.473  52.782 -15.778  1.00  0.00     0.045 A
HETATM   14  C13 UNL     1       0.838  52.330 -15.986  1.00  0.00    -0.015 A
HETATM   15  C15 UNL     1       1.829  52.764 -15.130  1.00  0.00     0.098 A
HETATM   16  N8  UNL     1       1.516  53.605 -14.126  1.00  0.00    -0.350 N
HETATM   17  C16 UNL     1       0.256  54.043 -13.922  1.00  0.00     0.128 A
ATOM     18  H8  UNL     1       2.256  53.921 -13.499  1.00  0.00     0.166 HD
HETATM   19  N9  UNL     1       0.003  54.841 -12.957  1.00  0.00    -0.384 N
ATOM     20  H92 UNL     1      -0.950  55.172 -12.804  1.00  0.00     0.157 HD
ATOM     21  H91 UNL     1       0.762  55.140 -12.345  1.00  0.00     0.157 HD
BRANCH  14  22
HETATM   22  C14 UNL     1       1.139  51.413 -17.089  1.00  0.00     0.269 C
BRANCH  22  23
HETATM   23  N7  UNL     1       1.245  50.063 -16.572  1.00  0.00    -0.075 N
ATOM     24  H73 UNL     1       2.136  49.627 -16.807  1.00  0.00     0.274 HD
ATOM     25  H72 UNL     1       1.338  50.043 -15.557  1.00  0.00     0.274 HD
ATOM     26  H71 UNL     1       0.448  49.516 -16.898  1.00  0.00     0.274 HD
ENDBRANCH  22  23
ENDBRANCH  14  22
ENDBRANCH   8  12
BRANCH   1  27
HETATM   27  C7  UNL     1      -5.550  50.846 -13.129  1.00  0.00     0.141 C
HETATM   28  S1  UNL     1      -6.388  50.045 -14.260  1.00  0.00    -0.057 SA
BRANCH  27  29
HETATM   29  N3  UNL     1      -5.563  50.405 -11.793  1.00  0.00    -0.376 N
ATOM     30  H3  UNL     1      -6.161  50.855 -11.100  1.00  0.00     0.160 HD
BRANCH  29  31
HETATM   31  C6  UNL     1      -4.703  49.294 -11.423  1.00  0.00     0.151 C
BRANCH  31  32
HETATM   32  C5  UNL     1      -4.541  49.285  -9.936  1.00  0.00     0.292 C
BRANCH  32  33
HETATM   33  N2  UNL     1      -3.510  48.401  -9.484  1.00  0.00     0.091 N
HETATM   34  C4  UNL     1      -2.997  48.861  -8.232  1.00  0.00     0.274 C
HETATM   35  C3  UNL     1      -2.617  47.738  -7.298  1.00  0.00     0.060 C
HETATM   36  C2  UNL     1      -1.337  47.070  -7.750  1.00  0.00     0.273 C
HETATM   37  N1  UNL     1      -0.850  47.771  -8.898  1.00  0.00     0.086 N
HETATM   38  C1  UNL     1       0.575  47.901  -8.941  1.00  0.00     0.309 C
HETATM   39  C19 UNL     1      -1.436  47.243 -10.087  1.00  0.00     0.302 C
HETATM   40  C18 UNL     1      -2.537  48.218 -10.511  1.00  0.00     0.302 C
ENDBRANCH  32  33
ENDBRANCH  31  32
ENDBRANCH  29  31
ENDBRANCH  27  29
ENDBRANCH   1  27
TORSDOF 8
ENDMDL