MODEL 5
REMARK VINA RESULT: -6.419253778      4.249      9.409
REMARK  6 active torsions:
REMARK  status: ('A' for Active; 'I' for Inactive)
REMARK    1  A    between atoms: N3_8  and  C4_10
REMARK    2  A    between atoms: C4_10  and  C5_11
REMARK    3  A    between atoms: C4_10  and  C10_18
REMARK    4  A    between atoms: C5_11  and  N4_12
REMARK    5  A    between atoms: C11_29  and  C12_30
REMARK       I    between atoms: C12_30  and  N10_32
REMARK    6  A    between atoms: N10_32  and  C13_34
ROOT
HETATM    1  N1  UNL     1      -1.707  41.771 -12.699  1.00  0.00    -0.080 NA
HETATM    2  C1  UNL     1      -1.884  43.066 -12.140  1.00  0.00     0.151 A
HETATM    3  N2  UNL     1      -3.103  43.546 -11.838  1.00  0.00    -0.307 N
ATOM      4  H2  UNL     1      -3.942  42.989 -12.002  1.00  0.00     0.170 HD
HETATM    5  C2  UNL     1      -3.189  44.804 -11.303  1.00  0.00     0.290 A
HETATM    6  O1  UNL     1      -4.359  45.200 -11.038  1.00  0.00    -0.264 OA
HETATM    7  C3  UNL     1      -2.095  45.588 -11.064  1.00  0.00     0.172 A
HETATM    8  N3  UNL     1      -2.130  46.735 -10.579  1.00  0.00    -0.358 N
ATOM      9  H3  UNL     1      -1.201  47.144 -10.484  1.00  0.00     0.162 HD
HETATM   10  N9  UNL     1      -0.867  45.033 -11.399  1.00  0.00    -0.331 N
ATOM     11  H9  UNL     1      -0.024  45.584 -11.236  1.00  0.00     0.168 HD
HETATM   12  C11 UNL     1      -0.738  43.821 -11.919  1.00  0.00     0.144 A
ENDROOT
BRANCH   8  13
HETATM   13  C4  UNL     1      -3.137  47.595 -10.134  1.00  0.00     0.171 C
BRANCH  13  14
HETATM   14  C5  UNL     1      -3.209  48.826 -11.015  1.00  0.00     0.158 C
BRANCH  14  15
HETATM   15  N4  UNL     1      -4.567  49.080 -11.448  1.00  0.00    -0.350 N
HETATM   16  C6  UNL     1      -5.716  48.322 -10.981  1.00  0.00     0.126 C
HETATM   17  C7  UNL     1      -6.804  48.712 -11.944  1.00  0.00     0.029 C
HETATM   18  C8  UNL     1      -6.497  50.182 -12.205  1.00  0.00     0.104 C
HETATM   19  C9  UNL     1      -4.994  50.078 -12.358  1.00  0.00     0.219 C
HETATM   20  O2  UNL     1      -4.287  50.747 -13.138  1.00  0.00    -0.273 OA
ENDBRANCH  14  15
ENDBRANCH  13  14
BRANCH  13  21
HETATM   21  C10 UNL     1      -2.936  47.997  -8.700  1.00  0.00     0.137 A
HETATM   22  N5  UNL     1      -2.339  47.304  -7.711  1.00  0.00    -0.270 N
HETATM   23  N6  UNL     1      -2.403  48.064  -6.621  1.00  0.00    -0.227 N
ATOM     24  H5  UNL     1      -1.920  46.377  -7.783  1.00  0.00     0.190 HD
HETATM   25  N7  UNL     1      -3.012  49.205  -6.880  1.00  0.00    -0.227 N
ATOM     26  H6  UNL     1      -2.031  47.801  -5.709  1.00  0.00     0.210 HD
HETATM   27  N8  UNL     1      -3.337  49.149  -8.173  1.00  0.00    -0.270 N
ATOM     28  H7  UNL     1      -3.196  49.969  -6.229  1.00  0.00     0.210 HD
ATOM     29  H8  UNL     1      -3.824  49.885  -8.683  1.00  0.00     0.190 HD
ENDBRANCH  13  21
ENDBRANCH   8  13
BRANCH  12  30
HETATM   30  C12 UNL     1       0.564  43.260 -12.262  1.00  0.00     0.272 C
HETATM   31  O3  UNL     1       1.384  43.961 -12.936  1.00  0.00    -0.266 OA
HETATM   32  N10 UNL     1       0.989  41.965 -11.890  1.00  0.00    -0.351 N
ATOM     33  H10 UNL     1       0.361  41.371 -11.348  1.00  0.00     0.163 HD
BRANCH  32  34
HETATM   34  C13 UNL     1       2.279  41.469 -12.255  1.00  0.00     0.084 C
HETATM   35  C14 UNL     1       2.259  40.599 -13.479  1.00  0.00     0.025 C
HETATM   36  C15 UNL     1       3.558  39.987 -13.825  1.00  0.00     0.002 C
HETATM   37  C16 UNL     1       4.387  39.524 -12.682  1.00  0.00     0.000 C
HETATM   38  C17 UNL     1       4.297  40.387 -11.458  1.00  0.00     0.002 C
HETATM   39  C18 UNL     1       2.862  40.646 -11.125  1.00  0.00     0.025 C
ENDBRANCH  32  34
ENDBRANCH  12  30
TORSDOF 6
ENDMDL