MODEL 3
REMARK VINA RESULT: -5.759226167      1.998      3.314
REMARK  9 active torsions:
REMARK  status: ('A' for Active; 'I' for Inactive)
REMARK    1  A    between atoms: C2_2  and  C4_4
REMARK    2  A    between atoms: C4_4  and  N1_5
REMARK    3  A    between atoms: N1_5  and  C5_7
REMARK    4  A    between atoms: C6_10  and  N3_11
REMARK    5  A    between atoms: C13_21  and  N6_22
REMARK    6  A    between atoms: C14_27  and  N8_28
REMARK    7  A    between atoms: N8_28  and  C15_30
REMARK    8  A    between atoms: C15_30  and  C16_31
REMARK    9  A    between atoms: C16_31  and  C17_32
ROOT
HETATM    1  C5  UNL     1      -7.182  47.982 -11.491  1.00  0.00     0.146 A
HETATM    2  N2  UNL     1      -6.113  47.832 -10.725  1.00  0.00    -0.174 N
ATOM      3  H2  UNL     1      -6.010  46.993 -10.154  1.00  0.00     0.186 HD
HETATM    4  C6  UNL     1      -5.161  48.783 -10.698  1.00  0.00     0.682 A
HETATM    5  N5  UNL     1      -5.240  49.909 -11.428  1.00  0.00    -0.185 N
ATOM      6  H5  UNL     1      -4.499  50.608 -11.383  1.00  0.00     0.184 HD
HETATM    7  C12 UNL     1      -6.308  50.100 -12.217  1.00  0.00     0.124 A
HETATM    8  C13 UNL     1      -6.479  51.217 -12.999  1.00  0.00     0.144 A
HETATM    9  N7  UNL     1      -7.598  51.280 -13.743  1.00  0.00    -0.175 N
ATOM     10  H7  UNL     1      -7.731  52.106 -14.326  1.00  0.00     0.186 HD
HETATM   11  C14 UNL     1      -8.549  50.341 -13.777  1.00  0.00     0.680 A
HETATM   12  N11 UNL     1      -8.404  49.240 -13.022  1.00  0.00    -0.186 N
ATOM     13  H11 UNL     1      -9.113  48.507 -13.028  1.00  0.00     0.184 HD
HETATM   14  C20 UNL     1      -7.305  49.125 -12.259  1.00  0.00     0.124 A
ENDROOT
BRANCH  11  15
HETATM   15  N8  UNL     1      -9.601  50.490 -14.532  1.00  0.00    -0.226 N
ATOM     16  H8  UNL     1      -9.713  51.328 -15.103  1.00  0.00     0.177 HD
BRANCH  15  17
HETATM   17  C15 UNL     1     -10.609  49.448 -14.550  1.00  0.00     0.144 C
BRANCH  17  18
HETATM   18  C16 UNL     1     -11.918  50.114 -14.106  1.00  0.00     0.078 C
BRANCH  18  19
HETATM   19  C17 UNL     1     -12.873  49.012 -13.820  1.00  0.00     0.027 A
HETATM   20  C18 UNL     1     -12.914  47.821 -14.553  1.00  0.00     0.114 A
HETATM   21  N9  UNL     1     -13.877  47.032 -14.056  1.00  0.00    -0.360 N
HETATM   22  C19 UNL     1     -14.430  47.705 -13.038  1.00  0.00     0.180 A
ATOM     23  H9  UNL     1     -14.136  46.102 -14.386  1.00  0.00     0.166 HD
HETATM   24  N10 UNL     1     -13.824  48.906 -12.892  1.00  0.00    -0.355 N
ATOM     25  H10 UNL     1     -14.055  49.609 -12.191  1.00  0.00     0.166 HD
ENDBRANCH  18  19
ENDBRANCH  17  18
ENDBRANCH  15  17
ENDBRANCH  11  15
BRANCH   8  26
HETATM   26  N6  UNL     1      -5.591  52.133 -12.992  1.00  0.00    -0.383 N
ATOM     27  H62 UNL     1      -5.075  52.406 -12.155  1.00  0.00     0.157 HD
ATOM     28  H61 UNL     1      -5.371  52.630 -13.855  1.00  0.00     0.157 HD
ENDBRANCH   8  26
BRANCH   1  29
HETATM   29  N1  UNL     1      -8.095  47.085 -11.526  1.00  0.00    -0.374 N
ATOM     30  H1  UNL     1      -8.394  46.678 -12.413  1.00  0.00     0.161 HD
BRANCH  29  31
HETATM   31  C4  UNL     1      -8.691  46.664 -10.278  1.00  0.00     0.125 C
BRANCH  31  32
HETATM   32  C2  UNL     1     -10.046  46.046 -10.618  1.00  0.00    -0.005 C
HETATM   33  C1  UNL     1     -10.730  47.015 -11.567  1.00  0.00     0.011 C
HETATM   34  C3  UNL     1     -10.910  45.928  -9.400  1.00  0.00     0.011 C
ENDBRANCH  31  32
ENDBRANCH  29  31
ENDBRANCH   1  29
BRANCH   4  35
HETATM   35  N3  UNL     1      -4.037  48.528  -9.836  1.00  0.00    -0.214 N
HETATM   36  C7  UNL     1      -3.211  47.370 -10.026  1.00  0.00     0.160 C
HETATM   37  C8  UNL     1      -3.074  46.689  -8.668  1.00  0.00     0.136 C
HETATM   38  N4  UNL     1      -2.573  47.590  -7.682  1.00  0.00    -0.414 N
HETATM   39  C9  UNL     1      -1.155  47.776  -7.697  1.00  0.00     0.143 C
HETATM   40  C10 UNL     1      -3.338  48.781  -7.501  1.00  0.00     0.136 C
HETATM   41  C11 UNL     1      -3.750  49.460  -8.767  1.00  0.00     0.160 C
ENDBRANCH   4  35
TORSDOF 9
ENDMDL