MODEL 4
REMARK VINA RESULT: -7.002326173      1.197      1.696
REMARK  8 active torsions:
REMARK  status: ('A' for Active; 'I' for Inactive)
REMARK    1  A    between atoms: C3_5  and  N2_6
REMARK       I    between atoms: N2_6  and  C4_8
REMARK    2  A    between atoms: C4_8  and  C5_10
REMARK    3  A    between atoms: C5_10  and  C6_11
REMARK    4  A    between atoms: C6_11  and  C7_12
REMARK    5  A    between atoms: C7_12  and  C8_13
REMARK       I    between atoms: N5_19  and  C10_21
REMARK    6  A    between atoms: C10_21  and  C11_23
REMARK    7  A    between atoms: C11_23  and  C12_24
REMARK    8  A    between atoms: C15_29  and  O3_30
ROOT
HETATM    1  C8  UNL     1      -7.507  45.833 -12.347  1.00  0.00     0.069 A
HETATM    2  N3  UNL     1      -6.932  45.776 -11.157  1.00  0.00    -0.296 N
ATOM      3  H3  UNL     1      -7.507  45.682 -10.320  1.00  0.00     0.187 HD
HETATM    4  N4  UNL     1      -5.670  45.839 -11.050  1.00  0.00    -0.279 N
ATOM      5  H4  UNL     1      -5.227  45.795 -10.132  1.00  0.00     0.189 HD
HETATM    6  C9  UNL     1      -4.930  45.962 -12.150  1.00  0.00     0.167 A
HETATM    7  N5  UNL     1      -3.629  46.046 -12.292  1.00  0.00    -0.306 N
ATOM      8  H5  UNL     1      -3.199  46.137 -13.212  1.00  0.00     0.171 HD
HETATM    9  C10 UNL     1      -2.850  46.004 -11.118  1.00  0.00     0.228 C
HETATM   10  O2  UNL     1      -2.891  44.970 -10.416  1.00  0.00    -0.273 OA
HETATM   11  S1  UNL     1      -6.152  45.985 -13.373  1.00  0.00    -0.038 SA
ENDROOT
BRANCH   9  12
HETATM   12  C11 UNL     1      -2.005  47.128 -10.710  1.00  0.00     0.149 C
BRANCH  12  13
HETATM   13  C12 UNL     1      -2.454  47.864  -9.540  1.00  0.00     0.041 A
HETATM   14  C13 UNL     1      -1.760  47.835  -8.356  1.00  0.00     0.021 A
HETATM   15  C14 UNL     1      -0.533  47.037  -8.252  1.00  0.00     0.069 C
HETATM   16  N6  UNL     1      -2.200  48.539  -7.268  1.00  0.00    -0.326 N
HETATM   17  C15 UNL     1      -3.316  49.268  -7.342  1.00  0.00     0.224 A
ATOM     18  H6  UNL     1      -1.672  48.507  -6.397  1.00  0.00     0.169 HD
HETATM   19  N7  UNL     1      -4.015  49.320  -8.475  1.00  0.00    -0.289 N
HETATM   20  C16 UNL     1      -3.600  48.630  -9.570  1.00  0.00     0.257 A
ATOM     21  H7  UNL     1      -4.866  49.880  -8.520  1.00  0.00     0.172 HD
HETATM   22  O4  UNL     1      -4.297  48.718 -10.598  1.00  0.00    -0.267 OA
BRANCH  17  23
HETATM   23  O3  UNL     1      -3.773  49.993  -6.232  1.00  0.00    -0.332 OA
ATOM     24  H3  UNL     1      -3.355  49.898  -5.384  1.00  0.00     0.221 HD
ENDBRANCH  17  23
ENDBRANCH  12  13
ENDBRANCH   9  12
BRANCH   1  25
HETATM   25  C7  UNL     1      -8.983  45.775 -12.679  1.00  0.00     0.067 C
BRANCH  25  26
HETATM   26  C6  UNL     1      -9.635  46.821 -11.844  1.00  0.00     0.016 C
BRANCH  26  27
HETATM   27  C5  UNL     1     -10.883  46.428 -11.139  1.00  0.00     0.104 C
BRANCH  27  28
HETATM   28  C4  UNL     1     -10.634  46.182  -9.713  1.00  0.00     0.235 C
HETATM   29  N2  UNL     1     -11.723  46.074  -8.822  1.00  0.00    -0.158 N
ATOM     30  H2  UNL     1     -12.182  46.909  -8.459  1.00  0.00     0.187 HD
HETATM   31  O1  UNL     1      -9.477  46.066  -9.276  1.00  0.00    -0.273 OA
BRANCH  29  32
HETATM   32  C3  UNL     1     -12.127  44.892  -8.474  1.00  0.00     0.700 A
HETATM   33  N1  UNL     1     -12.595  44.531  -7.252  1.00  0.00    -0.178 N
HETATM   34  C2  UNL     1     -12.896  43.229  -7.338  1.00  0.00     0.108 A
ATOM     35  H1  UNL     1     -12.697  45.130  -6.434  1.00  0.00     0.185 HD
HETATM   36  C1  UNL     1     -13.445  42.321  -6.292  1.00  0.00     0.091 C
HETATM   37  N9  UNL     1     -12.613  42.829  -8.582  1.00  0.00    -0.275 N
HETATM   38  N8  UNL     1     -12.144  43.835  -9.283  1.00  0.00    -0.130 N
ATOM     39  H9  UNL     1     -12.743  41.880  -8.934  1.00  0.00     0.189 HD
ATOM     40  H8  UNL     1     -11.849  43.812 -10.260  1.00  0.00     0.205 HD
ENDBRANCH  29  32
ENDBRANCH  27  28
ENDBRANCH  26  27
ENDBRANCH  25  26
ENDBRANCH   1  25
TORSDOF 8
ENDMDL