MODEL 2
REMARK VINA RESULT: -5.490165813      2.200      3.214
REMARK  11 active torsions:
REMARK  status: ('A' for Active; 'I' for Inactive)
REMARK    1  A    between atoms: N1_1  and  C1_4
REMARK    2  A    between atoms: N3_8  and  C3_10
REMARK    3  A    between atoms: C3_10  and  C4_11
REMARK    4  A    between atoms: C4_11  and  C5_12
REMARK    5  A    between atoms: C5_12  and  N4_13
REMARK    6  A    between atoms: C12_23  and  C13_24
REMARK    7  A    between atoms: C13_24  and  C14_25
REMARK    8  A    between atoms: C14_25  and  C15_26
REMARK    9  A    between atoms: C15_26  and  C16_27
REMARK   10  A    between atoms: C18_31  and  C19_32
REMARK   11  A    between atoms: C19_32  and  N7_33
ROOT
HETATM    1  C1  UNL     1      -5.728  49.514 -12.892  1.00  0.00     0.679 A
HETATM    2  N2  UNL     1      -4.718  48.629 -12.701  1.00  0.00    -0.175 N
ATOM      3  H2  UNL     1      -3.790  48.867 -13.049  1.00  0.00     0.186 HD
HETATM    4  C2  UNL     1      -4.883  47.462 -12.078  1.00  0.00     0.147 A
HETATM    5  N3  UNL     1      -3.933  46.613 -11.889  1.00  0.00    -0.374 N
ATOM      6  H3  UNL     1      -4.136  45.740 -11.403  1.00  0.00     0.161 HD
HETATM    7  C10 UNL     1      -6.171  47.180 -11.619  1.00  0.00     0.122 A
HETATM    8  N5  UNL     1      -6.383  46.028 -10.992  1.00  0.00    -0.357 N
ATOM      9  H5  UNL     1      -5.618  45.369 -10.850  1.00  0.00     0.165 HD
HETATM   10  C11 UNL     1      -7.619  45.741 -10.544  1.00  0.00     0.127 A
HETATM   11  C12 UNL     1      -8.692  46.590 -10.702  1.00  0.00     0.103 A
HETATM   12  N9  UNL     1      -8.452  47.764 -11.346  1.00  0.00    -0.332 N
ATOM     13  H9  UNL     1      -9.210  48.431 -11.490  1.00  0.00     0.168 HD
HETATM   14  C20 UNL     1      -7.205  48.048 -11.797  1.00  0.00     0.152 A
HETATM   15  N10 UNL     1      -6.958  49.215 -12.439  1.00  0.00    -0.174 N
ATOM     16  H10 UNL     1      -7.719  49.878 -12.583  1.00  0.00     0.186 HD
ENDROOT
BRANCH  11  17
HETATM   17  C13 UNL     1     -10.002  46.263 -10.215  1.00  0.00    -0.047 C
BRANCH  17  18
HETATM   18  C14 UNL     1     -11.103  45.972  -9.789  1.00  0.00    -0.093 C
BRANCH  18  19
HETATM   19  C15 UNL     1     -12.424  45.609  -9.254  1.00  0.00     0.152 C
BRANCH  19  20
HETATM   20  C16 UNL     1     -13.487  46.515  -9.745  1.00  0.00     0.037 A
HETATM   21  C17 UNL     1     -13.593  46.952 -11.045  1.00  0.00     0.115 A
HETATM   22  N6  UNL     1     -14.668  47.754 -11.124  1.00  0.00    -0.352 N
HETATM   23  C18 UNL     1     -15.202  47.801  -9.893  1.00  0.00     0.107 A
ATOM     24  H6  UNL     1     -15.010  48.234 -11.956  1.00  0.00     0.166 HD
HETATM   25  N8  UNL     1     -14.489  47.048  -9.038  1.00  0.00    -0.346 N
ATOM     26  H8  UNL     1     -14.676  46.910  -8.045  1.00  0.00     0.167 HD
BRANCH  23  27
HETATM   27  C19 UNL     1     -16.431  48.593  -9.530  1.00  0.00     0.305 C
BRANCH  27  28
HETATM   28  N7  UNL     1     -16.282  49.957  -9.990  1.00  0.00    -0.073 N
ATOM     29  H73 UNL     1     -17.172  50.370 -10.266  1.00  0.00     0.274 HD
ATOM     30  H72 UNL     1     -16.054  50.597  -9.230  1.00  0.00     0.274 HD
ATOM     31  H71 UNL     1     -15.593  49.990 -10.741  1.00  0.00     0.274 HD
ENDBRANCH  27  28
ENDBRANCH  23  27
ENDBRANCH  19  20
ENDBRANCH  18  19
ENDBRANCH  17  18
ENDBRANCH  11  17
BRANCH   1  32
HETATM   32  N1  UNL     1      -5.498  50.624 -13.503  1.00  0.00    -0.234 N
ATOM     33  H12 UNL     1      -5.304  50.642 -14.503  1.00  0.00     0.174 HD
ATOM     34  H11 UNL     1      -5.509  51.501 -12.981  1.00  0.00     0.174 HD
ENDBRANCH   1  32
BRANCH   5  35
HETATM   35  C3  UNL     1      -2.605  46.865 -12.342  1.00  0.00     0.123 C
BRANCH  35  36
HETATM   36  C4  UNL     1      -1.672  47.284 -11.218  1.00  0.00     0.050 C
BRANCH  36  37
HETATM   37  C5  UNL     1      -2.304  47.016  -9.864  1.00  0.00     0.274 C
BRANCH  37  38
HETATM   38  N4  UNL     1      -2.185  48.179  -9.009  1.00  0.00     0.092 N
HETATM   39  C6  UNL     1      -2.853  49.286  -9.701  1.00  0.00     0.298 C
HETATM   40  C7  UNL     1      -4.274  49.341  -9.177  1.00  0.00     0.198 C
HETATM   41  O1  UNL     1      -4.219  49.873  -7.891  1.00  0.00    -0.388 OA
HETATM   42  C8  UNL     1      -3.325  49.179  -7.080  1.00  0.00     0.198 C
HETATM   43  C9  UNL     1      -2.819  47.919  -7.746  1.00  0.00     0.298 C
ENDBRANCH  37  38
ENDBRANCH  36  37
ENDBRANCH  35  36
ENDBRANCH   5  35
TORSDOF 11
ENDMDL