MODEL 1
REMARK VINA RESULT: -6.860661330      0.000      0.000
REMARK  5 active torsions:
REMARK  status: ('A' for Active; 'I' for Inactive)
REMARK    1  A    between atoms: C4_5  and  C5_6
REMARK    2  A    between atoms: C8_11  and  C9_12
REMARK    3  A    between atoms: N3_17  and  C12_18
REMARK    4  A    between atoms: C14_20  and  N4_21
REMARK    5  A    between atoms: C18_30  and  N7_31
ROOT
HETATM    1  C1  UNL     1      -4.840   6.929   9.258  1.00  0.00     0.054 C
HETATM    2  C2  UNL     1      -3.602   7.553   9.756  1.00  0.00     0.007 A
HETATM    3  C3  UNL     1      -2.473   7.673   8.932  1.00  0.00     0.140 A
HETATM    4  F1  UNL     1      -2.584   7.192   7.677  1.00  0.00    -0.204 F
HETATM    5  C4  UNL     1      -1.331   8.261   9.422  1.00  0.00     0.069 A
HETATM    6  C6  UNL     1      -1.305   8.725  10.720  1.00  0.00     0.035 A
HETATM    7  C7  UNL     1      -2.390   8.621  11.546  1.00  0.00     0.019 A
HETATM    8  C8  UNL     1      -2.579   9.011  12.857  1.00  0.00     0.042 A
HETATM    9  N2  UNL     1      -3.833   8.662  13.161  1.00  0.00    -0.295 N
ATOM     10  H2  UNL     1      -4.287   8.813  14.063  1.00  0.00     0.187 HD
HETATM   11  N3  UNL     1      -4.401   8.083  12.096  1.00  0.00    -0.238 N
HETATM   12  C19 UNL     1      -3.558   8.026  11.057  1.00  0.00     0.079 A
ENDROOT
BRANCH  11  13
HETATM   13  C12 UNL     1      -5.723   7.616  12.136  1.00  0.00     0.146 A
HETATM   14  C13 UNL     1      -6.759   8.504  12.218  1.00  0.00     0.100 A
HETATM   15  C14 UNL     1      -8.064   8.082  12.229  1.00  0.00     0.124 A
HETATM   16  N6  UNL     1      -8.279   6.734  12.155  1.00  0.00    -0.177 N
HETATM   17  C18 UNL     1      -7.276   5.846  12.074  1.00  0.00     0.679 A
ATOM     18  H6  UNL     1      -9.239   6.390  12.163  1.00  0.00     0.185 HD
HETATM   19  N8  UNL     1      -5.994   6.285  12.064  1.00  0.00    -0.175 N
ATOM     20  H8  UNL     1      -5.229   5.613  12.004  1.00  0.00     0.186 HD
BRANCH  15  21
HETATM   21  N4  UNL     1      -9.166   8.954  12.313  1.00  0.00    -0.342 N
HETATM   22  C15 UNL     1      -9.153  10.381  12.062  1.00  0.00     0.153 C
HETATM   23  C16 UNL     1     -10.544  10.666  11.555  1.00  0.00     0.254 C
HETATM   24  N5  UNL     1     -11.371   9.603  12.042  1.00  0.00    -0.058 N
HETATM   25  C17 UNL     1     -10.521   8.616  12.660  1.00  0.00     0.358 C
ATOM     26  H52 UNL     1     -12.108   9.932  12.666  1.00  0.00     0.279 HD
ATOM     27  H51 UNL     1     -11.970   9.207  11.318  1.00  0.00     0.279 HD
ENDBRANCH  15  21
BRANCH  17  28
HETATM   28  N7  UNL     1      -7.572   4.599  12.007  1.00  0.00    -0.234 N
ATOM     29  H72 UNL     1      -7.505   3.982  12.817  1.00  0.00     0.174 HD
ATOM     30  H71 UNL     1      -7.884   4.223  11.112  1.00  0.00     0.174 HD
ENDBRANCH  17  28
ENDBRANCH  11  13
BRANCH   8  31
HETATM   31  C9  UNL     1      -1.586   9.671  13.704  1.00  0.00     0.030 C
HETATM   32  C10 UNL     1      -1.348   8.930  15.008  1.00  0.00     0.016 C
HETATM   33  C11 UNL     1      -1.918  11.104  14.024  1.00  0.00     0.016 C
ENDBRANCH   8  31
BRANCH   5  34
HETATM   34  C5  UNL     1      -0.165   8.382   8.564  1.00  0.00     0.268 C
HETATM   35  N1  UNL     1       1.038   7.706   8.867  1.00  0.00    -0.057 NA
HETATM   36  O1  UNL     1      -0.181   9.096   7.514  1.00  0.00    -0.271 OA
ENDBRANCH   5  34
TORSDOF 5
ENDMDL