MODEL 5
REMARK VINA RESULT: -6.811983680      1.923      3.479
REMARK  4 active torsions:
REMARK  status: ('A' for Active; 'I' for Inactive)
REMARK       I    between atoms: N1_2  and  C2_4
REMARK    1  A    between atoms: C2_4  and  C3_6
REMARK    2  A    between atoms: C4_7  and  N2_8
REMARK       I    between atoms: N2_8  and  C5_10
REMARK    3  A    between atoms: C5_10  and  C6_12
REMARK    4  A    between atoms: C8_18  and  C9_19
ROOT
HETATM    1  C6  UNL     1      -2.721  10.918  10.807  1.00  0.00     0.129 A
HETATM    2  N3  UNL     1      -1.637  11.527  11.374  1.00  0.00    -0.295 N
ATOM      3  H3  UNL     1      -1.658  12.459  11.788  1.00  0.00     0.187 HD
HETATM    4  N4  UNL     1      -0.578  10.777  11.323  1.00  0.00    -0.310 N
ATOM      5  H4  UNL     1       0.347  11.016  11.680  1.00  0.00     0.186 HD
HETATM    6  C7  UNL     1      -0.923   9.632  10.713  1.00  0.00     0.122 A
HETATM    7  C8  UNL     1      -2.293   9.714  10.382  1.00  0.00     0.027 A
ENDROOT
BRANCH   1   8
HETATM    8  C5  UNL     1      -4.042  11.516  10.735  1.00  0.00     0.275 C
HETATM    9  N2  UNL     1      -4.753  12.038  11.843  1.00  0.00    -0.318 N
ATOM     10  H2  UNL     1      -4.333  11.986  12.771  1.00  0.00     0.169 HD
HETATM   11  O2  UNL     1      -4.578  11.559   9.597  1.00  0.00    -0.266 OA
BRANCH   9  12
HETATM   12  C4  UNL     1      -6.021  12.625  11.700  1.00  0.00     0.086 A
HETATM   13  C3  UNL     1      -6.294  13.996  11.450  1.00  0.00     0.146 A
HETATM   14  N9  UNL     1      -7.617  14.154  11.321  1.00  0.00    -0.290 N
HETATM   15  N8  UNL     1      -8.203  12.959  11.476  1.00  0.00    -0.307 N
HETATM   16  C16 UNL     1      -8.366  15.387  11.063  1.00  0.00     0.178 C
HETATM   17  C15 UNL     1      -7.261  12.033  11.704  1.00  0.00     0.139 A
ATOM     18  H8  UNL     1      -9.207  12.781  11.429  1.00  0.00     0.186 HD
BRANCH  13  19
HETATM   19  C2  UNL     1      -5.262  15.028  11.396  1.00  0.00     0.271 C
HETATM   20  N1  UNL     1      -5.056  16.088  12.279  1.00  0.00    -0.360 N
HETATM   21  C1  UNL     1      -3.943  17.013  12.026  1.00  0.00     0.149 C
ATOM     22  H1  UNL     1      -5.667  16.219  13.085  1.00  0.00     0.162 HD
HETATM   23  O1  UNL     1      -4.407  14.999  10.422  1.00  0.00    -0.266 OA
ENDBRANCH  13  19
ENDBRANCH   9  12
ENDBRANCH   1   8
BRANCH   7  24
HETATM   24  C9  UNL     1      -3.011   8.599   9.802  1.00  0.00     0.011 A
HETATM   25  C10 UNL     1      -4.029   7.963  10.534  1.00  0.00     0.101 A
HETATM   26  N5  UNL     1      -4.675   6.886  10.061  1.00  0.00    -0.372 N
HETATM   27  C11 UNL     1      -4.411   6.329   8.862  1.00  0.00     0.119 A
ATOM     28  H5  UNL     1      -5.405   6.467  10.638  1.00  0.00     0.164 HD
HETATM   29  C12 UNL     1      -3.417   6.934   8.123  1.00  0.00     0.079 A
HETATM   30  N6  UNL     1      -2.946   6.609   6.910  1.00  0.00    -0.296 N
HETATM   31  C14 UNL     1      -2.728   8.046   8.575  1.00  0.00     0.063 A
HETATM   32  N7  UNL     1      -2.007   7.465   6.602  1.00  0.00    -0.275 N
ATOM     33  H6  UNL     1      -3.264   5.831   6.331  1.00  0.00     0.187 HD
HETATM   34  C13 UNL     1      -1.825   8.382   7.591  1.00  0.00     0.216 A
ATOM     35  H7  UNL     1      -1.479   7.449   5.730  1.00  0.00     0.189 HD
HETATM   36  F1  UNL     1      -0.958   9.404   7.610  1.00  0.00    -0.184 F
ENDBRANCH   7  24
TORSDOF 4
ENDMDL