MODEL 2
REMARK VINA RESULT: -5.467742319      2.862      5.219
REMARK  8 active torsions:
REMARK  status: ('A' for Active; 'I' for Inactive)
REMARK    1  A    between atoms: C2_2  and  O1_5
REMARK    2  A    between atoms: O1_5  and  C5_6
REMARK       I    between atoms: C5_6  and  N1_8
REMARK    3  A    between atoms: N1_8  and  C6_10
REMARK    4  A    between atoms: C7_11  and  N2_12
REMARK       I    between atoms: N3_16  and  C11_17
REMARK    5  A    between atoms: C11_17  and  O4_19
REMARK    6  A    between atoms: O4_19  and  C12_20
REMARK    7  A    between atoms: C12_20  and  C13_21
REMARK    8  A    between atoms: C13_21  and  O5_22
ROOT
HETATM    1  C6  UNL     1      -3.599   9.789  14.613  1.00  0.00     0.152 A
HETATM    2  C7  UNL     1      -2.982  10.882  13.972  1.00  0.00     0.151 A
HETATM    3  N4  UNL     1      -2.648  11.742  14.939  1.00  0.00    -0.281 N
ATOM      4  H4  UNL     1      -2.182  12.636  14.785  1.00  0.00     0.188 HD
HETATM    5  N5  UNL     1      -3.001  11.277  16.113  1.00  0.00    -0.263 N
ATOM      6  H5  UNL     1      -2.854  11.747  17.007  1.00  0.00     0.190 HD
HETATM    7  C16 UNL     1      -3.598  10.060  15.943  1.00  0.00     0.290 A
HETATM    8  O6  UNL     1      -4.038   9.387  16.932  1.00  0.00    -0.264 OA
ENDROOT
BRANCH   2   9
HETATM    9  N2  UNL     1      -2.776  11.007  12.566  1.00  0.00    -0.363 N
HETATM   10  C8  UNL     1      -1.420  10.760  12.082  1.00  0.00     0.126 C
HETATM   11  C9  UNL     1      -1.358   9.327  11.677  1.00  0.00     0.040 C
HETATM   12  C10 UNL     1      -2.485   8.863  10.807  1.00  0.00     0.129 C
HETATM   13  N3  UNL     1      -3.045   9.887   9.962  1.00  0.00    -0.326 N
HETATM   14  C11 UNL     1      -3.039   9.596   8.578  1.00  0.00     0.362 C
HETATM   15  C14 UNL     1      -3.621  11.173  10.277  1.00  0.00     0.148 C
HETATM   16  O3  UNL     1      -3.492  10.390   7.711  1.00  0.00    -0.238 OA
HETATM   17  C15 UNL     1      -3.901  11.355  11.756  1.00  0.00     0.144 C
BRANCH  14  18
HETATM   18  O4  UNL     1      -2.513   8.389   8.153  1.00  0.00    -0.302 OA
BRANCH  18  19
HETATM   19  C12 UNL     1      -2.956   7.652   7.056  1.00  0.00     0.206 C
BRANCH  19  20
HETATM   20  C13 UNL     1      -3.823   6.475   7.394  1.00  0.00     0.191 C
BRANCH  20  21
HETATM   21  O5  UNL     1      -3.132   5.325   6.989  1.00  0.00    -0.399 OA
ATOM     22  H5  UNL     1      -2.817   5.485   6.107  1.00  0.00     0.209 HD
ENDBRANCH  20  21
ENDBRANCH  19  20
ENDBRANCH  18  19
ENDBRANCH  14  18
ENDBRANCH   2   9
BRANCH   1  23
HETATM   23  N1  UNL     1      -4.098   8.669  13.936  1.00  0.00    -0.295 N
HETATM   24  C5  UNL     1      -5.398   8.139  13.916  1.00  0.00     0.366 C
HETATM   25  O2  UNL     1      -6.406   8.565  14.513  1.00  0.00    -0.238 OA
ATOM     26  H1  UNL     1      -3.414   8.162  13.374  1.00  0.00     0.171 HD
BRANCH  24  27
HETATM   27  O1  UNL     1      -5.676   6.981  13.148  1.00  0.00    -0.294 OA
BRANCH  27  28
HETATM   28  C2  UNL     1      -6.216   7.041  11.859  1.00  0.00     0.061 C
HETATM   29  C1  UNL     1      -5.338   6.317  10.855  1.00  0.00     0.046 C
HETATM   30  C3  UNL     1      -7.610   6.453  11.926  1.00  0.00     0.046 C
HETATM   31  C4  UNL     1      -6.358   8.461  11.349  1.00  0.00     0.046 C
ENDBRANCH  27  28
ENDBRANCH  24  27
ENDBRANCH   1  23
TORSDOF 8
ENDMDL