MODEL 1
REMARK VINA RESULT: -5.463677226      0.000      0.000
REMARK  6 active torsions:
REMARK  status: ('A' for Active; 'I' for Inactive)
REMARK    1  A    between atoms: C3_3  and  C4_4
REMARK    2  A    between atoms: C4_4  and  O1_5
REMARK    3  A    between atoms: N1_7  and  O2_9
REMARK    4  A    between atoms: C5_11  and  C6_12
REMARK    5  A    between atoms: C8_20  and  N5_22
REMARK       I    between atoms: N5_22  and  C10_24
REMARK    6  A    between atoms: C10_24  and  C11_26
ROOT
HETATM    1  C1  UNL     1      -3.190   9.366   7.531  1.00  0.00     0.056 C
HETATM    2  C2  UNL     1      -3.191   9.712   8.964  1.00  0.00    -0.014 C
HETATM    3  C3  UNL     1      -2.315   9.299   9.839  1.00  0.00     0.019 C
HETATM    4  C5  UNL     1      -2.397   9.722  11.251  1.00  0.00     0.105 C
HETATM    5  C8  UNL     1      -3.694   9.684  11.950  1.00  0.00     0.051 C
HETATM    6  C9  UNL     1      -3.781  10.805  13.008  1.00  0.00     0.040 C
HETATM    7  C12 UNL     1      -4.949   9.823  11.129  1.00  0.00     0.111 C
HETATM    8  S1  UNL     1      -4.491  10.778   9.651  1.00  0.00    -0.132 SA
ENDROOT
BRANCH   4   9
HETATM    9  C6  UNL     1      -1.649  11.029  11.396  1.00  0.00     0.055 A
HETATM   10  C7  UNL     1      -0.344  11.194  11.846  1.00  0.00     0.136 A
HETATM   11  N2  UNL     1      -0.070  12.495  11.823  1.00  0.00    -0.296 N
HETATM   12  N3  UNL     1      -1.128  13.121  11.389  1.00  0.00    -0.243 N
ATOM     13  H2  UNL     1       0.812  12.927  12.098  1.00  0.00     0.187 HD
HETATM   14  N4  UNL     1      -2.078  12.265  11.130  1.00  0.00    -0.288 N
ATOM     15  H3  UNL     1      -1.203  14.130  11.270  1.00  0.00     0.208 HD
ATOM     16  H4  UNL     1      -3.006  12.503  10.779  1.00  0.00     0.188 HD
ENDBRANCH   4   9
BRANCH   3  17
HETATM   17  C4  UNL     1      -1.209   8.406   9.409  1.00  0.00     0.168 C
HETATM   18  N1  UNL     1      -0.264   8.953   8.704  1.00  0.00    -0.247 N
ATOM     19  H1  UNL     1      -0.318   9.946   8.479  1.00  0.00     0.196 HD
BRANCH  17  20
HETATM   20  O1  UNL     1      -1.211   7.082   9.752  1.00  0.00    -0.344 OA
ATOM     21  H1  UNL     1      -1.449   6.419   9.115  1.00  0.00     0.219 HD
ENDBRANCH  17  20
BRANCH  18  22
HETATM   22  O2  UNL     1       0.796   8.225   8.259  1.00  0.00    -0.288 OA
ATOM     23  H2  UNL     1       1.649   8.624   8.129  1.00  0.00     0.244 HD
ENDBRANCH  18  22
ENDBRANCH   3  17
BRANCH   5  24
HETATM   24  N5  UNL     1      -3.747   8.429  12.727  1.00  0.00    -0.350 N
HETATM   25  C10 UNL     1      -4.013   7.177  12.157  1.00  0.00     0.228 C
HETATM   26  O3  UNL     1      -4.216   7.069  10.934  1.00  0.00    -0.273 OA
ATOM     27  H5  UNL     1      -3.581   8.477  13.732  1.00  0.00     0.163 HD
BRANCH  25  28
HETATM   28  C11 UNL     1      -4.054   5.972  13.002  1.00  0.00     0.187 C
HETATM   29 BR1  UNL     1      -5.798   5.117  12.887  1.00  0.00    -0.087 Br
ENDBRANCH  25  28
ENDBRANCH   5  24
TORSDOF 6
ENDMDL