MODEL 1
REMARK VINA RESULT: -6.647310906      0.000      0.000
REMARK  8 active torsions:
REMARK  status: ('A' for Active; 'I' for Inactive)
REMARK    1  A    between atoms: N1_2  and  C2_4
REMARK    2  A    between atoms: C3_7  and  N3_8
REMARK    3  A    between atoms: N3_8  and  C4_10
REMARK    4  A    between atoms: C10_19  and  O1_20
REMARK    5  A    between atoms: C12_24  and  N6_25
REMARK    6  A    between atoms: N8_31  and  C14_32
REMARK    7  A    between atoms: C14_32  and  C15_33
REMARK    8  A    between atoms: C15_33  and  C16_34
ROOT
HETATM    1  C2  UNL     1      -1.448  11.006  11.568  1.00  0.00     0.679 A
HETATM    2  N2  UNL     1      -2.582  10.998  12.293  1.00  0.00    -0.175 N
ATOM      3  H2  UNL     1      -2.644  11.594  13.118  1.00  0.00     0.186 HD
HETATM    4  C3  UNL     1      -3.634  10.231  11.967  1.00  0.00     0.149 A
HETATM    5  C7  UNL     1      -3.497   9.415  10.804  1.00  0.00     0.109 A
HETATM    6  C8  UNL     1      -2.310   9.442  10.071  1.00  0.00     0.098 A
HETATM    7  N4  UNL     1      -1.319  10.244  10.482  1.00  0.00    -0.188 N
ATOM      8  H4  UNL     1      -0.448  10.273   9.953  1.00  0.00     0.184 HD
HETATM    9  C9  UNL     1      -2.443   8.576   9.001  1.00  0.00     0.090 A
HETATM   10  C10 UNL     1      -1.640   8.209   7.987  1.00  0.00     0.173 A
HETATM   11  N5  UNL     1      -2.085   7.311   7.064  1.00  0.00    -0.170 N
ATOM     12  H5  UNL     1      -1.483   7.028   6.290  1.00  0.00     0.186 HD
HETATM   13  C12 UNL     1      -3.318   6.803   7.182  1.00  0.00     0.679 A
HETATM   14  N7  UNL     1      -4.114   7.171   8.197  1.00  0.00    -0.176 N
ATOM     15  H7  UNL     1      -5.051   6.774   8.271  1.00  0.00     0.186 HD
HETATM   16  C13 UNL     1      -3.697   8.055   9.116  1.00  0.00     0.141 A
HETATM   17  N8  UNL     1      -4.332   8.578  10.228  1.00  0.00    -0.327 N
ENDROOT
BRANCH   4  18
HETATM   18  N3  UNL     1      -4.716  10.141  12.549  1.00  0.00    -0.339 N
ATOM     19  H3  UNL     1      -4.930   9.163  12.745  1.00  0.00     0.164 HD
BRANCH  18  20
HETATM   20  C4  UNL     1      -5.720  10.943  13.016  1.00  0.00     0.170 C
HETATM   21  C5  UNL     1      -6.648  11.476  11.902  1.00  0.00     0.076 C
HETATM   22  C6  UNL     1      -5.424  12.171  13.850  1.00  0.00     0.076 C
HETATM   23  F1  UNL     1      -6.589  10.159  13.810  1.00  0.00    -0.220 F
ENDBRANCH  18  20
ENDBRANCH   4  18
BRANCH   1  24
HETATM   24  N1  UNL     1      -0.461  11.786  11.954  1.00  0.00    -0.230 N
HETATM   25  C1  UNL     1      -0.659  13.237  11.992  1.00  0.00     0.165 C
ATOM     26  H1  UNL     1       0.436  11.383  12.226  1.00  0.00     0.177 HD
ENDBRANCH   1  24
BRANCH  17  27
HETATM   27  C14 UNL     1      -5.656   8.184  10.578  1.00  0.00     0.131 C
BRANCH  27  28
HETATM   28  C15 UNL     1      -5.700   6.820  11.211  1.00  0.00     0.024 C
BRANCH  28  29
HETATM   29  C16 UNL     1      -6.858   6.726  12.154  1.00  0.00    -0.021 C
HETATM   30  C17 UNL     1      -7.598   5.455  12.071  1.00  0.00     0.009 C
HETATM   31  C18 UNL     1      -7.825   7.890  11.963  1.00  0.00     0.009 C
ENDBRANCH  28  29
ENDBRANCH  27  28
ENDBRANCH  17  27
BRANCH  10  32
HETATM   32  O1  UNL     1      -0.364   8.711   7.839  1.00  0.00    -0.340 OA
HETATM   33  C11 UNL     1       0.733   8.123   8.552  1.00  0.00     0.211 C
ENDBRANCH  10  32
BRANCH  13  34
HETATM   34  N6  UNL     1      -3.786   5.950   6.336  1.00  0.00    -0.234 N
ATOM     35  H62 UNL     1      -4.792   5.783   6.342  1.00  0.00     0.174 HD
ATOM     36  H61 UNL     1      -3.181   5.456   5.680  1.00  0.00     0.174 HD
ENDBRANCH  13  34
TORSDOF 8
ENDMDL