MODEL 2
REMARK VINA RESULT: -5.467300848      1.831      2.452
REMARK  10 active torsions:
REMARK  status: ('A' for Active; 'I' for Inactive)
REMARK    1  A    between atoms: C6_12  and  O2_13
REMARK    2  A    between atoms: C7_15  and  S1_16
REMARK    3  A    between atoms: S1_16  and  C8_17
REMARK    4  A    between atoms: C8_17  and  N4_18
REMARK    5  A    between atoms: N4_18  and  C9_20
REMARK    6  A    between atoms: C9_20  and  O3_21
REMARK    7  A    between atoms: C9_20  and  C10_23
REMARK    8  A    between atoms: C10_23  and  C11_24
REMARK    9  A    between atoms: C11_24  and  C12_25
REMARK   10  A    between atoms: C13_28  and  N6_29
ROOT
HETATM    1  C1  UNL     1      -9.333   6.006  12.275  1.00  0.00     0.310 C
HETATM    2  N1  UNL     1      -8.291   6.211  13.293  1.00  0.00     0.094 N
HETATM    3  C2  UNL     1      -8.208   7.607  13.668  1.00  0.00     0.330 C
HETATM    4  C3  UNL     1      -7.254   8.159  12.646  1.00  0.00     0.051 A
HETATM    5  N2  UNL     1      -6.974   9.414  12.243  1.00  0.00    -0.339 N
ATOM      6  H2  UNL     1      -7.466  10.199  12.669  1.00  0.00     0.167 HD
HETATM    7  C4  UNL     1      -6.055   9.647  11.289  1.00  0.00     0.184 A
HETATM    8  C5  UNL     1      -5.791  10.956  10.896  1.00  0.00     0.292 A
HETATM    9  O1  UNL     1      -6.443  11.873  11.471  1.00  0.00    -0.264 OA
HETATM   10  N3  UNL     1      -4.876  11.209   9.944  1.00  0.00    -0.299 N
ATOM     11  H3  UNL     1      -4.702  12.177   9.676  1.00  0.00     0.171 HD
HETATM   12  C6  UNL     1      -4.175  10.221   9.326  1.00  0.00     0.178 A
HETATM   13  C7  UNL     1      -4.439   8.927   9.716  1.00  0.00     0.133 A
HETATM   14  N5  UNL     1      -5.363   8.675  10.678  1.00  0.00    -0.268 N
HETATM   15  C13 UNL     1      -5.618   7.402  11.059  1.00  0.00     0.118 A
HETATM   16  C14 UNL     1      -6.559   7.136  12.038  1.00  0.00     0.038 A
HETATM   17  C15 UNL     1      -7.038   5.885  12.644  1.00  0.00     0.317 C
ENDROOT
BRANCH  13  18
HETATM   18  S1  UNL     1      -3.568   7.572   8.953  1.00  0.00    -0.088 SA
BRANCH  18  19
HETATM   19  C8  UNL     1      -3.163   7.906   7.235  1.00  0.00     0.203 C
BRANCH  19  20
HETATM   20  N4  UNL     1      -1.710   7.617   7.004  1.00  0.00    -0.362 N
ATOM     21  H4  UNL     1      -1.388   6.814   6.465  1.00  0.00     0.162 HD
BRANCH  20  22
HETATM   22  C9  UNL     1      -0.829   8.540   7.589  1.00  0.00     0.135 C
BRANCH  22  23
HETATM   23  O3  UNL     1      -0.745   9.716   7.001  1.00  0.00    -0.346 OA
ATOM     24  H3  UNL     1       0.132  10.033   6.821  1.00  0.00     0.219 HD
ENDBRANCH  22  23
BRANCH  22  25
HETATM   25  C10 UNL     1      -0.016   8.345   8.750  1.00  0.00     0.052 C
BRANCH  25  26
HETATM   26  C11 UNL     1      -0.143   8.598   9.988  1.00  0.00    -0.008 C
BRANCH  26  27
HETATM   27  C12 UNL     1      -0.774   9.713  10.674  1.00  0.00     0.142 C
HETATM   28 CL1  UNL     1      -1.780   9.000  11.989  1.00  0.00    -0.126 Cl
ENDBRANCH  26  27
ENDBRANCH  25  26
ENDBRANCH  22  25
ENDBRANCH  20  22
ENDBRANCH  19  20
ENDBRANCH  18  19
ENDBRANCH  13  18
BRANCH  12  29
HETATM   29  O2  UNL     1      -3.244  10.555   8.350  1.00  0.00    -0.344 OA
ATOM     30  H2  UNL     1      -2.505   9.979   8.196  1.00  0.00     0.219 HD
ENDBRANCH  12  29
BRANCH  15  31
HETATM   31  N6  UNL     1      -4.950   6.465  10.469  1.00  0.00    -0.384 N
ATOM     32  H62 UNL     1      -5.384   5.816   9.813  1.00  0.00     0.157 HD
ATOM     33  H61 UNL     1      -3.956   6.396  10.685  1.00  0.00     0.157 HD
ENDBRANCH  15  31
TORSDOF 10
ENDMDL