MODEL 2
REMARK VINA RESULT: -6.380288142      0.961      2.274
REMARK  4 active torsions:
REMARK  status: ('A' for Active; 'I' for Inactive)
REMARK       I    between atoms: N1_2  and  C2_4
REMARK    1  A    between atoms: C2_4  and  C3_6
REMARK    2  A    between atoms: C4_9  and  C5_10
REMARK    3  A    between atoms: C7_12  and  C8_13
REMARK    4  A    between atoms: C13_23  and  N5_24
ROOT
HETATM    1  C3  UNL     1      -6.178   9.031  10.817  1.00  0.00     0.130 A
HETATM    2  N2  UNL     1      -6.744   7.939  11.427  1.00  0.00    -0.334 N
ATOM      3  H2  UNL     1      -7.662   8.035  11.860  1.00  0.00     0.168 HD
HETATM    4  C4  UNL     1      -6.122   6.743  11.472  1.00  0.00     0.134 A
HETATM    5  N4  UNL     1      -4.926   6.676  10.877  1.00  0.00    -0.325 N
ATOM      6  H4  UNL     1      -4.438   5.780  10.896  1.00  0.00     0.169 HD
HETATM    7  C13 UNL     1      -4.324   7.694  10.259  1.00  0.00     0.132 A
HETATM    8  C19 UNL     1      -4.950   8.933  10.213  1.00  0.00     0.122 A
HETATM    9  N7  UNL     1      -4.335  10.061   9.561  1.00  0.00    -0.096 NA
ENDROOT
BRANCH   4  10
HETATM   10  C5  UNL     1      -6.713   5.565  12.135  1.00  0.00     0.077 A
HETATM   11  C6  UNL     1      -6.064   4.735  12.964  1.00  0.00     0.044 A
HETATM   12  C7  UNL     1      -6.655   3.616  13.489  1.00  0.00    -0.012 A
HETATM   13  C11 UNL     1      -7.986   3.348  13.129  1.00  0.00     0.138 A
HETATM   14  F1  UNL     1      -8.556   2.244  13.633  1.00  0.00    -0.204 F
HETATM   15  C12 UNL     1      -8.644   4.188  12.295  1.00  0.00     0.131 A
HETATM   16  N3  UNL     1      -8.008   5.260  11.827  1.00  0.00    -0.360 N
ATOM     17  H3  UNL     1      -8.516   5.887  11.203  1.00  0.00     0.165 HD
BRANCH  12  18
HETATM   18  C8  UNL     1      -5.956   2.597  14.262  1.00  0.00     0.013 C
HETATM   19  C9  UNL     1      -4.745   3.055  15.050  1.00  0.00     0.015 C
HETATM   20  C10 UNL     1      -5.291   1.710  13.114  1.00  0.00     0.015 C
ENDBRANCH  12  18
ENDBRANCH   4  10
BRANCH   1  21
HETATM   21  C2  UNL     1      -6.824  10.320  10.992  1.00  0.00     0.269 C
HETATM   22  N1  UNL     1      -6.293  11.439  11.621  1.00  0.00    -0.360 N
HETATM   23  C1  UNL     1      -7.011  12.696  11.698  1.00  0.00     0.149 C
ATOM     24  H1  UNL     1      -5.366  11.374  12.043  1.00  0.00     0.162 HD
HETATM   25  O1  UNL     1      -8.004  10.377  10.484  1.00  0.00    -0.266 OA
ENDBRANCH   1  21
BRANCH   7  26
HETATM   26  N5  UNL     1      -3.069   7.543   9.617  1.00  0.00    -0.364 N
HETATM   27  C14 UNL     1      -2.999   6.890   8.309  1.00  0.00     0.126 C
HETATM   28  C15 UNL     1      -2.885   7.969   7.263  1.00  0.00     0.047 C
HETATM   29  C16 UNL     1      -1.504   8.553   7.200  1.00  0.00     0.234 C
HETATM   30  N6  UNL     1      -1.137   9.199   8.451  1.00  0.00    -0.074 N
HETATM   31  C17 UNL     1      -0.758   8.254   9.489  1.00  0.00     0.252 C
ATOM     32  H62 UNL     1      -0.403   9.891   8.302  1.00  0.00     0.277 HD
ATOM     33  H61 UNL     1      -1.883   9.815   8.775  1.00  0.00     0.277 HD
HETATM   34  C18 UNL     1      -1.961   8.084  10.375  1.00  0.00     0.152 C
ENDBRANCH   7  26
TORSDOF 4
ENDMDL