MODEL 4
REMARK VINA RESULT: -5.682150664      3.491      8.009
REMARK  8 active torsions:
REMARK  status: ('A' for Active; 'I' for Inactive)
REMARK    1  A    between atoms: C2_2  and  O1_5
REMARK    2  A    between atoms: O1_5  and  C4_6
REMARK    3  A    between atoms: C4_6  and  N1_7
REMARK    4  A    between atoms: C4_6  and  C5_10
REMARK    5  A    between atoms: C6_11  and  N2_12
REMARK    6  A    between atoms: C10_16  and  C11_17
REMARK    7  A    between atoms: C11_17  and  N3_18
REMARK    8  A    between atoms: C19_33  and  N7_34
ROOT
HETATM    1  C5  UNL     1      -3.409   7.897   9.193  1.00  0.00     0.102 A
HETATM    2  C6  UNL     1      -2.618   8.979   9.410  1.00  0.00     0.122 A
HETATM    3  N5  UNL     1      -1.782   9.446   8.408  1.00  0.00    -0.338 N
ATOM      4  H5  UNL     1      -1.197  10.261   8.593  1.00  0.00     0.168 HD
HETATM    5  C18 UNL     1      -1.722   8.864   7.213  1.00  0.00     0.183 A
HETATM    6  N6  UNL     1      -2.509   7.795   7.008  1.00  0.00    -0.338 N
ATOM      7  H6  UNL     1      -2.473   7.338   6.096  1.00  0.00     0.168 HD
HETATM    8  C19 UNL     1      -3.330   7.300   7.926  1.00  0.00     0.118 A
ENDROOT
BRANCH   2   9
HETATM    9  N2  UNL     1      -2.617   9.656  10.647  1.00  0.00    -0.366 N
HETATM   10  C7  UNL     1      -1.599   9.278  11.639  1.00  0.00     0.124 C
HETATM   11  C8  UNL     1      -0.661  10.478  11.687  1.00  0.00     0.020 C
HETATM   12  C9  UNL     1      -1.388  11.726  12.051  1.00  0.00     0.009 C
HETATM   13  C10 UNL     1      -2.616  12.018  11.244  1.00  0.00     0.032 C
HETATM   14  C17 UNL     1      -3.475  10.740  11.043  1.00  0.00     0.130 C
BRANCH  13  15
HETATM   15  C11 UNL     1      -3.516  12.984  11.960  1.00  0.00     0.278 C
BRANCH  15  16
HETATM   16  N3  UNL     1      -3.928  14.113  11.186  1.00  0.00     0.090 N
HETATM   17  C12 UNL     1      -5.278  14.541  11.482  1.00  0.00     0.274 C
HETATM   18  C13 UNL     1      -5.831  15.216  10.249  1.00  0.00     0.057 C
HETATM   19  C14 UNL     1      -5.685  16.726  10.371  1.00  0.00     0.234 C
HETATM   20  N4  UNL     1      -4.542  17.115  11.136  1.00  0.00    -0.073 N
HETATM   21  C15 UNL     1      -3.323  16.459  10.762  1.00  0.00     0.262 C
ATOM     22  H42 UNL     1      -4.424  18.128  11.105  1.00  0.00     0.277 HD
ATOM     23  H41 UNL     1      -4.722  16.990  12.132  1.00  0.00     0.277 HD
HETATM   24  C16 UNL     1      -3.051  15.221  11.564  1.00  0.00     0.299 C
ENDBRANCH  15  16
ENDBRANCH  13  15
ENDBRANCH   2   9
BRANCH   1  25
HETATM   25  C4  UNL     1      -4.324   7.325  10.179  1.00  0.00     0.157 C
BRANCH  25  26
HETATM   26  O1  UNL     1      -5.664   7.715  10.208  1.00  0.00    -0.294 OA
BRANCH  26  27
HETATM   27  C2  UNL     1      -6.356   8.283  11.264  1.00  0.00     0.204 C
HETATM   28  C1  UNL     1      -7.447   7.439  11.856  1.00  0.00     0.084 C
HETATM   29  C3  UNL     1      -6.956   9.597  10.717  1.00  0.00     0.084 C
HETATM   30  F1  UNL     1      -5.539   8.713  12.318  1.00  0.00    -0.212 F
ENDBRANCH  26  27
ENDBRANCH  25  26
BRANCH  25  31
HETATM   31  N1  UNL     1      -3.969   6.468  11.039  1.00  0.00    -0.379 N
ATOM     32  H12 UNL     1      -3.038   6.052  11.063  1.00  0.00     0.158 HD
ATOM     33  H11 UNL     1      -4.672   6.200  11.729  1.00  0.00     0.158 HD
ENDBRANCH  25  31
ENDBRANCH   1  25
BRANCH   8  34
HETATM   34  N7  UNL     1      -4.084   6.266   7.716  1.00  0.00    -0.385 N
ATOM     35  H72 UNL     1      -3.907   5.354   8.137  1.00  0.00     0.157 HD
ATOM     36  H71 UNL     1      -4.886   6.397   7.099  1.00  0.00     0.157 HD
ENDBRANCH   8  34
TORSDOF 8
ENDMDL