MODEL 5
REMARK VINA RESULT: -5.945275247      2.731      3.749
REMARK  5 active torsions:
REMARK  status: ('A' for Active; 'I' for Inactive)
REMARK    1  A    between atoms: N1_2  and  C2_4
REMARK    2  A    between atoms: C2_4  and  C5_7
REMARK    3  A    between atoms: C8_12  and  N3_13
REMARK    4  A    between atoms: C9_16  and  C10_17
REMARK    5  A    between atoms: C11_20  and  N5_21
ROOT
HETATM    1  C5  UNL     1      -9.708   8.665  12.694  1.00  0.00     0.035 A
HETATM    2  C6  UNL     1      -8.967   7.529  12.936  1.00  0.00     0.102 A
HETATM    3  N2  UNL     1      -7.700   7.374  12.477  1.00  0.00    -0.362 N
ATOM      4  H2  UNL     1      -7.197   6.512  12.687  1.00  0.00     0.165 HD
HETATM    5  C7  UNL     1      -7.089   8.326  11.754  1.00  0.00     0.081 A
HETATM    6  C8  UNL     1      -5.773   8.109  11.298  1.00  0.00     0.147 A
HETATM    7  C9  UNL     1      -5.189   9.092  10.565  1.00  0.00     0.083 A
HETATM    8  C14 UNL     1      -5.927  10.275  10.297  1.00  0.00     0.134 A
HETATM    9  F1  UNL     1      -5.331  11.234   9.573  1.00  0.00    -0.205 F
HETATM   10  C15 UNL     1      -7.203  10.438  10.762  1.00  0.00     0.061 A
HETATM   11  C16 UNL     1      -7.807   9.459  11.504  1.00  0.00     0.047 A
HETATM   12  C17 UNL     1      -9.092   9.650  11.953  1.00  0.00     0.194 A
HETATM   13  O3  UNL     1      -9.684  10.724  11.676  1.00  0.00    -0.287 OA
ENDROOT
BRANCH   7  14
HETATM   14  C10 UNL     1      -3.828   9.041  10.068  1.00  0.00     0.138 A
HETATM   15  N4  UNL     1      -2.887   9.710  10.839  1.00  0.00    -0.176 N
HETATM   16  C11 UNL     1      -1.620   9.780  10.442  1.00  0.00     0.678 A
ATOM     17  H4  UNL     1      -3.169  10.150  11.715  1.00  0.00     0.186 HD
HETATM   18  N6  UNL     1      -1.181   9.220   9.291  1.00  0.00    -0.181 N
HETATM   19  C12 UNL     1      -2.070   8.572   8.535  1.00  0.00     0.095 A
ATOM     20  H6  UNL     1      -0.203   9.291   9.012  1.00  0.00     0.185 HD
HETATM   21  C13 UNL     1      -1.689   7.929   7.263  1.00  0.00     0.089 C
HETATM   22  N7  UNL     1      -3.378   8.499   8.948  1.00  0.00    -0.331 N
ATOM     23  H7  UNL     1      -4.041   7.998   8.356  1.00  0.00     0.168 HD
BRANCH  16  24
HETATM   24  N5  UNL     1      -0.807  10.423  11.224  1.00  0.00    -0.234 N
ATOM     25  H52 UNL     1      -0.890  11.432  11.350  1.00  0.00     0.174 HD
ATOM     26  H51 UNL     1      -0.095   9.865  11.694  1.00  0.00     0.174 HD
ENDBRANCH  16  24
ENDBRANCH   7  14
BRANCH   6  27
HETATM   27  N3  UNL     1      -5.204   6.849  11.631  1.00  0.00    -0.112 N
HETATM   28  O1  UNL     1      -5.351   5.879  10.860  1.00  0.00    -0.532 OA
HETATM   29  O2  UNL     1      -4.474   6.732  12.779  1.00  0.00    -0.532 OA
ENDBRANCH   6  27
BRANCH   1  30
HETATM   30  C2  UNL     1     -11.097   8.812  13.222  1.00  0.00     0.050 C
HETATM   31  C3  UNL     1     -11.562   7.450  13.767  1.00  0.00     0.043 C
HETATM   32  C4  UNL     1     -11.097   9.749  14.392  1.00  0.00     0.043 C
BRANCH  30  33
HETATM   33  N1  UNL     1     -11.966   9.184  12.172  1.00  0.00    -0.413 N
HETATM   34  C1  UNL     1     -13.100   9.974  12.510  1.00  0.00     0.141 C
ATOM     35  H1  UNL     1     -11.787   8.898  11.209  1.00  0.00     0.153 HD
ENDBRANCH  30  33
ENDBRANCH   1  30
TORSDOF 5
ENDMDL