MODEL 1
REMARK VINA RESULT: -5.857335859      0.000      0.000
REMARK  7 active torsions:
REMARK  status: ('A' for Active; 'I' for Inactive)
REMARK    1  A    between atoms: C2_2  and  C3_3
REMARK    2  A    between atoms: C3_3  and  N1_5
REMARK    3  A    between atoms: N1_5  and  C5_7
REMARK    4  A    between atoms: C7_13  and  N4_14
REMARK    5  A    between atoms: N4_14  and  C8_16
REMARK    6  A    between atoms: C11_21  and  N6_22
REMARK    7  A    between atoms: C14_25  and  N7_26
ROOT
HETATM    1  C5  UNL     1      -2.993   9.348   9.661  1.00  0.00     0.681 A
HETATM    2  N2  UNL     1      -3.461   8.126  10.000  1.00  0.00    -0.175 N
ATOM      3  H2  UNL     1      -2.892   7.304   9.804  1.00  0.00     0.186 HD
HETATM    4  C6  UNL     1      -4.649   7.969  10.584  1.00  0.00     0.153 A
HETATM    5  N3  UNL     1      -5.114   6.745  10.904  1.00  0.00    -0.175 N
ATOM      6  H3  UNL     1      -4.545   5.922  10.706  1.00  0.00     0.186 HD
HETATM    7  C7  UNL     1      -6.314   6.597  11.478  1.00  0.00     0.681 A
HETATM    8  N5  UNL     1      -7.065   7.668  11.741  1.00  0.00    -0.176 N
ATOM      9  H5  UNL     1      -7.976   7.529  12.178  1.00  0.00     0.186 HD
HETATM   10  C11 UNL     1      -6.656   8.976  11.441  1.00  0.00     0.136 A
HETATM   11  C17 UNL     1      -5.434   9.105  10.854  1.00  0.00     0.093 A
HETATM   12  C18 UNL     1      -4.943  10.335  10.500  1.00  0.00     0.137 A
HETATM   13 CL1  UNL     1      -5.873  11.791  10.726  1.00  0.00    -0.063 Cl
HETATM   14  N8  UNL     1      -3.723  10.429   9.908  1.00  0.00    -0.180 N
ATOM     15  H8  UNL     1      -3.361  11.347   9.649  1.00  0.00     0.185 HD
ENDROOT
BRANCH  10  16
HETATM   16  N6  UNL     1      -7.556   9.963  11.881  1.00  0.00    -0.364 N
HETATM   17  C12 UNL     1      -7.725  10.453  13.217  1.00  0.00     0.126 C
HETATM   18  C13 UNL     1      -9.235  10.840  13.261  1.00  0.00     0.054 C
HETATM   19  C14 UNL     1      -9.355  11.464  11.902  1.00  0.00     0.204 C
HETATM   20  C16 UNL     1      -8.576  10.528  11.032  1.00  0.00     0.157 C
BRANCH  19  21
HETATM   21  N7  UNL     1     -10.727  11.641  11.484  1.00  0.00    -0.073 N
HETATM   22  C15 UNL     1     -11.438  10.427  11.790  1.00  0.00     0.267 C
ATOM     23  H72 UNL     1     -11.163  12.468  11.892  1.00  0.00     0.277 HD
ATOM     24  H71 UNL     1     -10.811  11.913  10.504  1.00  0.00     0.277 HD
ENDBRANCH  19  21
ENDBRANCH  10  16
BRANCH   7  25
HETATM   25  N4  UNL     1      -6.764   5.459  11.779  1.00  0.00    -0.222 N
ATOM     26  H4  UNL     1      -6.289   4.694  11.299  1.00  0.00     0.178 HD
BRANCH  25  27
HETATM   27  C8  UNL     1      -7.790   5.032  12.643  1.00  0.00     0.091 C
HETATM   28  C9  UNL     1      -7.334   4.127  13.782  1.00  0.00     0.032 C
HETATM   29  C10 UNL     1      -8.998   4.415  11.983  1.00  0.00     0.032 C
ENDBRANCH  25  27
ENDBRANCH   7  25
BRANCH   1  30
HETATM   30  N1  UNL     1      -1.853   9.452   9.110  1.00  0.00    -0.222 N
ATOM     31  H1  UNL     1      -1.359  10.342   9.189  1.00  0.00     0.178 HD
BRANCH  30  32
HETATM   32  C3  UNL     1      -1.221   8.388   8.382  1.00  0.00     0.095 C
HETATM   33  C4  UNL     1      -1.919   8.302   7.029  1.00  0.00     0.032 C
BRANCH  32  34
HETATM   34  C2  UNL     1       0.265   8.616   8.194  1.00  0.00     0.021 C
HETATM   35  C1  UNL     1       1.075   7.784   9.154  1.00  0.00     0.007 C
ENDBRANCH  32  34
ENDBRANCH  30  32
ENDBRANCH   1  30
TORSDOF 7
ENDMDL