MODEL 4
REMARK VINA RESULT: -6.574513821      1.658      5.321
REMARK  7 active torsions:
REMARK  status: ('A' for Active; 'I' for Inactive)
REMARK    1  A    between atoms: O1_1  and  C1_3
REMARK    2  A    between atoms: C1_3  and  C2_4
REMARK    3  A    between atoms: C3_6  and  C4_7
REMARK    4  A    between atoms: C7_11  and  O4_12
REMARK    5  A    between atoms: C8_14  and  O5_15
REMARK    6  A    between atoms: C9_17  and  O6_18
REMARK    7  A    between atoms: C10_20  and  O7_21
ROOT
HETATM    1  C2  UNL     1       1.448   2.884  55.874  1.00  0.00     0.183 C
HETATM    2  O2  UNL     1       2.214   2.095  55.030  1.00  0.00    -0.342 OA
HETATM    3  C3  UNL     1       1.585   1.881  53.843  1.00  0.00     0.093 C
HETATM    4  C8  UNL     1       0.341   1.059  53.970  1.00  0.00     0.207 C
HETATM    5  C9  UNL     1      -0.524   1.551  55.050  1.00  0.00     0.184 C
HETATM    6  C10 UNL     1       0.124   2.201  56.207  1.00  0.00     0.181 C
ENDROOT
BRANCH   3   7
HETATM    7  C4  UNL     1       2.431   1.626  52.677  1.00  0.00     0.056 A
HETATM    8  C5  UNL     1       2.343   0.546  51.786  1.00  0.00     0.043 A
HETATM    9  C6  UNL     1       3.218   0.801  50.749  1.00  0.00     0.146 A
HETATM   10  O3  UNL     1       3.799   1.954  51.004  1.00  0.00    -0.300 OA
HETATM   11  C7  UNL     1       3.383   2.474  52.101  1.00  0.00     0.195 A
BRANCH  11  12
HETATM   12  O4  UNL     1       3.790   3.677  52.656  1.00  0.00    -0.340 OA
ATOM     13  H4  UNL     1       3.196   4.330  53.007  1.00  0.00     0.220 HD
ENDBRANCH  11  12
ENDBRANCH   3   7
BRANCH   4  14
HETATM   14  O5  UNL     1      -0.356   1.076  52.756  1.00  0.00    -0.386 OA
ATOM     15  H5  UNL     1       0.227   0.811  52.054  1.00  0.00     0.210 HD
ENDBRANCH   4  14
BRANCH   1  16
HETATM   16  C1  UNL     1       1.178   4.281  55.381  1.00  0.00     0.199 C
BRANCH  16  17
HETATM   17  O1  UNL     1       2.370   4.928  55.109  1.00  0.00    -0.398 OA
ATOM     18  H1  UNL     1       3.035   4.663  55.734  1.00  0.00     0.209 HD
ENDBRANCH  16  17
ENDBRANCH   1  16
BRANCH   5  19
HETATM   19  O6  UNL     1      -1.233   0.425  55.527  1.00  0.00    -0.390 OA
ATOM     20  H6  UNL     1      -2.155   0.639  55.443  1.00  0.00     0.210 HD
ENDBRANCH   5  19
BRANCH   6  21
HETATM   21  O7  UNL     1      -0.721   3.234  56.652  1.00  0.00    -0.390 OA
ATOM     22  H7  UNL     1      -1.088   3.612  55.862  1.00  0.00     0.210 HD
ENDBRANCH   6  21
TORSDOF 7
ENDMDL