MODEL 1
REMARK VINA RESULT: -7.329321390      0.000      0.000
REMARK  6 active torsions:
REMARK  status: ('A' for Active; 'I' for Inactive)
REMARK    1  A    between atoms: O1_1  and  C1_3
REMARK    2  A    between atoms: C2_5  and  N1_6
REMARK    3  A    between atoms: N1_6  and  C3_8
REMARK    4  A    between atoms: C9_14  and  O3_15
REMARK    5  A    between atoms: C10_17  and  O4_18
REMARK    6  A    between atoms: C11_20  and  O5_21
ROOT
HETATM    1  C1  UNL     1       1.723   9.422  57.583  1.00  0.00     0.290 C
HETATM    2  O2  UNL     1       1.996   8.075  57.580  1.00  0.00    -0.332 OA
HETATM    3  C2  UNL     1       1.862   7.567  56.285  1.00  0.00     0.256 C
HETATM    4  C9  UNL     1       0.647   8.149  55.599  1.00  0.00     0.198 C
HETATM    5  C10 UNL     1      -0.368   8.690  56.566  1.00  0.00     0.184 C
HETATM    6  C11 UNL     1       0.220   9.584  57.618  1.00  0.00     0.204 C
ENDROOT
BRANCH   3   7
HETATM    7  N1  UNL     1       1.813   6.126  56.399  1.00  0.00    -0.361 N
ATOM      8  H1  UNL     1       1.616   5.739  57.323  1.00  0.00     0.162 HD
BRANCH   7   9
HETATM    9  C3  UNL     1       2.012   5.217  55.357  1.00  0.00     0.029 A
HETATM   10  C4  UNL     1       2.815   5.490  54.270  1.00  0.00     0.029 A
HETATM   11  C5  UNL     1       3.005   4.580  53.232  1.00  0.00     0.002 A
HETATM   12  C6  UNL     1       2.367   3.351  53.288  1.00  0.00     0.000 A
HETATM   13  C7  UNL     1       1.574   3.099  54.375  1.00  0.00     0.002 A
HETATM   14  C8  UNL     1       1.384   3.994  55.400  1.00  0.00     0.029 A
ENDBRANCH   7   9
ENDBRANCH   3   7
BRANCH   4  15
HETATM   15  O3  UNL     1       0.967   9.153  54.696  1.00  0.00    -0.389 OA
ATOM     16  H3  UNL     1       1.775   9.602  54.915  1.00  0.00     0.210 HD
ENDBRANCH   4  15
BRANCH   1  17
HETATM   17  O1  UNL     1       2.336   9.986  58.705  1.00  0.00    -0.368 OA
ATOM     18  H1  UNL     1       1.678  10.474  59.186  1.00  0.00     0.212 HD
ENDBRANCH   1  17
BRANCH   5  19
HETATM   19  O4  UNL     1      -1.051   7.643  57.168  1.00  0.00    -0.390 OA
ATOM     20  H4  UNL     1      -1.974   7.857  57.238  1.00  0.00     0.210 HD
ENDBRANCH   5  19
BRANCH   6  21
HETATM   21  O5  UNL     1      -0.164  10.898  57.492  1.00  0.00    -0.388 OA
ATOM     22  H5  UNL     1       0.374  11.482  58.013  1.00  0.00     0.210 HD
ENDBRANCH   6  21
TORSDOF 6
ENDMDL