MODEL 5
REMARK VINA RESULT: -5.573325009      3.353      5.255
REMARK  7 active torsions:
REMARK  status: ('A' for Active; 'I' for Inactive)
REMARK    1  A    between atoms: C2_2  and  N2_6
REMARK    2  A    between atoms: C3_7  and  C4_8
REMARK    3  A    between atoms: C4_8  and  O1_9
REMARK    4  A    between atoms: C5_11  and  O2_12
REMARK    5  A    between atoms: C6_14  and  C7_15
REMARK    6  A    between atoms: C7_15  and  O3_16
REMARK    7  A    between atoms: N3_18  and  O4_19
ROOT
HETATM    1  N2  UNL     1       0.599   2.091  55.437  1.00  0.00    -0.266 N
HETATM    2  C3  UNL     1       0.111   0.972  54.666  1.00  0.00     0.160 C
HETATM    3  C5  UNL     1      -0.901   0.349  55.632  1.00  0.00     0.168 C
HETATM    4  C6  UNL     1      -0.187   0.672  56.923  1.00  0.00     0.164 C
HETATM    5  N3  UNL     1       0.071   2.087  56.731  1.00  0.00    -0.094 NA
ENDROOT
BRANCH   1   6
HETATM    6  C2  UNL     1       1.497   3.084  54.976  1.00  0.00     0.099 C
HETATM    7  C1  UNL     1       2.612   2.778  54.040  1.00  0.00     0.091 C
HETATM    8  N1  UNL     1       1.371   4.318  55.363  1.00  0.00    -0.308 N
HETATM    9  S1  UNL     1       2.454   5.588  54.824  1.00  0.00     0.043 SA
ATOM     10  H1  UNL     1       0.615   4.557  56.004  1.00  0.00     0.176 HD
ENDBRANCH   1   6
BRANCH   2  11
HETATM   11  C4  UNL     1      -0.498   1.351  53.359  1.00  0.00     0.193 C
BRANCH  11  12
HETATM   12  O1  UNL     1      -1.307   2.455  53.403  1.00  0.00    -0.399 OA
ATOM     13  H1  UNL     1      -1.050   3.159  52.820  1.00  0.00     0.209 HD
ENDBRANCH  11  12
ENDBRANCH   2  11
BRANCH   5  14
HETATM   14  O4  UNL     1      -1.045   2.826  56.804  1.00  0.00    -0.293 OA
ATOM     15  H4  UNL     1      -0.894   3.711  56.493  1.00  0.00     0.239 HD
ENDBRANCH   5  14
BRANCH   3  16
HETATM   16  O2  UNL     1      -2.117   1.028  55.548  1.00  0.00    -0.392 OA
ATOM     17  H2  UNL     1      -2.349   1.382  56.398  1.00  0.00     0.210 HD
ENDBRANCH   3  16
BRANCH   4  18
HETATM   18  C7  UNL     1      -1.000   0.383  58.145  1.00  0.00     0.190 C
BRANCH  18  19
HETATM   19  O3  UNL     1      -0.486   1.188  59.172  1.00  0.00    -0.399 OA
ATOM     20  H3  UNL     1      -1.025   1.031  59.938  1.00  0.00     0.209 HD
ENDBRANCH  18  19
ENDBRANCH   4  18
TORSDOF 7
ENDMDL