MODEL 5
REMARK VINA RESULT: -6.191799056      1.449      5.170
REMARK  7 active torsions:
REMARK  status: ('A' for Active; 'I' for Inactive)
REMARK    1  A    between atoms: O1_1  and  C1_3
REMARK    2  A    between atoms: C1_3  and  C2_4
REMARK    3  A    between atoms: C3_6  and  C4_7
REMARK    4  A    between atoms: C7_10  and  O3_11
REMARK    5  A    between atoms: C8_13  and  O4_14
REMARK    6  A    between atoms: C9_16  and  O5_17
REMARK    7  A    between atoms: C10_19  and  O6_20
ROOT
HETATM    1  C2  UNL     1       0.941   1.338  52.651  1.00  0.00     0.176 C
HETATM    2  O2  UNL     1       0.537   0.811  53.863  1.00  0.00    -0.373 OA
HETATM    3  C3  UNL     1       0.150   1.869  54.671  1.00  0.00     0.160 C
HETATM    4  C9  UNL     1       1.207   2.919  54.357  1.00  0.00     0.178 C
HETATM    5  C10 UNL     1       1.304   2.770  52.853  1.00  0.00     0.180 C
ENDROOT
BRANCH   3   6
HETATM    6  C4  UNL     1       0.213   1.451  56.130  1.00  0.00     0.049 C
HETATM    7  C5  UNL     1      -0.146  -0.029  56.168  1.00  0.00     0.012 C
HETATM    8  C6  UNL     1      -1.394  -0.130  57.022  1.00  0.00     0.035 C
HETATM    9  C7  UNL     1      -1.233   1.066  57.939  1.00  0.00     0.147 C
HETATM   10  C8  UNL     1      -0.868   2.149  56.922  1.00  0.00     0.153 C
BRANCH   9  11
HETATM   11  O3  UNL     1      -2.400   1.382  58.606  1.00  0.00    -0.393 OA
ATOM     12  H3  UNL     1      -3.149   1.434  58.024  1.00  0.00     0.210 HD
ENDBRANCH   9  11
BRANCH  10  13
HETATM   13  O4  UNL     1      -0.432   3.302  57.535  1.00  0.00    -0.393 OA
ATOM     14  H4  UNL     1      -0.481   3.262  58.483  1.00  0.00     0.210 HD
ENDBRANCH  10  13
ENDBRANCH   3   6
BRANCH   4  15
HETATM   15  O5  UNL     1       0.832   4.184  54.745  1.00  0.00    -0.390 OA
ATOM     16  H5  UNL     1      -0.092   4.352  54.606  1.00  0.00     0.210 HD
ENDBRANCH   4  15
BRANCH   1  17
HETATM   17  C1  UNL     1       2.110   0.529  52.129  1.00  0.00     0.198 C
BRANCH  17  18
HETATM   18  O1  UNL     1       2.394   0.781  50.803  1.00  0.00    -0.398 OA
ATOM     19  H1  UNL     1       3.266   0.501  50.549  1.00  0.00     0.209 HD
ENDBRANCH  17  18
ENDBRANCH   1  17
BRANCH   5  20
HETATM   20  O6  UNL     1       2.588   3.067  52.389  1.00  0.00    -0.390 OA
ATOM     21  H6  UNL     1       2.614   3.865  51.874  1.00  0.00     0.210 HD
ENDBRANCH   5  20
TORSDOF 7
ENDMDL