MODEL 5
REMARK VINA RESULT: -5.071617579      4.454      7.157
REMARK  6 active torsions:
REMARK  status: ('A' for Active; 'I' for Inactive)
REMARK    1  A    between atoms: O1_1  and  C1_3
REMARK    2  A    between atoms: C2_4  and  C3_5
REMARK    3  A    between atoms: C4_8  and  O3_9
REMARK    4  A    between atoms: C5_11  and  O4_12
REMARK    5  A    between atoms: C5_11  and  C6_14
REMARK    6  A    between atoms: C7_16  and  O5_17
ROOT
HETATM    1  C1  UNL     1      -3.322   1.290  57.520  1.00  0.00     0.179 C
HETATM    2  C2  UNL     1      -1.835   1.549  57.404  1.00  0.00     0.166 C
HETATM    3  O2  UNL     1      -1.670   2.910  57.271  1.00  0.00    -0.350 OA
HETATM    4  C4  UNL     1      -1.752   3.463  58.560  1.00  0.00     0.295 C
HETATM    5  C5  UNL     1      -3.041   3.103  59.238  1.00  0.00     0.144 C
HETATM    6  C7  UNL     1      -3.980   2.334  58.359  1.00  0.00     0.189 C
ENDROOT
BRANCH   5   7
HETATM    7  O4  UNL     1      -2.760   2.367  60.397  1.00  0.00    -0.381 OA
ATOM      8  H4  UNL     1      -2.140   2.851  60.930  1.00  0.00     0.211 HD
ENDBRANCH   5   7
BRANCH   5   9
HETATM    9  C6  UNL     1      -3.758   4.368  59.721  1.00  0.00     0.131 C
HETATM   10  S2  UNL     1      -3.943   4.399  61.501  1.00  0.00    -0.094 SA
ENDBRANCH   5   9
BRANCH   4  11
HETATM   11  O3  UNL     1      -1.568   4.847  58.480  1.00  0.00    -0.368 OA
ATOM     12  H3  UNL     1      -1.063   5.051  57.702  1.00  0.00     0.212 HD
ENDBRANCH   4  11
BRANCH   6  13
HETATM   13  O5  UNL     1      -4.909   1.706  59.202  1.00  0.00    -0.390 OA
ATOM     14  H5  UNL     1      -5.752   2.131  59.091  1.00  0.00     0.210 HD
ENDBRANCH   6  13
BRANCH   1  15
HETATM   15  O1  UNL     1      -3.819   1.303  56.196  1.00  0.00    -0.390 OA
ATOM     16  H1  UNL     1      -4.022   2.211  56.005  1.00  0.00     0.210 HD
ENDBRANCH   1  15
BRANCH   2  17
HETATM   17  C3  UNL     1      -1.224   0.774  56.257  1.00  0.00     0.120 C
HETATM   18  S1  UNL     1      -0.111   1.907  55.380  1.00  0.00    -0.095 SA
ENDBRANCH   2  17
TORSDOF 6
ENDMDL