MODEL 2
REMARK VINA RESULT: -5.477452562      1.377      1.536
REMARK  7 active torsions:
REMARK  status: ('A' for Active; 'I' for Inactive)
REMARK    1  A    between atoms: C2_2  and  N1_3
REMARK    2  A    between atoms: C3_5  and  C4_6
REMARK    3  A    between atoms: C5_7  and  O1_8
REMARK    4  A    between atoms: C6_10  and  O2_11
REMARK    5  A    between atoms: C7_13  and  O3_14
REMARK    6  A    between atoms: C8_16  and  O4_17
REMARK    7  A    between atoms: C9_19  and  O5_21
ROOT
HETATM    1  C4  UNL     1       1.450   1.848  54.276  1.00  0.00     0.091 C
HETATM    2  C5  UNL     1       1.591   3.297  54.674  1.00  0.00     0.161 C
HETATM    3  C6  UNL     1       2.363   4.116  53.696  1.00  0.00     0.178 C
HETATM    4  C7  UNL     1       3.384   3.287  52.958  1.00  0.00     0.181 C
HETATM    5  C8  UNL     1       2.802   2.095  52.271  1.00  0.00     0.184 C
HETATM    6  C9  UNL     1       1.394   1.783  52.750  1.00  0.00     0.093 C
HETATM    7  C10 UNL     1       1.008   0.388  52.329  1.00  0.00     0.049 C
ENDROOT
BRANCH   1   8
HETATM    8  C3  UNL     1       0.250   1.210  54.829  1.00  0.00     0.066 C
HETATM    9  N1  UNL     1       0.030   0.962  56.053  1.00  0.00    -0.402 N
ATOM     10  H1  UNL     1      -0.855   0.512  56.288  1.00  0.00     0.158 HD
BRANCH   9  11
HETATM   11  C2  UNL     1       0.914   1.259  57.122  1.00  0.00     0.114 C
HETATM   12  C1  UNL     1       0.200   0.875  58.419  1.00  0.00     0.026 C
ENDBRANCH   9  11
ENDBRANCH   1   8
BRANCH   2  13
HETATM   13  O1  UNL     1       0.313   3.835  54.858  1.00  0.00    -0.392 OA
ATOM     14  H1  UNL     1       0.284   4.261  55.707  1.00  0.00     0.210 HD
ENDBRANCH   2  13
BRANCH   6  15
HETATM   15  O5  UNL     1       0.460   2.685  52.308  1.00  0.00    -0.387 OA
ATOM     16  H5  UNL     1       0.829   3.172  51.580  1.00  0.00     0.210 HD
ENDBRANCH   6  15
BRANCH   3  17
HETATM   17  O2  UNL     1       3.076   5.083  54.426  1.00  0.00    -0.390 OA
ATOM     18  H2  UNL     1       2.727   5.934  54.189  1.00  0.00     0.210 HD
ENDBRANCH   3  17
BRANCH   5  19
HETATM   19  O4  UNL     1       3.591   0.972  52.613  1.00  0.00    -0.390 OA
ATOM     20  H4  UNL     1       3.119   0.194  52.342  1.00  0.00     0.210 HD
ENDBRANCH   5  19
BRANCH   4  21
HETATM   21  O3  UNL     1       4.377   2.943  53.891  1.00  0.00    -0.390 OA
ATOM     22  H3  UNL     1       4.025   3.140  54.751  1.00  0.00     0.210 HD
ENDBRANCH   4  21
TORSDOF 7
ENDMDL