MODEL 4
REMARK VINA RESULT: -7.177257253      1.791      2.489
REMARK  6 active torsions:
REMARK  status: ('A' for Active; 'I' for Inactive)
REMARK    1  A    between atoms: O1_1  and  C1_3
REMARK    2  A    between atoms: C2_7  and  N2_8
REMARK    3  A    between atoms: N2_8  and  C3_10
REMARK    4  A    between atoms: C9_16  and  O2_17
REMARK    5  A    between atoms: C10_20  and  O4_21
REMARK    6  A    between atoms: C11_23  and  O5_24
ROOT
HETATM    1  C1  UNL     1      -0.670   0.142  57.247  1.00  0.00     0.355 C
HETATM    2  N1  UNL     1      -0.229   0.115  55.857  1.00  0.00    -0.021 N
ATOM      3  H11 UNL     1      -0.283  -0.807  55.425  1.00  0.00     0.283 HD
ATOM      4  H12 UNL     1       0.776   0.242  55.740  1.00  0.00     0.283 HD
HETATM    5  C2  UNL     1      -1.043   1.141  55.178  1.00  0.00     0.343 C
HETATM    6  C9  UNL     1      -2.393   0.582  54.910  1.00  0.00     0.310 C
HETATM    7  O3  UNL     1      -3.282   1.052  55.875  1.00  0.00    -0.325 OA
HETATM    8  C10 UNL     1      -3.162   0.487  57.109  1.00  0.00     0.293 C
HETATM    9  C11 UNL     1      -2.036  -0.461  57.309  1.00  0.00     0.229 C
ENDROOT
BRANCH   5  10
HETATM   10  N2  UNL     1      -0.332   1.672  54.066  1.00  0.00    -0.359 N
ATOM     11  H2  UNL     1      -0.578   1.290  53.153  1.00  0.00     0.162 HD
BRANCH  10  12
HETATM   12  C3  UNL     1       0.672   2.664  54.075  1.00  0.00     0.029 A
HETATM   13  C4  UNL     1       1.507   2.799  52.978  1.00  0.00     0.029 A
HETATM   14  C5  UNL     1       2.516   3.735  52.889  1.00  0.00     0.002 A
HETATM   15  C6  UNL     1       2.682   4.572  53.965  1.00  0.00     0.000 A
HETATM   16  C7  UNL     1       1.873   4.467  55.069  1.00  0.00     0.002 A
HETATM   17  C8  UNL     1       0.873   3.521  55.129  1.00  0.00     0.029 A
ENDBRANCH  10  12
ENDBRANCH   5  10
BRANCH   6  18
HETATM   18  O2  UNL     1      -2.880   1.078  53.678  1.00  0.00    -0.367 OA
ATOM     19  H2  UNL     1      -3.291   0.375  53.189  1.00  0.00     0.212 HD
ENDBRANCH   6  18
BRANCH   1  20
HETATM   20  O1  UNL     1      -0.647   1.402  57.796  1.00  0.00    -0.368 OA
ATOM     21  H1  UNL     1      -0.547   1.396  58.741  1.00  0.00     0.212 HD
ENDBRANCH   1  20
BRANCH   9  22
HETATM   22  O5  UNL     1      -2.167  -1.001  58.612  1.00  0.00    -0.386 OA
ATOM     23  H5  UNL     1      -1.284  -1.085  58.952  1.00  0.00     0.210 HD
ENDBRANCH   9  22
BRANCH   8  24
HETATM   24  O4  UNL     1      -3.006   1.528  58.052  1.00  0.00    -0.368 OA
ATOM     25  H4  UNL     1      -2.585   1.165  58.822  1.00  0.00     0.212 HD
ENDBRANCH   8  24
TORSDOF 6
ENDMDL