MODEL 5
REMARK VINA RESULT: -6.417878618      2.885      5.538
REMARK  8 active torsions:
REMARK  status: ('A' for Active; 'I' for Inactive)
REMARK    1  A    between atoms: O1_1  and  N1_3
REMARK    2  A    between atoms: C1_5  and  O2_6
REMARK    3  A    between atoms: C1_5  and  C2_8
REMARK    4  A    between atoms: C3_9  and  C4_10
REMARK    5  A    between atoms: C5_12  and  O4_13
REMARK    6  A    between atoms: C6_15  and  O5_16
REMARK    7  A    between atoms: C7_18  and  O6_19
REMARK    8  A    between atoms: C8_21  and  O7_22
ROOT
HETATM    1  C4  UNL     1       2.384   3.087  54.764  1.00  0.00     0.179 C
HETATM    2  O3  UNL     1       1.472   2.110  55.060  1.00  0.00    -0.347 OA
HETATM    3  C5  UNL     1       0.197   2.551  55.301  1.00  0.00     0.289 C
HETATM    4  C6  UNL     1       0.120   3.629  56.356  1.00  0.00     0.204 C
HETATM    5  C7  UNL     1       1.205   4.652  56.223  1.00  0.00     0.183 C
HETATM    6  C8  UNL     1       1.860   4.483  54.879  1.00  0.00     0.182 C
ENDROOT
BRANCH   1   7
HETATM    7  C3  UNL     1       2.802   2.899  53.337  1.00  0.00     0.012 C
HETATM    8  C2  UNL     1       3.270   1.763  52.884  1.00  0.00     0.056 C
BRANCH   8   9
HETATM    9  C1  UNL     1       3.652   1.657  51.495  1.00  0.00     0.159 C
HETATM   10  N1  UNL     1       2.983   0.958  50.631  1.00  0.00    -0.248 N
ATOM     11  H1  UNL     1       3.312   0.927  49.665  1.00  0.00     0.196 HD
BRANCH  10  12
HETATM   12  O1  UNL     1       1.861   0.265  50.962  1.00  0.00    -0.288 OA
ATOM     13  H1  UNL     1       1.015   0.682  51.073  1.00  0.00     0.244 HD
ENDBRANCH  10  12
BRANCH   9  14
HETATM   14  O2  UNL     1       4.780   2.310  51.000  1.00  0.00    -0.345 OA
ATOM     15  H2  UNL     1       5.172   2.953  51.579  1.00  0.00     0.219 HD
ENDBRANCH   9  14
ENDBRANCH   8   9
ENDBRANCH   1   7
BRANCH   6  16
HETATM   16  O7  UNL     1       2.947   5.358  54.750  1.00  0.00    -0.390 OA
ATOM     17  H7  UNL     1       3.230   5.335  53.843  1.00  0.00     0.210 HD
ENDBRANCH   6  16
BRANCH   3  18
HETATM   18  O4  UNL     1      -0.497   2.905  54.141  1.00  0.00    -0.368 OA
ATOM     19  H4  UNL     1       0.046   3.339  53.493  1.00  0.00     0.212 HD
ENDBRANCH   3  18
BRANCH   5  20
HETATM   20  O6  UNL     1       0.755   5.954  56.358  1.00  0.00    -0.390 OA
ATOM     21  H6  UNL     1       1.330   6.502  56.880  1.00  0.00     0.210 HD
ENDBRANCH   5  20
BRANCH   4  22
HETATM   22  O5  UNL     1       0.197   2.995  57.608  1.00  0.00    -0.388 OA
ATOM     23  H5  UNL     1      -0.462   3.392  58.166  1.00  0.00     0.210 HD
ENDBRANCH   4  22
TORSDOF 8
ENDMDL