MODEL 2
REMARK VINA RESULT: -6.262580052      3.137      5.328
REMARK  6 active torsions:
REMARK  status: ('A' for Active; 'I' for Inactive)
REMARK    1  A    between atoms: O1_1  and  C1_3
REMARK    2  A    between atoms: C2_5  and  O3_6
REMARK    3  A    between atoms: C3_8  and  O4_9
REMARK    4  A    between atoms: C4_11  and  N1_12
REMARK    5  A    between atoms: N1_12  and  C5_14
REMARK    6  A    between atoms: C9_19  and  O5_20
ROOT
HETATM    1  C1  UNL     1       3.036   4.183  54.123  1.00  0.00     0.294 C
HETATM    2  O2  UNL     1       3.995   3.999  53.125  1.00  0.00    -0.326 OA
HETATM    3  C2  UNL     1       4.306   2.693  52.866  1.00  0.00     0.294 C
HETATM    4  C3  UNL     1       3.133   1.822  52.474  1.00  0.00     0.221 C
HETATM    5  C4  UNL     1       2.006   2.116  53.414  1.00  0.00     0.054 C
HETATM    6  C9  UNL     1       1.741   3.607  53.499  1.00  0.00     0.221 C
ENDROOT
BRANCH   5   7
HETATM    7  N1  UNL     1       0.879   1.278  53.372  1.00  0.00    -0.358 N
ATOM      8  H1  UNL     1       0.651   0.897  52.454  1.00  0.00     0.165 HD
BRANCH   7   9
HETATM    9  C5  UNL     1      -0.002   0.882  54.445  1.00  0.00     0.039 A
HETATM   10  C6  UNL     1       0.391   0.360  55.616  1.00  0.00     0.037 A
HETATM   11  C7  UNL     1      -0.552   0.061  56.547  1.00  0.00     0.052 A
HETATM   12  S1  UNL     1      -2.010   0.509  55.786  1.00  0.00    -0.111 SA
HETATM   13  C8  UNL     1      -1.375   1.064  54.306  1.00  0.00     0.079 A
ENDBRANCH   7   9
ENDBRANCH   5   7
BRANCH   4  14
HETATM   14  O4  UNL     1       2.914   1.954  51.147  1.00  0.00    -0.385 OA
ATOM     15  H4  UNL     1       2.037   1.647  50.948  1.00  0.00     0.210 HD
ENDBRANCH   4  14
BRANCH   6  16
HETATM   16  O5  UNL     1       0.648   3.868  54.295  1.00  0.00    -0.385 OA
ATOM     17  H5  UNL     1       0.680   3.361  55.098  1.00  0.00     0.210 HD
ENDBRANCH   6  16
BRANCH   3  18
HETATM   18  O3  UNL     1       4.962   2.059  53.917  1.00  0.00    -0.368 OA
ATOM     19  H3  UNL     1       5.819   1.723  53.682  1.00  0.00     0.212 HD
ENDBRANCH   3  18
BRANCH   1  20
HETATM   20  O1  UNL     1       2.874   5.521  54.371  1.00  0.00    -0.368 OA
ATOM     21  H1  UNL     1       3.711   5.913  54.590  1.00  0.00     0.212 HD
ENDBRANCH   1  20
TORSDOF 6
ENDMDL