MODEL 4
REMARK VINA RESULT: -5.849831359      2.442      4.214
REMARK  8 active torsions:
REMARK  status: ('A' for Active; 'I' for Inactive)
REMARK    1  A    between atoms: O1_2  and  C2_3
REMARK    2  A    between atoms: C3_4  and  C5_6
REMARK    3  A    between atoms: C6_7  and  O2_8
REMARK    4  A    between atoms: C7_10  and  O3_11
REMARK    5  A    between atoms: C8_13  and  O4_15
REMARK    6  A    between atoms: C10_17  and  O5_18
REMARK    7  A    between atoms: C10_17  and  N1_20
REMARK    8  A    between atoms: N1_20  and  O6_21
ROOT
HETATM    1  C5  UNL     1       1.832   1.884  53.900  1.00  0.00     0.104 C
HETATM    2  C6  UNL     1       1.620   1.028  52.672  1.00  0.00     0.162 C
HETATM    3  C7  UNL     1       2.889   1.216  51.893  1.00  0.00     0.186 C
HETATM    4  C8  UNL     1       3.683   2.277  52.590  1.00  0.00     0.131 C
HETATM    5  C9  UNL     1       4.498   3.138  51.705  1.00  0.00     0.053 C
HETATM    6  C10 UNL     1       2.589   3.051  53.335  1.00  0.00     0.197 C
ENDROOT
BRANCH   1   7
HETATM    7  C3  UNL     1       0.555   2.218  54.557  1.00  0.00    -0.051 C
HETATM    8  C2  UNL     1       0.341   2.570  55.783  1.00  0.00     0.137 C
HETATM    9  C4  UNL     1      -0.662   2.115  53.663  1.00  0.00     0.046 C
BRANCH   8  10
HETATM   10  O1  UNL     1      -0.943   2.826  56.212  1.00  0.00    -0.368 OA
HETATM   11  C1  UNL     1      -1.302   2.471  57.547  1.00  0.00     0.208 C
ENDBRANCH   8  10
ENDBRANCH   1   7
BRANCH   2  12
HETATM   12  O2  UNL     1       0.502   1.500  52.005  1.00  0.00    -0.392 OA
ATOM     13  H2  UNL     1      -0.175   0.836  52.053  1.00  0.00     0.210 HD
ENDBRANCH   2  12
BRANCH   6  14
HETATM   14  O5  UNL     1       1.923   3.789  52.393  1.00  0.00    -0.369 OA
ATOM     15  H5  UNL     1       1.672   3.320  51.607  1.00  0.00     0.212 HD
ENDBRANCH   6  14
BRANCH   6  16
HETATM   16  N1  UNL     1       3.192   3.824  54.402  1.00  0.00    -0.060 NA
BRANCH  16  17
HETATM   17  O6  UNL     1       3.156   5.122  54.191  1.00  0.00    -0.293 OA
ATOM     18  H6  UNL     1       3.633   5.624  54.842  1.00  0.00     0.238 HD
ENDBRANCH  16  17
ENDBRANCH   6  16
BRANCH   3  19
HETATM   19  O3  UNL     1       3.591  -0.009  51.838  1.00  0.00    -0.390 OA
ATOM     20  H3  UNL     1       3.209  -0.561  51.165  1.00  0.00     0.210 HD
ENDBRANCH   3  19
BRANCH   4  21
HETATM   21  O4  UNL     1       4.494   1.668  53.542  1.00  0.00    -0.383 OA
ATOM     22  H4  UNL     1       4.902   2.346  54.068  1.00  0.00     0.210 HD
ENDBRANCH   4  21
TORSDOF 8
ENDMDL