MODEL 5
REMARK VINA RESULT: -5.884513956      2.421      4.029
REMARK  1 active torsions:
REMARK  status: ('A' for Active; 'I' for Inactive)
REMARK    1  A    between atoms: N3_4  and  N4_6
ROOT
HETATM    1  N4  UNL     1      99.018  11.597   6.763  1.00  0.00    -0.136 N
HETATM    2  N5  UNL     1      98.467  10.596   6.096  1.00  0.00    -0.225 N
ATOM      3  H5  UNL     1      97.576  10.162   6.340  1.00  0.00     0.194 HD
HETATM    4  C2  UNL     1      99.232  10.226   5.057  1.00  0.00     0.344 A
HETATM    5  O1  UNL     1      99.010   9.309   4.214  1.00  0.00    -0.245 OA
HETATM    6  N6  UNL     1     100.312  11.024   5.066  1.00  0.00    -0.257 N
ATOM      7  H6  UNL     1     101.092  11.004   4.408  1.00  0.00     0.175 HD
HETATM    8  C3  UNL     1     100.166  11.853   6.110  1.00  0.00     0.365 A
HETATM    9  O2  UNL     1     100.991  12.740   6.427  1.00  0.00    -0.243 OA
ENDROOT
BRANCH   1  10
HETATM   10  N3  UNL     1      98.486  12.213   7.888  1.00  0.00    -0.250 N
HETATM   11  C1  UNL     1      97.812  13.288   7.867  1.00  0.00     0.217 C
HETATM   12  N1  UNL     1      97.556  13.943   6.640  1.00  0.00    -0.065 NA
HETATM   13  N2  UNL     1      97.299  13.859   9.058  1.00  0.00    -0.065 NA
ATOM     14  H3  UNL     1      98.647  11.771   8.793  1.00  0.00     0.191 HD
ENDBRANCH   1  10
TORSDOF 1
ENDMDL