MODEL 3
REMARK VINA RESULT: -5.020404042      1.297      4.283
REMARK  2 active torsions:
REMARK  status: ('A' for Active; 'I' for Inactive)
REMARK    1  A    between atoms: N1_2  and  N2_3
REMARK       I    between atoms: N1_2  and  C3_8
REMARK       I    between atoms: C3_8  and  N5_10
REMARK    2  A    between atoms: N5_10  and  N6_12
ROOT
HETATM    1  C1  UNL     1      98.955  10.287   6.080  1.00  0.00     0.183 C
HETATM    2  N1  UNL     1      99.571  11.573   6.333  1.00  0.00    -0.244 N
HETATM    3  C3  UNL     1      99.050  12.446   7.326  1.00  0.00     0.354 C
HETATM    4  O1  UNL     1      99.584  13.564   7.547  1.00  0.00    -0.244 OA
HETATM    5  N5  UNL     1      97.916  12.113   8.113  1.00  0.00    -0.257 N
ATOM      6  H5  UNL     1      97.463  11.213   7.953  1.00  0.00     0.191 HD
ENDROOT
BRANCH   2   7
HETATM    7  N2  UNL     1     100.681  11.935   5.584  1.00  0.00    -0.270 N
HETATM    8  C2  UNL     1     101.890  11.729   5.918  1.00  0.00     0.215 C
HETATM    9  N3  UNL     1     102.235  11.080   7.136  1.00  0.00    -0.065 NA
HETATM   10  N4  UNL     1     102.929  12.158   5.047  1.00  0.00    -0.065 NA
ATOM     11  H2  UNL     1     100.514  12.405   4.694  1.00  0.00     0.189 HD
ENDBRANCH   2   7
BRANCH   5  12
HETATM   12  N6  UNL     1      97.389  12.952   9.090  1.00  0.00    -0.341 N
ATOM     13  H62 UNL     1      97.643  13.938   9.046  1.00  0.00     0.177 HD
ATOM     14  H61 UNL     1      96.772  12.627   9.835  1.00  0.00     0.177 HD
ENDBRANCH   5  12
TORSDOF 2
ENDMDL