MODEL 3
REMARK VINA RESULT: -5.673443049      2.460      4.694
REMARK  3 active torsions:
REMARK  status: ('A' for Active; 'I' for Inactive)
REMARK       I    between atoms: C1_4  and  N3_6
REMARK       I    between atoms: C2_8  and  N5_10
REMARK    1  A    between atoms: C3_12  and  O1_13
REMARK    2  A    between atoms: C3_12  and  N6_15
REMARK    3  A    between atoms: N6_15  and  N7_17
ROOT
HETATM    1  N1  UNL     1     102.659  10.956   9.918  1.00  0.00    -0.373 N
ATOM      2  H11 UNL     1     101.953  11.612  10.249  1.00  0.00     0.158 HD
ATOM      3  H12 UNL     1     103.646  10.989  10.175  1.00  0.00     0.158 HD
HETATM    4  C1  UNL     1     102.234  10.019   9.108  1.00  0.00     0.188 C
HETATM    5  N2  UNL     1     103.217   9.106   8.647  1.00  0.00    -0.064 NA
HETATM    6  N3  UNL     1     100.877   9.973   8.754  1.00  0.00    -0.305 N
ATOM      7  H3  UNL     1     100.238   9.430   9.335  1.00  0.00     0.171 HD
HETATM    8  C2  UNL     1     100.409  10.583   7.734  1.00  0.00     0.197 C
HETATM    9  N4  UNL     1     101.277  11.344   6.910  1.00  0.00    -0.063 NA
HETATM   10  N5  UNL     1      99.044  10.541   7.369  1.00  0.00    -0.295 N
ATOM     11  H5  UNL     1      98.335  10.659   8.092  1.00  0.00     0.172 HD
HETATM   12  C3  UNL     1      98.671  10.359   6.158  1.00  0.00     0.238 C
ENDROOT
BRANCH  12  13
HETATM   13  O1  UNL     1      97.336  10.317   5.791  1.00  0.00    -0.331 OA
ATOM     14  H1  UNL     1      96.948  10.960   5.209  1.00  0.00     0.221 HD
ENDBRANCH  12  13
BRANCH  12  15
HETATM   15  N6  UNL     1      99.667  10.196   5.168  1.00  0.00    -0.272 N
ATOM     16  H6  UNL     1     100.254   9.362   5.174  1.00  0.00     0.190 HD
BRANCH  15  17
HETATM   17  N7  UNL     1      99.853  11.183   4.169  1.00  0.00    -0.342 N
ATOM     18  H72 UNL     1     100.274  12.075   4.431  1.00  0.00     0.176 HD
ATOM     19  H71 UNL     1      99.571  11.002   3.205  1.00  0.00     0.176 HD
ENDBRANCH  15  17
ENDBRANCH  12  15
TORSDOF 3
ENDMDL