MODEL 3
REMARK VINA RESULT: -6.446549896      2.598      2.756
REMARK  1 active torsions:
REMARK  status: ('A' for Active; 'I' for Inactive)
REMARK       I    between atoms: C1_2  and  N2_4
REMARK    1  A    between atoms: N2_4  and  C2_6
ROOT
HETATM    1  C2  UNL     1     100.126  10.305   7.744  1.00  0.00     0.703 A
HETATM    2  N3  UNL     1     101.141  10.882   7.072  1.00  0.00    -0.129 N
ATOM      3  H3  UNL     1     100.915  11.508   6.299  1.00  0.00     0.205 HD
HETATM    4  N4  UNL     1     102.415  10.679   7.364  1.00  0.00    -0.247 N
ATOM      5  H4  UNL     1     103.154  11.137   6.830  1.00  0.00     0.191 HD
HETATM    6  C3  UNL     1     102.711   9.851   8.388  1.00  0.00     0.329 A
HETATM    7  O2  UNL     1     103.915   9.634   8.693  1.00  0.00    -0.261 OA
HETATM    8  C4  UNL     1     101.696   9.242   9.099  1.00  0.00     0.329 A
HETATM    9  O3  UNL     1     101.898   8.469  10.054  1.00  0.00    -0.261 OA
HETATM   10  N5  UNL     1     100.421   9.496   8.747  1.00  0.00    -0.150 N
ATOM     11  H5  UNL     1      99.664   9.052   9.268  1.00  0.00     0.188 HD
ENDROOT
BRANCH   1  12
HETATM   12  N2  UNL     1      98.919  10.586   7.360  1.00  0.00    -0.142 N
HETATM   13  C1  UNL     1      98.548  10.544   5.990  1.00  0.00     0.347 C
HETATM   14  N1  UNL     1      98.199  11.737   5.304  1.00  0.00    -0.039 NA
HETATM   15  O1  UNL     1      98.542   9.425   5.420  1.00  0.00    -0.250 OA
ATOM     16  H2  UNL     1      98.221  10.842   8.058  1.00  0.00     0.189 HD
ENDBRANCH   1  12
TORSDOF 1
ENDMDL