MODEL 5
REMARK VINA RESULT: -5.791022535      1.619      2.500
REMARK  1 active torsions:
REMARK  status: ('A' for Active; 'I' for Inactive)
REMARK    1  A    between atoms: N2_4  and  N3_6
ROOT
HETATM    1  N3  UNL     1     100.895  10.625   8.449  1.00  0.00    -0.267 N
ATOM      2  H3  UNL     1     101.521  11.350   8.802  1.00  0.00     0.190 HD
HETATM    3  C1  UNL     1     100.129  10.862   7.420  1.00  0.00     0.194 A
HETATM    4  N4  UNL     1      99.208   9.962   6.810  1.00  0.00    -0.289 N
ATOM      5  H4  UNL     1      99.027   9.002   7.105  1.00  0.00     0.172 HD
HETATM    6  C2  UNL     1      98.578  10.639   5.707  1.00  0.00     0.328 A
HETATM    7  O1  UNL     1      97.705  10.127   4.948  1.00  0.00    -0.247 OA
HETATM    8  N5  UNL     1      99.089  11.967   5.605  1.00  0.00    -0.272 N
ATOM      9  H5  UNL     1      98.827  12.675   4.919  1.00  0.00     0.174 HD
HETATM   10  C3  UNL     1     100.045  12.104   6.662  1.00  0.00     0.295 A
HETATM   11  O2  UNL     1     100.744  13.124   6.945  1.00  0.00    -0.264 OA
ENDROOT
BRANCH   1  12
HETATM   12  N2  UNL     1     100.851   9.370   9.064  1.00  0.00    -0.248 N
HETATM   13  N1  UNL     1     101.568   9.169  10.071  1.00  0.00    -0.331 N
ATOM     14  H12 UNL     1     102.166   9.916  10.422  1.00  0.00     0.178 HD
ATOM     15  H11 UNL     1     101.535   8.253  10.519  1.00  0.00     0.178 HD
ATOM     16  H2  UNL     1     100.247   8.633   8.700  1.00  0.00     0.207 HD
ENDBRANCH   1  12
TORSDOF 1
ENDMDL