MODEL 4
REMARK VINA RESULT: -6.177996097      2.612      3.238
REMARK  2 active torsions:
REMARK  status: ('A' for Active; 'I' for Inactive)
REMARK    1  A    between atoms: N1_1  and  N2_4
REMARK       I    between atoms: N2_4  and  C1_6
REMARK       I    between atoms: C1_6  and  N3_8
REMARK    2  A    between atoms: N3_8  and  C2_10
ROOT
HETATM    1  C2  UNL     1      97.933  11.282   6.480  1.00  0.00     0.705 A
HETATM    2  N4  UNL     1      98.488  10.946   7.650  1.00  0.00    -0.128 N
ATOM      3  H4  UNL     1      98.940  10.059   7.871  1.00  0.00     0.205 HD
HETATM    4  N5  UNL     1      98.342  11.971   8.463  1.00  0.00    -0.237 N
ATOM      5  H5  UNL     1      98.670  12.002   9.428  1.00  0.00     0.192 HD
HETATM    6  C3  UNL     1      97.701  12.968   7.839  1.00  0.00     0.353 A
HETATM    7  O2  UNL     1      97.375  14.117   8.291  1.00  0.00    -0.245 OA
HETATM    8  N6  UNL     1      97.449  12.527   6.597  1.00  0.00    -0.138 N
ATOM      9  H6  UNL     1      96.969  13.051   5.866  1.00  0.00     0.189 HD
ENDROOT
BRANCH   1  10
HETATM   10  N3  UNL     1      97.891  10.516   5.445  1.00  0.00    -0.138 N
HETATM   11  C1  UNL     1      98.985  10.232   4.615  1.00  0.00     0.352 C
HETATM   12  N2  UNL     1      99.804  11.263   4.040  1.00  0.00    -0.258 N
HETATM   13  O1  UNL     1      99.262   9.031   4.365  1.00  0.00    -0.245 OA
ATOM     14  H2  UNL     1      99.593  12.242   4.233  1.00  0.00     0.191 HD
ATOM     15  H3  UNL     1      96.997  10.085   5.213  1.00  0.00     0.189 HD
BRANCH  12  16
HETATM   16  N1  UNL     1     100.886  10.939   3.218  1.00  0.00    -0.341 N
ATOM     17  H12 UNL     1     101.551  11.673   2.972  1.00  0.00     0.177 HD
ATOM     18  H11 UNL     1     101.010   9.988   2.870  1.00  0.00     0.177 HD
ENDBRANCH  12  16
ENDBRANCH   1  10
TORSDOF 2
ENDMDL