MODEL 2
REMARK VINA RESULT: -6.454249541      2.268      4.015
REMARK  1 active torsions:
REMARK  status: ('A' for Active; 'I' for Inactive)
REMARK       I    between atoms: C1_4  and  N3_6
REMARK    1  A    between atoms: N3_6  and  C2_8
ROOT
HETATM    1  C2  UNL     1      99.604  11.834   6.866  1.00  0.00     0.181 A
HETATM    2  N4  UNL     1     100.298  12.725   6.224  1.00  0.00    -0.290 N
ATOM      3  H4  UNL     1      99.909  13.563   5.791  1.00  0.00     0.172 HD
HETATM    4  C3  UNL     1     101.669  12.370   6.210  1.00  0.00     0.328 A
HETATM    5  O1  UNL     1     102.616  12.996   5.684  1.00  0.00    -0.247 OA
HETATM    6  N5  UNL     1     101.793  11.146   6.914  1.00  0.00    -0.272 N
ATOM      7  H5  UNL     1     102.654  10.624   7.081  1.00  0.00     0.174 HD
HETATM    8  C4  UNL     1     100.482  10.785   7.342  1.00  0.00     0.293 A
HETATM    9  O2  UNL     1     100.185   9.743   8.008  1.00  0.00    -0.264 OA
ENDROOT
BRANCH   1  10
HETATM   10  N3  UNL     1      98.182  11.856   7.085  1.00  0.00    -0.312 N
HETATM   11  C1  UNL     1      97.653  12.998   7.716  1.00  0.00     0.187 C
HETATM   12  N1  UNL     1      97.411  12.981   8.968  1.00  0.00    -0.373 N
HETATM   13  N2  UNL     1      97.390  14.158   6.962  1.00  0.00    -0.064 NA
ATOM     14  H12 UNL     1      97.027  13.809   9.425  1.00  0.00     0.158 HD
ATOM     15  H11 UNL     1      97.601  12.141   9.514  1.00  0.00     0.158 HD
ATOM     16  H3  UNL     1      97.586  11.080   6.797  1.00  0.00     0.170 HD
ENDBRANCH   1  10
TORSDOF 1
ENDMDL