MODEL 3
REMARK VINA RESULT: -6.815742093      1.783      2.646
REMARK  2 active torsions:
REMARK  status: ('A' for Active; 'I' for Inactive)
REMARK    1  A    between atoms: C1_2  and  N1_3
REMARK    2  A    between atoms: N1_3  and  C2_5
ROOT
HETATM    1  C2  UNL     1      98.954  11.269   7.102  1.00  0.00     0.702 A
HETATM    2  N2  UNL     1      98.849  11.721   5.819  1.00  0.00    -0.129 N
ATOM      3  H2  UNL     1      99.231  11.143   5.070  1.00  0.00     0.205 HD
HETATM    4  N3  UNL     1      98.288  12.856   5.498  1.00  0.00    -0.247 N
ATOM      5  H3  UNL     1      98.241  13.141   4.520  1.00  0.00     0.191 HD
HETATM    6  C3  UNL     1      97.778  13.640   6.441  1.00  0.00     0.329 A
HETATM    7  O2  UNL     1      97.231  14.736   6.183  1.00  0.00    -0.261 OA
HETATM    8  C4  UNL     1      97.851  13.242   7.762  1.00  0.00     0.329 A
HETATM    9  O3  UNL     1      97.378  13.956   8.700  1.00  0.00    -0.261 OA
HETATM   10  N4  UNL     1      98.438  12.062   8.061  1.00  0.00    -0.150 N
ATOM     11  H4  UNL     1      98.492  11.766   9.035  1.00  0.00     0.188 HD
ENDROOT
BRANCH   1  12
HETATM   12  N1  UNL     1      99.517  10.141   7.368  1.00  0.00    -0.166 N
ATOM     13  H1  UNL     1      99.043   9.256   7.182  1.00  0.00     0.186 HD
BRANCH  12  14
HETATM   14  C1  UNL     1     100.819  10.175   7.927  1.00  0.00     0.368 C
HETATM   15  O1  UNL     1     101.460  11.268   7.815  1.00  0.00    -0.283 OA
ENDBRANCH  12  14
ENDBRANCH   1  12
TORSDOF 2
ENDMDL