MODEL 1
REMARK VINA RESULT: -5.611213039      0.000      0.000
REMARK  2 active torsions:
REMARK  status: ('A' for Active; 'I' for Inactive)
REMARK    1  A    between atoms: N1_2  and  N2_3
REMARK       I    between atoms: N1_2  and  C3_10
REMARK       I    between atoms: N2_3  and  C2_5
REMARK    2  A    between atoms: C3_10  and  C4_12
ROOT
HETATM    1  C1  UNL     1      99.125  10.669   5.530  1.00  0.00     0.181 C
HETATM    2  N1  UNL     1      99.574  11.887   6.123  1.00  0.00    -0.255 N
HETATM    3  C3  UNL     1     100.702  11.948   6.957  1.00  0.00     0.326 C
HETATM    4  O1  UNL     1     101.134  13.092   7.379  1.00  0.00    -0.261 OA
ENDROOT
BRANCH   2   5
HETATM    5  N2  UNL     1      98.846  13.083   5.921  1.00  0.00    -0.269 N
HETATM    6  C2  UNL     1      97.726  13.523   6.560  1.00  0.00     0.201 C
HETATM    7  N3  UNL     1      97.110  12.943   7.515  1.00  0.00    -0.372 N
HETATM    8  N4  UNL     1      97.177  14.796   6.117  1.00  0.00    -0.062 NA
ATOM      9  H32 UNL     1      97.495  12.051   7.826  1.00  0.00     0.158 HD
ATOM     10  H31 UNL     1      96.272  13.271   7.994  1.00  0.00     0.158 HD
ATOM     11  H2  UNL     1      99.209  13.701   5.196  1.00  0.00     0.190 HD
ENDBRANCH   2   5
BRANCH   3  12
HETATM   12  C4  UNL     1     101.505  10.817   7.446  1.00  0.00     0.324 C
HETATM   13  N5  UNL     1     101.006   9.826   8.281  1.00  0.00    -0.053 NA
HETATM   14  O2  UNL     1     102.711  10.859   7.004  1.00  0.00    -0.266 OA
ENDBRANCH   3  12
TORSDOF 2
ENDMDL