MODEL 2
REMARK VINA RESULT: -5.867545490      3.606      4.410
REMARK  1 active torsions:
REMARK  status: ('A' for Active; 'I' for Inactive)
REMARK       I    between atoms: C1_4  and  N3_6
REMARK    1  A    between atoms: N3_6  and  N4_8
ROOT
HETATM    1  N1  UNL     1     101.581  11.326   6.540  1.00  0.00    -0.373 N
ATOM      2  H11 UNL     1     101.502  12.231   6.078  1.00  0.00     0.158 HD
ATOM      3  H12 UNL     1     102.327  10.683   6.275  1.00  0.00     0.158 HD
HETATM    4  C1  UNL     1     100.725  11.018   7.454  1.00  0.00     0.198 C
HETATM    5  N2  UNL     1     100.834   9.766   8.094  1.00  0.00    -0.063 NA
HETATM    6  N3  UNL     1      99.689  11.909   7.823  1.00  0.00    -0.259 N
ATOM      7  H3  UNL     1      99.437  12.045   8.802  1.00  0.00     0.186 HD
ENDROOT
BRANCH   6   8
HETATM    8  N4  UNL     1      99.026  12.593   6.814  1.00  0.00     0.009 NA
HETATM    9  N5  UNL     1      97.679  11.964   6.586  1.00  0.00    -0.197 N
HETATM   10  S1  UNL     1      97.600  13.499   7.200  1.00  0.00     0.350 S
ATOM     11  H5  UNL     1      97.162  11.144   6.268  1.00  0.00     0.198 HD
HETATM   12  O1  UNL     1      97.440  13.793   8.653  1.00  0.00    -0.184 OA
HETATM   13  O2  UNL     1      97.300  14.611   6.215  1.00  0.00    -0.184 OA
ENDBRANCH   6   8
TORSDOF 1
ENDMDL