MODEL 5
REMARK VINA RESULT: -6.450526378      1.727      4.287
REMARK  4 active torsions:
REMARK  status: ('A' for Active; 'I' for Inactive)
REMARK    1  A    between atoms: N1_1  and  N2_4
REMARK       I    between atoms: N2_4  and  C1_5
REMARK    2  A    between atoms: C1_5  and  C2_7
REMARK    3  A    between atoms: C2_7  and  N5_13
REMARK       I    between atoms: N3_8  and  C3_10
REMARK    4  A    between atoms: N5_13  and  N6_15
ROOT
HETATM    1  C2  UNL     1      40.481 -46.036   7.649  1.00  0.00     0.209 C
HETATM    2  N3  UNL     1      40.629 -47.153   8.238  1.00  0.00    -0.290 N
ATOM      3  H3  UNL     1      40.409 -47.223   9.232  1.00  0.00     0.172 HD
HETATM    4  C3  UNL     1      41.090 -48.301   7.554  1.00  0.00     0.334 C
HETATM    5  N4  UNL     1      42.217 -48.976   8.085  1.00  0.00    -0.040 NA
HETATM    6  O2  UNL     1      40.564 -48.749   6.509  1.00  0.00    -0.251 OA
ENDROOT
BRANCH   1   7
HETATM    7  C1  UNL     1      39.983 -44.844   8.430  1.00  0.00     0.380 C
HETATM    8  N2  UNL     1      40.820 -44.177   9.224  1.00  0.00    -0.285 NA
HETATM    9  O1  UNL     1      38.751 -44.605   8.222  1.00  0.00    -0.246 OA
BRANCH   8  10
HETATM   10  N1  UNL     1      41.668 -43.502  10.027  1.00  0.00    -0.276 N
ATOM     11  H12 UNL     1      41.035 -44.030   9.427  1.00  0.00     0.191 HD
ATOM     12  H11 UNL     1      42.309 -42.991  10.635  1.00  0.00     0.191 HD
ENDBRANCH   8  10
ENDBRANCH   1   7
BRANCH   1  13
HETATM   13  N5  UNL     1      40.780 -45.940   6.275  1.00  0.00    -0.286 N
ATOM     14  H5  UNL     1      41.749 -45.999   5.964  1.00  0.00     0.188 HD
BRANCH  13  15
HETATM   15  N6  UNL     1      39.798 -45.771   5.369  1.00  0.00    -0.343 N
ATOM     16  H62 UNL     1      40.049 -45.496   4.419  1.00  0.00     0.176 HD
ATOM     17  H61 UNL     1      38.822 -45.916   5.628  1.00  0.00     0.176 HD
ENDBRANCH  13  15
ENDBRANCH   1  13
TORSDOF 4
ENDMDL