MODEL 4
REMARK VINA RESULT: -5.916012034      2.362      3.980
REMARK  1 active torsions:
REMARK  status: ('A' for Active; 'I' for Inactive)
REMARK    1  A    between atoms: N1_2  and  C2_4
ROOT
HETATM    1  C2  UNL     1      40.648 -47.283   7.063  1.00  0.00     0.149 C
HETATM    2  N2  UNL     1      40.035 -46.902   8.198  1.00  0.00    -0.291 N
ATOM      3  H2  UNL     1      39.958 -47.606   8.933  1.00  0.00     0.172 HD
HETATM    4  C3  UNL     1      39.504 -45.673   8.472  1.00  0.00     0.329 C
HETATM    5  O1  UNL     1      39.278 -45.470   9.678  1.00  0.00    -0.246 OA
HETATM    6  N3  UNL     1      39.215 -44.702   7.587  1.00  0.00    -0.260 N
ATOM      7  H3  UNL     1      38.855 -43.834   7.985  1.00  0.00     0.175 HD
HETATM    8  C4  UNL     1      39.338 -44.722   6.241  1.00  0.00     0.329 C
HETATM    9  O2  UNL     1      39.003 -43.660   5.631  1.00  0.00    -0.246 OA
HETATM   10  N4  UNL     1      39.759 -45.677   5.391  1.00  0.00    -0.292 N
ATOM     11  H4  UNL     1      39.547 -45.571   4.399  1.00  0.00     0.172 HD
HETATM   12  C5  UNL     1      40.458 -46.782   5.792  1.00  0.00     0.147 C
HETATM   13  N5  UNL     1      41.019 -47.452   4.854  1.00  0.00    -0.382 N
ATOM     14  H51 UNL     1      40.879 -47.081   3.914  1.00  0.00     0.157 HD
ATOM     15  H52 UNL     1      41.541 -48.276   5.153  1.00  0.00     0.157 HD
ENDROOT
BRANCH   1  16
HETATM   16  N1  UNL     1      41.514 -48.227   7.188  1.00  0.00    -0.378 N
HETATM   17  C1  UNL     1      42.479 -48.179   8.264  1.00  0.00     0.148 C
ATOM     18  H1  UNL     1      41.519 -49.007   6.531  1.00  0.00     0.160 HD
ENDBRANCH   1  16
TORSDOF 1
ENDMDL