MODEL 2
REMARK VINA RESULT: -6.624165421      0.045      2.263
REMARK  1 active torsions:
REMARK  status: ('A' for Active; 'I' for Inactive)
REMARK       I    between atoms: C1_4  and  N3_6
REMARK    1  A    between atoms: N3_6  and  C2_8
ROOT
HETATM    1  C2  UNL     1      41.628 -46.697   7.667  1.00  0.00     0.692 A
HETATM    2  N4  UNL     1      41.242 -47.654   6.803  1.00  0.00    -0.141 N
ATOM      3  H4  UNL     1      41.824 -48.483   6.682  1.00  0.00     0.189 HD
HETATM    4  C3  UNL     1      40.105 -47.539   6.100  1.00  0.00     0.342 A
HETATM    5  O1  UNL     1      39.729 -48.420   5.292  1.00  0.00    -0.246 OA
HETATM    6  N5  UNL     1      39.327 -46.458   6.248  1.00  0.00    -0.260 N
ATOM      7  H5  UNL     1      38.459 -46.356   5.722  1.00  0.00     0.175 HD
HETATM    8  C4  UNL     1      39.727 -45.517   7.111  1.00  0.00     0.342 A
HETATM    9  O2  UNL     1      39.023 -44.472   7.286  1.00  0.00    -0.246 OA
HETATM   10  N6  UNL     1      40.854 -45.604   7.825  1.00  0.00    -0.141 N
ATOM     11  H6  UNL     1      41.122 -44.863   8.473  1.00  0.00     0.189 HD
ENDROOT
BRANCH   1  12
HETATM   12  N3  UNL     1      42.723 -46.835   8.327  1.00  0.00    -0.163 N
HETATM   13  C1  UNL     1      43.251 -48.137   8.515  1.00  0.00     0.200 C
HETATM   14  N1  UNL     1      42.788 -48.855   9.464  1.00  0.00    -0.373 N
HETATM   15  N2  UNL     1      44.267 -48.594   7.650  1.00  0.00    -0.063 NA
ATOM     16  H12 UNL     1      43.168 -49.792   9.600  1.00  0.00     0.158 HD
ATOM     17  H11 UNL     1      42.053 -48.525  10.090  1.00  0.00     0.158 HD
ATOM     18  H3  UNL     1      43.205 -46.020   8.708  1.00  0.00     0.187 HD
ENDBRANCH   1  12
TORSDOF 1
ENDMDL