MODEL 2
REMARK VINA RESULT: -6.106046054      1.297      1.662
REMARK  4 active torsions:
REMARK  status: ('A' for Active; 'I' for Inactive)
REMARK    1  A    between atoms: N1_1  and  N2_4
REMARK       I    between atoms: N2_4  and  C1_6
REMARK       I    between atoms: C1_6  and  N3_8
REMARK    2  A    between atoms: N3_8  and  N4_9
REMARK    3  A    between atoms: N4_9  and  C2_10
REMARK    4  A    between atoms: N8_17  and  O2_18
ROOT
HETATM    1  C2  UNL     1      40.732 -47.536   7.420  1.00  0.00     0.355 A
HETATM    2  N5  UNL     1      40.060 -46.362   7.690  1.00  0.00    -0.238 N
ATOM      3  H5  UNL     1      40.247 -45.741   8.478  1.00  0.00     0.193 HD
HETATM    4  N6  UNL     1      39.160 -46.176   6.790  1.00  0.00    -0.222 N
ATOM      5  H6  UNL     1      38.515 -45.387   6.743  1.00  0.00     0.210 HD
HETATM    6  N7  UNL     1      39.215 -47.162   5.954  1.00  0.00    -0.197 N
ATOM      7  H7  UNL     1      38.603 -47.252   5.143  1.00  0.00     0.212 HD
HETATM    8  N8  UNL     1      40.135 -48.021   6.261  1.00  0.00    -0.095 N
ENDROOT
BRANCH   1   9
HETATM    9  N4  UNL     1      41.610 -48.079   8.017  1.00  0.00    -0.200 NA
BRANCH   9  10
HETATM   10  N3  UNL     1      42.525 -48.611   8.664  1.00  0.00    -0.180 NA
HETATM   11  C1  UNL     1      43.526 -49.193   9.371  1.00  0.00     0.442 C
HETATM   12  N2  UNL     1      44.577 -48.333   9.811  1.00  0.00    -0.244 N
HETATM   13  O1  UNL     1      43.643 -50.397   9.683  1.00  0.00    -0.226 OA
ATOM     14  H2  UNL     1      44.564 -47.335   9.600  1.00  0.00     0.192 HD
BRANCH  12  15
HETATM   15  N1  UNL     1      45.616 -48.898  10.535  1.00  0.00    -0.340 N
ATOM     16  H12 UNL     1      45.509 -49.072  11.534  1.00  0.00     0.177 HD
ATOM     17  H11 UNL     1      46.475 -49.127  10.035  1.00  0.00     0.177 HD
ENDBRANCH  12  15
ENDBRANCH   9  10
ENDBRANCH   1   9
BRANCH   8  18
HETATM   18  O2  UNL     1      40.531 -49.193   5.669  1.00  0.00    -0.263 OA
ATOM     19  H2  UNL     1      39.910 -49.808   5.298  1.00  0.00     0.247 HD
ENDBRANCH   8  18
TORSDOF 4
ENDMDL