MODEL 1
REMARK VINA RESULT: -6.864800202      0.000      0.000
REMARK  3 active torsions:
REMARK  status: ('A' for Active; 'I' for Inactive)
REMARK    1  A    between atoms: N1_1  and  N2_4
REMARK       I    between atoms: N2_4  and  C1_6
REMARK    2  A    between atoms: C1_6  and  C2_8
REMARK    3  A    between atoms: C2_8  and  N3_9
ROOT
HETATM    1  C2  UNL     1      40.975 -47.228   7.508  1.00  0.00     0.362 C
HETATM    2  N4  UNL     1      41.058 -45.865   7.082  1.00  0.00    -0.294 N
ATOM      3  H4  UNL     1      41.790 -45.200   7.333  1.00  0.00     0.167 HD
HETATM    4  C3  UNL     1      39.935 -45.600   6.246  1.00  0.00     0.325 C
HETATM    5  O2  UNL     1      39.422 -44.472   5.959  1.00  0.00    -0.247 OA
HETATM    6  N5  UNL     1      39.471 -46.875   5.770  1.00  0.00    -0.275 N
ATOM      7  H5  UNL     1      38.679 -47.035   5.149  1.00  0.00     0.173 HD
HETATM    8  C4  UNL     1      40.321 -47.871   6.327  1.00  0.00     0.292 C
HETATM    9  O3  UNL     1      40.452 -49.035   5.874  1.00  0.00    -0.268 OA
ENDROOT
BRANCH   1  10
HETATM   10  C1  UNL     1      42.245 -47.857   7.826  1.00  0.00     0.302 C
HETATM   11  N2  UNL     1      42.410 -48.719   8.937  1.00  0.00    -0.272 N
ATOM     12  H2  UNL     1      41.605 -48.902   9.535  1.00  0.00     0.189 HD
HETATM   13  O1  UNL     1      43.250 -47.648   7.108  1.00  0.00    -0.266 OA
BRANCH  11  14
HETATM   14  N1  UNL     1      43.626 -49.328   9.250  1.00  0.00    -0.342 N
ATOM     15  H12 UNL     1      44.422 -48.720   9.437  1.00  0.00     0.176 HD
ATOM     16  H11 UNL     1      43.743 -50.340   9.297  1.00  0.00     0.176 HD
ENDBRANCH  11  14
ENDBRANCH   1  10
BRANCH   1  17
HETATM   17  N3  UNL     1      40.021 -47.270   8.621  1.00  0.00    -0.034 N
ATOM     18  H33 UNL     1      40.342 -47.905   9.352  1.00  0.00     0.278 HD
ATOM     19  H32 UNL     1      40.033 -46.394   9.143  1.00  0.00     0.278 HD
ATOM     20  H31 UNL     1      39.075 -47.505   8.325  1.00  0.00     0.278 HD
ENDBRANCH   1  17
TORSDOF 3
ENDMDL