MODEL 2
REMARK VINA RESULT: -5.783400471      3.969      5.291
REMARK  3 active torsions:
REMARK  status: ('A' for Active; 'I' for Inactive)
REMARK    1  A    between atoms: N1_1  and  N2_4
REMARK    2  A    between atoms: C4_14  and  N5_15
REMARK    3  A    between atoms: N5_15  and  N6_17
ROOT
HETATM    1  N2  UNL     1      40.725 -48.035   5.760  1.00  0.00    -0.138 N
ATOM      2  H2  UNL     1      41.532 -48.500   5.343  1.00  0.00     0.205 HD
HETATM    3  C1  UNL     1      40.875 -47.056   6.584  1.00  0.00     0.702 A
HETATM    4  N3  UNL     1      39.801 -46.360   7.205  1.00  0.00    -0.140 N
ATOM      5  H3  UNL     1      38.849 -46.653   6.987  1.00  0.00     0.189 HD
HETATM    6  C2  UNL     1      39.975 -45.290   8.106  1.00  0.00     0.340 A
HETATM    7  O1  UNL     1      38.993 -44.685   8.647  1.00  0.00    -0.246 OA
HETATM    8  N4  UNL     1      41.313 -44.894   8.400  1.00  0.00    -0.292 N
ATOM      9  H4  UNL     1      41.476 -44.123   9.048  1.00  0.00     0.172 HD
HETATM   10  C3  UNL     1      42.428 -45.555   7.807  1.00  0.00     0.141 A
HETATM   11  C4  UNL     1      43.666 -45.176   8.092  1.00  0.00     0.155 C
HETATM   12  N7  UNL     1      42.205 -46.631   6.904  1.00  0.00    -0.174 N
ATOM     13  H7  UNL     1      43.002 -47.105   6.479  1.00  0.00     0.186 HD
ENDROOT
BRANCH  11  14
HETATM   14  N5  UNL     1      43.965 -44.119   8.978  1.00  0.00    -0.315 N
ATOM     15  H5  UNL     1      43.975 -43.163   8.622  1.00  0.00     0.185 HD
BRANCH  14  16
HETATM   16  N6  UNL     1      44.243 -44.341  10.311  1.00  0.00    -0.345 N
ATOM     17  H62 UNL     1      44.237 -45.303  10.648  1.00  0.00     0.176 HD
ATOM     18  H61 UNL     1      44.450 -43.575  10.953  1.00  0.00     0.176 HD
ENDBRANCH  14  16
ENDBRANCH  11  14
BRANCH   1  19
HETATM   19  N1  UNL     1      39.425 -48.442   5.455  1.00  0.00    -0.331 N
ATOM     20  H12 UNL     1      38.647 -47.792   5.566  1.00  0.00     0.177 HD
ATOM     21  H11 UNL     1      39.287 -49.396   5.122  1.00  0.00     0.177 HD
ENDBRANCH   1  19
TORSDOF 3
ENDMDL