MODEL 2
REMARK VINA RESULT: -6.142791897      2.242      3.660
REMARK  4 active torsions:
REMARK  status: ('A' for Active; 'I' for Inactive)
REMARK    1  A    between atoms: N1_1  and  N2_4
REMARK       I    between atoms: N2_4  and  C1_6
REMARK       I    between atoms: C1_6  and  N5_15
REMARK    2  A    between atoms: N3_7  and  S1_9
REMARK    3  A    between atoms: S1_9  and  N4_10
REMARK    4  A    between atoms: N5_15  and  N6_17
ROOT
HETATM    1  N2  UNL     1      42.624 -48.383   8.932  1.00  0.00    -0.137 N
ATOM      2  H2  UNL     1      42.477 -49.178   9.555  1.00  0.00     0.205 HD
HETATM    3  C1  UNL     1      41.591 -48.004   8.058  1.00  0.00     0.721 C
HETATM    4  N3  UNL     1      41.817 -47.873   6.811  1.00  0.00    -0.097 N
ATOM      5  H3  UNL     1      42.768 -48.054   6.488  1.00  0.00     0.199 HD
HETATM    6  N5  UNL     1      40.296 -47.768   8.557  1.00  0.00    -0.137 N
ATOM      7  H5  UNL     1      39.754 -48.548   8.930  1.00  0.00     0.205 HD
ENDROOT
BRANCH   1   8
HETATM    8  N1  UNL     1      43.858 -47.699   8.974  1.00  0.00    -0.331 N
ATOM      9  H12 UNL     1      44.274 -47.408   8.089  1.00  0.00     0.177 HD
ATOM     10  H11 UNL     1      44.334 -47.494   9.853  1.00  0.00     0.177 HD
ENDBRANCH   1   8
BRANCH   4  11
HETATM   11  S1  UNL     1      40.667 -47.420   5.635  1.00  0.00     0.330 S
HETATM   12  O1  UNL     1      40.166 -46.016   5.825  1.00  0.00    -0.182 OA
HETATM   13  O2  UNL     1      39.578 -48.429   5.603  1.00  0.00    -0.182 OA
BRANCH  11  14
HETATM   14  N4  UNL     1      41.468 -47.490   4.084  1.00  0.00    -0.311 N
ATOM     15  H42 UNL     1      42.364 -47.940   3.896  1.00  0.00     0.170 HD
ATOM     16  H41 UNL     1      40.871 -47.000   3.418  1.00  0.00     0.170 HD
ENDBRANCH  11  14
ENDBRANCH   4  11
BRANCH   6  17
HETATM   17  N6  UNL     1      39.737 -46.481   8.551  1.00  0.00    -0.331 N
ATOM     18  H62 UNL     1      40.283 -45.717   8.153  1.00  0.00     0.177 HD
ATOM     19  H61 UNL     1      38.809 -46.306   8.934  1.00  0.00     0.177 HD
ENDBRANCH   6  17
TORSDOF 4
ENDMDL