MODEL 2
REMARK VINA RESULT: -6.482375344      2.399      4.303
REMARK  1 active torsions:
REMARK  status: ('A' for Active; 'I' for Inactive)
REMARK    1  A    between atoms: N3_4  and  N4_6
ROOT
HETATM    1  N4  UNL     1      40.216 -46.558   6.090  1.00  0.00    -0.136 N
HETATM    2  N5  UNL     1      40.883 -46.791   7.208  1.00  0.00    -0.225 N
ATOM      3  H5  UNL     1      41.143 -46.072   7.884  1.00  0.00     0.194 HD
HETATM    4  C2  UNL     1      41.172 -48.095   7.338  1.00  0.00     0.344 A
HETATM    5  O1  UNL     1      41.796 -48.665   8.281  1.00  0.00    -0.245 OA
HETATM    6  N6  UNL     1      40.668 -48.714   6.258  1.00  0.00    -0.257 N
ATOM      7  H6  UNL     1      40.717 -49.712   6.048  1.00  0.00     0.175 HD
HETATM    8  C3  UNL     1      40.090 -47.765   5.509  1.00  0.00     0.365 A
HETATM    9  O2  UNL     1      39.513 -47.981   4.419  1.00  0.00    -0.243 OA
ENDROOT
BRANCH   1  10
HETATM   10  N3  UNL     1      39.766 -45.318   5.656  1.00  0.00    -0.250 N
HETATM   11  C1  UNL     1      39.122 -44.495   6.375  1.00  0.00     0.217 C
HETATM   12  N1  UNL     1      38.815 -44.813   7.718  1.00  0.00    -0.065 NA
HETATM   13  N2  UNL     1      38.696 -43.245   5.862  1.00  0.00    -0.065 NA
ATOM     14  H3  UNL     1      39.968 -45.050   4.693  1.00  0.00     0.191 HD
ENDBRANCH   1  10
TORSDOF 1
ENDMDL