MODEL 5
REMARK VINA RESULT: -6.241263037      1.416      1.965
REMARK  4 active torsions:
REMARK  status: ('A' for Active; 'I' for Inactive)
REMARK    1  A    between atoms: N1_1  and  N2_4
REMARK    2  A    between atoms: C1_6  and  N3_7
REMARK    3  A    between atoms: C1_6  and  C3_16
REMARK       I    between atoms: C2_9  and  N5_11
REMARK    4  A    between atoms: N5_11  and  N6_13
ROOT
HETATM    1  N2  UNL     1      39.511 -46.894   6.313  1.00  0.00    -0.288 N
ATOM      2  H2  UNL     1      39.084 -46.104   5.830  1.00  0.00     0.188 HD
HETATM    3  C1  UNL     1      40.121 -46.669   7.405  1.00  0.00     0.188 C
ENDROOT
BRANCH   3   4
HETATM    4  N3  UNL     1      40.724 -47.731   8.099  1.00  0.00    -0.310 N
HETATM    5  C2  UNL     1      41.929 -48.112   7.995  1.00  0.00     0.208 C
HETATM    6  N4  UNL     1      42.399 -49.200   8.759  1.00  0.00    -0.062 NA
HETATM    7  N5  UNL     1      42.802 -47.445   7.113  1.00  0.00    -0.280 N
ATOM      8  H5  UNL     1      42.399 -46.962   6.309  1.00  0.00     0.189 HD
ATOM      9  H3  UNL     1      40.133 -48.247   8.752  1.00  0.00     0.170 HD
BRANCH   7  10
HETATM   10  N6  UNL     1      44.189 -47.409   7.278  1.00  0.00    -0.343 N
ATOM     11  H62 UNL     1      44.641 -48.260   7.611  1.00  0.00     0.176 HD
ATOM     12  H61 UNL     1      44.759 -46.586   7.085  1.00  0.00     0.176 HD
ENDBRANCH   7  10
ENDBRANCH   3   4
BRANCH   3  13
HETATM   13  C3  UNL     1      40.201 -45.334   7.938  1.00  0.00     0.300 C
HETATM   14  N7  UNL     1      39.003 -44.665   8.363  1.00  0.00    -0.054 NA
HETATM   15  O1  UNL     1      41.285 -44.707   8.053  1.00  0.00    -0.268 OA
ENDBRANCH   3  13
BRANCH   1  16
HETATM   16  N1  UNL     1      39.392 -48.155   5.738  1.00  0.00    -0.343 N
ATOM     17  H12 UNL     1      38.848 -48.222   4.878  1.00  0.00     0.176 HD
ATOM     18  H11 UNL     1      39.813 -48.997   6.127  1.00  0.00     0.176 HD
ENDBRANCH   1  16
TORSDOF 4
ENDMDL