MODEL 2
REMARK VINA RESULT: -6.473793225      2.079      2.348
REMARK  3 active torsions:
REMARK  status: ('A' for Active; 'I' for Inactive)
REMARK    1  A    between atoms: N1_1  and  N2_4
REMARK    2  A    between atoms: N2_4  and  C1_6
REMARK    3  A    between atoms: C3_15  and  N6_16
REMARK       I    between atoms: N6_16  and  C4_18
ROOT
HETATM    1  C1  UNL     1      40.517 -47.018   7.846  1.00  0.00     0.179 A
HETATM    2  N3  UNL     1      39.779 -46.325   8.724  1.00  0.00    -0.277 N
ATOM      3  H3  UNL     1      39.728 -46.652   9.690  1.00  0.00     0.189 HD
HETATM    4  N4  UNL     1      39.112 -45.231   8.385  1.00  0.00    -0.250 N
ATOM      5  H4  UNL     1      38.564 -44.742   9.094  1.00  0.00     0.192 HD
HETATM    6  C2  UNL     1      39.139 -44.748   7.128  1.00  0.00     0.340 A
HETATM    7  O1  UNL     1      38.499 -43.696   6.800  1.00  0.00    -0.245 OA
HETATM    8  N5  UNL     1      39.876 -45.432   6.231  1.00  0.00    -0.290 N
ATOM      9  H5  UNL     1      39.916 -45.092   5.271  1.00  0.00     0.172 HD
HETATM   10  C3  UNL     1      40.565 -46.550   6.551  1.00  0.00     0.160 A
ENDROOT
BRANCH   1  11
HETATM   11  N2  UNL     1      41.131 -48.068   8.258  1.00  0.00    -0.288 N
ATOM     12  H2  UNL     1      40.615 -48.948   8.283  1.00  0.00     0.188 HD
BRANCH  11  13
HETATM   13  N1  UNL     1      42.462 -48.076   8.673  1.00  0.00    -0.343 N
ATOM     14  H12 UNL     1      43.070 -47.351   8.293  1.00  0.00     0.176 HD
ATOM     15  H11 UNL     1      42.849 -48.757   9.326  1.00  0.00     0.176 HD
ENDBRANCH  11  13
ENDBRANCH   1  11
BRANCH  10  16
HETATM   16  N6  UNL     1      41.268 -47.199   5.689  1.00  0.00    -0.294 N
HETATM   17  C4  UNL     1      40.709 -47.914   4.609  1.00  0.00     0.334 C
HETATM   18  N7  UNL     1      40.857 -49.314   4.542  1.00  0.00    -0.040 NA
HETATM   19  O2  UNL     1      40.083 -47.322   3.709  1.00  0.00    -0.251 OA
ATOM     20  H6  UNL     1      42.282 -47.196   5.793  1.00  0.00     0.172 HD
ENDBRANCH  10  16
TORSDOF 3
ENDMDL