MODEL 1
REMARK VINA RESULT: -7.239644379      0.000      0.000
REMARK  2 active torsions:
REMARK  status: ('A' for Active; 'I' for Inactive)
REMARK       I    between atoms: N1_2  and  C2_4
REMARK       I    between atoms: C2_4  and  N3_9
REMARK    1  A    between atoms: N2_5  and  O1_7
REMARK       I    between atoms: N3_9  and  C4_11
REMARK    2  A    between atoms: C4_11  and  C5_13
ROOT
HETATM    1  C1  UNL     1       8.241   7.937  23.668  1.00  0.00     0.165 C
HETATM    2  N1  UNL     1       7.057   8.428  22.971  1.00  0.00    -0.229 N
ATOM      3  H1  UNL     1       7.103   8.577  21.963  1.00  0.00     0.177 HD
HETATM    4  C2  UNL     1       5.843   8.705  23.653  1.00  0.00     0.700 C
HETATM    5  N2  UNL     1       5.085   7.704  23.963  1.00  0.00    -0.097 N
ATOM      6  H2  UNL     1       4.208   7.885  24.453  1.00  0.00     0.213 HD
HETATM    7  N3  UNL     1       5.473  10.032  23.984  1.00  0.00    -0.158 N
ATOM      8  H3  UNL     1       4.594  10.193  24.474  1.00  0.00     0.187 HD
HETATM    9  C4  UNL     1       6.289  11.138  23.653  1.00  0.00     0.240 C
HETATM   10  O2  UNL     1       7.381  10.891  23.040  1.00  0.00    -0.272 OA
ENDROOT
BRANCH   9  11
HETATM   11  C5  UNL     1       5.931  12.535  23.984  1.00  0.00     0.079 C
HETATM   12  C6  UNL     1       4.512  12.672  24.415  1.00  0.00     0.014 C
HETATM   13  C7  UNL     1       4.234  13.626  25.498  1.00  0.00     0.005 C
HETATM   14  C8  UNL     1       5.209  14.681  25.786  1.00  0.00    -0.019 C
HETATM   15  C9  UNL     1       4.675  16.067  25.391  1.00  0.00     0.010 C
HETATM   16  C10 UNL     1       6.547  14.546  25.127  1.00  0.00     0.005 C
HETATM   17  C11 UNL     1       6.847  13.043  25.072  1.00  0.00     0.014 C
ENDBRANCH   9  11
BRANCH   5  18
HETATM   18  O1  UNL     1       5.416   6.407  23.657  1.00  0.00    -0.272 OA
HETATM   19  C3  UNL     1       5.631   5.457  24.702  1.00  0.00     0.238 C
ENDBRANCH   5  18
TORSDOF 2
ENDMDL