MODEL 4
REMARK VINA RESULT: -7.660717468      3.952      4.886
REMARK  2 active torsions:
REMARK  status: ('A' for Active; 'I' for Inactive)
REMARK    1  A    between atoms: C2_3  and  C3_4
REMARK       I    between atoms: C3_4  and  N2_6
REMARK    2  A    between atoms: N2_6  and  C4_8
ROOT
HETATM    1  N1  UNL     1       7.744   8.573  24.099  1.00  0.00    -0.196 NA
HETATM    2  C1  UNL     1       6.785   9.105  23.734  1.00  0.00     0.079 C
HETATM    3  C2  UNL     1       5.559   9.766  23.281  1.00  0.00     0.132 C
HETATM    4  C10 UNL     1       5.438   9.547  21.808  1.00  0.00     0.062 C
HETATM    5  C11 UNL     1       4.416   8.551  21.399  1.00  0.00     0.234 C
HETATM    6  N3  UNL     1       4.342   7.501  22.377  1.00  0.00    -0.075 N
ATOM      7  H31 UNL     1       5.245   7.061  22.552  1.00  0.00     0.277 HD
ATOM      8  H32 UNL     1       3.851   6.675  22.031  1.00  0.00     0.277 HD
HETATM    9  C12 UNL     1       3.745   8.041  23.574  1.00  0.00     0.234 C
HETATM   10  C13 UNL     1       4.427   9.254  24.100  1.00  0.00     0.062 C
ENDROOT
BRANCH   3  11
HETATM   11  C3  UNL     1       5.745  11.219  23.522  1.00  0.00     0.240 C
HETATM   12  O1  UNL     1       6.762  11.839  23.123  1.00  0.00    -0.272 OA
HETATM   13  N2  UNL     1       4.755  11.986  24.232  1.00  0.00    -0.355 N
ATOM     14  H2  UNL     1       3.915  11.518  24.572  1.00  0.00     0.162 HD
BRANCH  13  15
HETATM   15  C4  UNL     1       4.919  13.402  24.476  1.00  0.00     0.084 C
HETATM   16  C5  UNL     1       3.596  14.059  24.753  1.00  0.00     0.025 C
HETATM   17  C6  UNL     1       3.675  15.120  25.825  1.00  0.00     0.002 C
HETATM   18  C7  UNL     1       4.948  15.910  25.606  1.00  0.00     0.000 C
HETATM   19  C8  UNL     1       6.154  15.047  25.897  1.00  0.00     0.002 C
HETATM   20  C9  UNL     1       5.896  13.592  25.616  1.00  0.00     0.025 C
ENDBRANCH  13  15
ENDBRANCH   3  11
TORSDOF 2
ENDMDL