MODEL 2
REMARK VINA RESULT: -5.752997478      2.131      3.621
REMARK  2 active torsions:
REMARK  status: ('A' for Active; 'I' for Inactive)
REMARK    1  A    between atoms: N1_2  and  C2_4
REMARK    2  A    between atoms: N2_6  and  C4_8
ROOT
HETATM    1  C4  UNL     1       4.166  11.371  23.847  1.00  0.00     0.115 C
HETATM    2  C5  UNL     1       3.702  10.327  24.872  1.00  0.00     0.058 C
HETATM    3  C6  UNL     1       3.194   9.158  24.071  1.00  0.00     0.274 C
HETATM    4  N3  UNL     1       3.854   8.992  22.815  1.00  0.00     0.091 N
HETATM    5  C7  UNL     1       3.773   7.647  22.320  1.00  0.00     0.310 C
HETATM    6  C8  UNL     1       5.226   9.407  22.788  1.00  0.00     0.253 C
HETATM    7  C9  UNL     1       6.112   8.388  23.507  1.00  0.00     0.040 C
HETATM    8  C10 UNL     1       7.498   8.893  23.709  1.00  0.00     0.028 C
HETATM    9  C11 UNL     1       7.600  10.397  23.731  1.00  0.00     0.168 C
HETATM   10  O1  UNL     1       6.405  10.874  24.288  1.00  0.00    -0.382 OA
HETATM   11  C12 UNL     1       5.455  10.802  23.268  1.00  0.00     0.177 C
ENDROOT
BRANCH   1  12
HETATM   12  N2  UNL     1       4.387  12.644  24.448  1.00  0.00    -0.373 N
HETATM   13  C2  UNL     1       3.398  13.451  24.587  1.00  0.00     0.068 C
HETATM   14  C3  UNL     1       3.585  14.799  25.214  1.00  0.00     0.088 C
ATOM     15  H2  UNL     1       5.319  12.910  24.765  1.00  0.00     0.161 HD
BRANCH  13  16
HETATM   16  N1  UNL     1       2.085  13.127  24.164  1.00  0.00    -0.385 N
HETATM   17  C1  UNL     1       1.088  14.164  24.165  1.00  0.00     0.147 C
ATOM     18  H1  UNL     1       1.851  12.180  23.866  1.00  0.00     0.160 HD
ENDBRANCH  13  16
ENDBRANCH   1  12
TORSDOF 2
ENDMDL