MODEL 3
REMARK VINA RESULT: -6.821707466      3.661      6.720
REMARK  3 active torsions:
REMARK  status: ('A' for Active; 'I' for Inactive)
REMARK    1  A    between atoms: C8_8  and  C9_9
REMARK       I    between atoms: C9_9  and  N1_11
REMARK    2  A    between atoms: N1_11  and  N2_13
REMARK    3  A    between atoms: C10_15  and  C11_16
ROOT
HETATM    1  C9  UNL     1       5.863  11.795  23.788  1.00  0.00     0.240 C
HETATM    2  O1  UNL     1       6.707  11.717  22.861  1.00  0.00    -0.271 OA
HETATM    3  N1  UNL     1       4.668  11.057  23.682  1.00  0.00    -0.270 N
ATOM      4  H1  UNL     1       3.970  11.108  24.424  1.00  0.00     0.190 HD
ENDROOT
BRANCH   1   5
HETATM    5  C8  UNL     1       6.086  12.644  24.995  1.00  0.00     0.084 C
HETATM    6  C2  UNL     1       7.271  13.518  24.736  1.00  0.00    -0.005 C
HETATM    7  C1  UNL     1       8.437  13.193  25.655  1.00  0.00     0.011 C
HETATM    8  C3  UNL     1       6.824  14.953  24.898  1.00  0.00     0.014 C
HETATM    9  C4  UNL     1       5.559  14.893  25.691  1.00  0.00    -0.047 C
HETATM   10  C5  UNL     1       4.612  16.027  25.359  1.00  0.00     0.015 C
HETATM   11  C6  UNL     1       5.828  14.920  27.171  1.00  0.00     0.015 C
HETATM   12  C7  UNL     1       4.939  13.578  25.246  1.00  0.00     0.023 C
ENDBRANCH   1   5
BRANCH   3  13
HETATM   13  N2  UNL     1       4.441  10.264  22.572  1.00  0.00    -0.303 N
HETATM   14  C10 UNL     1       4.608   8.993  22.552  1.00  0.00     0.191 C
ATOM     15  H2  UNL     1       4.121  10.719  21.716  1.00  0.00     0.186 HD
BRANCH  14  16
HETATM   16  C11 UNL     1       4.331   8.276  21.316  1.00  0.00     0.216 C
HETATM   17  O2  UNL     1       3.972   7.068  21.315  1.00  0.00    -0.643 OA
HETATM   18  O3  UNL     1       4.449   8.896  20.078  1.00  0.00    -0.643 OA
ENDBRANCH  14  16
ENDBRANCH   3  13
TORSDOF 3
ENDMDL