MODEL 4
REMARK VINA RESULT: -7.170175350      1.150      1.217
REMARK  4 active torsions:
REMARK  status: ('A' for Active; 'I' for Inactive)
REMARK       I    between atoms: C1_2  and  N1_3
REMARK    1  A    between atoms: C1_2  and  C8_14
REMARK    2  A    between atoms: N1_3  and  C2_5
REMARK    3  A    between atoms: C5_8  and  C6_9
REMARK    4  A    between atoms: C6_9  and  O2_10
ROOT
HETATM    1  C2  UNL     1       9.735  13.582  26.489  1.00  0.00     0.108 C
HETATM    2  C3  UNL     1      10.536  14.565  25.641  1.00  0.00     0.030 C
HETATM    3  C4  UNL     1      12.013  14.333  25.980  1.00  0.00     0.036 C
HETATM    4  C5  UNL     1      12.199  14.838  27.396  1.00  0.00     0.145 C
HETATM    5  O3  UNL     1      11.164  14.470  28.224  1.00  0.00    -0.382 OA
HETATM    6  C7  UNL     1      10.470  13.358  27.782  1.00  0.00     0.193 C
ENDROOT
BRANCH   1   7
HETATM    7  N1  UNL     1       8.387  14.041  26.686  1.00  0.00    -0.354 N
HETATM    8  C1  UNL     1       7.308  13.677  25.821  1.00  0.00     0.222 C
HETATM    9  O1  UNL     1       7.511  12.925  24.834  1.00  0.00    -0.273 OA
ATOM     10  H1  UNL     1       8.191  14.653  27.478  1.00  0.00     0.162 HD
BRANCH   8  11
HETATM   11  C8  UNL     1       5.930  14.158  26.039  1.00  0.00     0.078 C
HETATM   12  C9  UNL     1       4.939  13.519  25.098  1.00  0.00     0.014 C
HETATM   13  C10 UNL     1       3.797  14.498  25.120  1.00  0.00     0.001 C
HETATM   14  C11 UNL     1       4.372  15.836  25.524  1.00  0.00     0.001 C
HETATM   15  C12 UNL     1       5.865  15.627  25.698  1.00  0.00     0.014 C
ENDBRANCH   8  11
ENDBRANCH   1   7
BRANCH   4  16
HETATM   16  C6  UNL     1      13.547  14.370  27.960  1.00  0.00     0.196 C
BRANCH  16  17
HETATM   17  O2  UNL     1      14.411  14.000  26.960  1.00  0.00    -0.398 OA
ATOM     18  H2  UNL     1      14.446  13.055  26.860  1.00  0.00     0.209 HD
ENDBRANCH  16  17
ENDBRANCH   4  16
TORSDOF 4
ENDMDL