MODEL 2
REMARK VINA RESULT: -6.058211870      1.112      2.581
REMARK  3 active torsions:
REMARK  status: ('A' for Active; 'I' for Inactive)
REMARK    1  A    between atoms: C1_2  and  C2_4
REMARK    2  A    between atoms: C2_4  and  C3_5
REMARK    3  A    between atoms: C10_13  and  O4_14
ROOT
HETATM    1  C3  UNL     1       0.208   9.726  25.804  1.00  0.00    -0.025 C
HETATM    2  C4  UNL     1      -0.456   9.541  27.144  1.00  0.00     0.015 C
HETATM    3  C5  UNL     1      -0.008   8.232  27.720  1.00  0.00    -0.009 C
HETATM    4  C6  UNL     1       1.468   8.336  27.993  1.00  0.00     0.036 C
HETATM    5  C7  UNL     1       2.240   8.504  26.688  1.00  0.00     0.122 C
HETATM    6  C8  UNL     1       1.714   9.612  25.857  1.00  0.00     0.042 C
HETATM    7  O3  UNL     1       2.437   7.314  26.041  1.00  0.00    -0.383 OA
HETATM    8  C9  UNL     1       1.517   6.932  25.128  1.00  0.00     0.205 C
HETATM    9  C10 UNL     1       0.103   7.291  25.380  1.00  0.00     0.080 C
HETATM   10  C11 UNL     1      -0.361   7.124  26.791  1.00  0.00     0.044 C
HETATM   11  C12 UNL     1      -0.293   8.665  24.879  1.00  0.00     0.050 C
ENDROOT
BRANCH   1  12
HETATM   12  C2  UNL     1      -0.147  11.100  25.298  1.00  0.00     0.122 C
BRANCH  12  13
HETATM   13  C1  UNL     1      -1.523  11.203  24.795  1.00  0.00     0.173 C
HETATM   14  O1  UNL     1      -1.754  11.404  23.555  1.00  0.00    -0.648 OA
HETATM   15  O2  UNL     1      -2.649  11.096  25.590  1.00  0.00    -0.648 OA
ENDBRANCH  12  13
ENDBRANCH   1  12
BRANCH   9  16
HETATM   16  O4  UNL     1      -0.688   6.392  24.616  1.00  0.00    -0.388 OA
ATOM     17  H4  UNL     1      -1.335   6.918  24.161  1.00  0.00     0.210 HD
ENDBRANCH   9  16
TORSDOF 3
ENDMDL