MODEL 4
REMARK VINA RESULT: -5.288743346      3.063      4.265
REMARK  3 active torsions:
REMARK  status: ('A' for Active; 'I' for Inactive)
REMARK    1  A    between atoms: O1_2  and  C2_3
REMARK    2  A    between atoms: C4_5  and  O2_6
REMARK    3  A    between atoms: C8_11  and  C10_13
ROOT
HETATM    1  C2  UNL     1       3.764  11.116  23.160  1.00  0.00     0.133 C
HETATM    2  C3  UNL     1       3.902  12.162  24.296  1.00  0.00     0.065 C
HETATM    3  C4  UNL     1       5.350  12.072  24.629  1.00  0.00     0.125 C
HETATM    4  C5  UNL     1       5.703  10.638  24.419  1.00  0.00     0.026 C
HETATM    5  C6  UNL     1       6.887  10.521  23.532  1.00  0.00     0.009 C
HETATM    6  C7  UNL     1       6.362   9.908  22.263  1.00  0.00     0.021 C
HETATM    7  C8  UNL     1       5.196   9.100  22.741  1.00  0.00     0.055 C
HETATM    8  C9  UNL     1       4.291   8.666  21.606  1.00  0.00     0.027 C
HETATM    9  C11 UNL     1       4.528   9.986  23.724  1.00  0.00     0.005 C
HETATM   10  C12 UNL     1       3.702   9.241  24.748  1.00  0.00     0.020 C
ENDROOT
BRANCH   7  11
HETATM   11  C10 UNL     1       5.694   7.859  23.369  1.00  0.00     0.182 C
HETATM   12  O3  UNL     1       5.049   6.800  23.218  1.00  0.00    -0.647 OA
HETATM   13  O4  UNL     1       6.854   7.784  24.131  1.00  0.00    -0.647 OA
ENDBRANCH   7  11
BRANCH   1  14
HETATM   14  O1  UNL     1       2.409  10.950  23.012  1.00  0.00    -0.390 OA
HETATM   15  C1  UNL     1       1.748  12.085  23.456  1.00  0.00     0.202 C
ENDBRANCH   1  14
BRANCH   3  16
HETATM   16  O2  UNL     1       6.051  12.904  23.769  1.00  0.00    -0.395 OA
ATOM     17  H2  UNL     1       6.022  12.528  22.897  1.00  0.00     0.210 HD
ENDBRANCH   3  16
TORSDOF 3
ENDMDL