MODEL 1
REMARK VINA RESULT: -5.767282511      0.000      0.000
REMARK  2 active torsions:
REMARK  status: ('A' for Active; 'I' for Inactive)
REMARK    1  A    between atoms: C1_2  and  C2_4
REMARK    2  A    between atoms: C9_12  and  C10_13
ROOT
HETATM    1  C2  UNL     1      -0.296   8.445  25.265  1.00  0.00     0.103 C
HETATM    2  C3  UNL     1      -0.418   9.149  26.580  1.00  0.00     0.018 C
HETATM    3  C4  UNL     1      -0.495  10.638  26.273  1.00  0.00     0.022 C
HETATM    4  C5  UNL     1      -0.489  10.735  24.800  1.00  0.00     0.022 C
HETATM    5  C6  UNL     1      -1.790  10.871  24.132  1.00  0.00     0.022 C
HETATM    6  C7  UNL     1      -1.913  12.119  23.374  1.00  0.00     0.012 C
HETATM    7  C8  UNL     1      -0.610  12.525  22.783  1.00  0.00     0.075 C
HETATM    8  S1  UNL     1       0.517  12.139  24.185  1.00  0.00    -0.158 SA
HETATM    9  C9  UNL     1       0.201   9.473  24.269  1.00  0.00     0.119 C
ENDROOT
BRANCH   9  10
HETATM   10  C10 UNL     1       1.665   9.644  24.307  1.00  0.00     0.179 C
HETATM   11  O3  UNL     1       2.304   9.523  23.234  1.00  0.00    -0.648 OA
HETATM   12  O4  UNL     1       2.260   9.926  25.525  1.00  0.00    -0.648 OA
ENDBRANCH   9  10
BRANCH   1  13
HETATM   13  C1  UNL     1       0.662   7.327  25.274  1.00  0.00     0.177 C
HETATM   14  O1  UNL     1       0.875   6.654  24.251  1.00  0.00    -0.648 OA
HETATM   15  O2  UNL     1       1.322   7.038  26.447  1.00  0.00    -0.648 OA
ENDBRANCH   1  13
TORSDOF 2
ENDMDL