MODEL 3
REMARK VINA RESULT: -6.382563115      5.656      7.246
REMARK  3 active torsions:
REMARK  status: ('A' for Active; 'I' for Inactive)
REMARK    1  A    between atoms: C1_2  and  C2_4
REMARK    2  A    between atoms: C3_5  and  C4_6
REMARK    3  A    between atoms: C4_6  and  O3_7
ROOT
HETATM    1  C4  UNL     1       4.026  10.927  24.020  1.00  0.00     0.079 C
HETATM    2  C5  UNL     1       3.659  10.195  22.763  1.00  0.00     0.072 C
HETATM    3  C6  UNL     1       4.626   9.052  22.524  1.00  0.00     0.276 C
HETATM    4  N1  UNL     1       5.341   8.815  23.730  1.00  0.00     0.093 N
HETATM    5  C7  UNL     1       5.950   7.528  23.842  1.00  0.00     0.273 C
HETATM    6  C8  UNL     1       7.417   7.599  24.112  1.00  0.00     0.030 C
HETATM    7  C9  UNL     1       8.129   8.617  23.261  1.00  0.00     0.004 C
HETATM    8  C10 UNL     1       7.417   9.927  23.192  1.00  0.00     0.036 C
HETATM    9  C11 UNL     1       6.219   9.868  24.122  1.00  0.00     0.226 C
HETATM   10  C12 UNL     1       5.517  11.196  24.127  1.00  0.00     0.077 C
ENDROOT
BRANCH   1  11
HETATM   11  C3  UNL     1       3.318  12.208  24.126  1.00  0.00     0.017 C
HETATM   12  C2  UNL     1       3.891  13.208  24.765  1.00  0.00     0.083 C
BRANCH  12  13
HETATM   13  C1  UNL     1       3.209  14.511  24.893  1.00  0.00     0.198 C
HETATM   14  O1  UNL     1       3.865  15.462  25.347  1.00  0.00    -0.645 OA
HETATM   15  O2  UNL     1       1.901  14.568  24.497  1.00  0.00    -0.645 OA
ENDBRANCH  12  13
ENDBRANCH   1  11
BRANCH   1  16
HETATM   16  O3  UNL     1       3.709  10.087  25.106  1.00  0.00    -0.386 OA
ATOM     17  H3  UNL     1       3.982   9.193  24.933  1.00  0.00     0.211 HD
ENDBRANCH   1  16
TORSDOF 3
ENDMDL