MODEL 1
REMARK VINA RESULT: -9.101702513      0.000      0.000
REMARK  7 active torsions:
REMARK  status: ('A' for Active; 'I' for Inactive)
REMARK    1  A    between atoms: C3_3  and  C4_4
REMARK    2  A    between atoms: C4_4  and  C5_5
REMARK    3  A    between atoms: N1_8  and  N2_10
REMARK       I    between atoms: N2_10  and  C8_12
REMARK    4  A    between atoms: C8_12  and  C9_14
REMARK    5  A    between atoms: C9_14  and  O2_15
REMARK    6  A    between atoms: C9_14  and  N3_17
REMARK       I    between atoms: N3_17  and  C10_19
REMARK    7  A    between atoms: C10_19  and  C11_21
ROOT
HETATM    1  C1  UNL     1       5.853  15.348  25.667  1.00  0.00     0.019 C
HETATM    2  C2  UNL     1       6.909  14.938  25.237  1.00  0.00    -0.063 C
HETATM    3  C3  UNL     1       8.167  14.456  24.753  1.00  0.00     0.078 C
HETATM    4  N1  UNL     1       8.232  13.298  24.211  1.00  0.00    -0.293 N
ATOM      5  H1  UNL     1       9.132  12.963  23.866  1.00  0.00     0.187 HD
ENDROOT
BRANCH   3   6
HETATM    6  C4  UNL     1       9.392  15.312  24.882  1.00  0.00     0.073 C
BRANCH   6   7
HETATM    7  C5  UNL     1       9.834  15.310  26.331  1.00  0.00    -0.008 A
HETATM    8  C6  UNL     1      11.322  15.086  26.513  1.00  0.00     0.005 A
HETATM    9  C7  UNL     1      10.289  14.079  26.994  1.00  0.00     0.005 A
ENDBRANCH   6   7
ENDBRANCH   3   6
BRANCH   4  10
HETATM   10  N2  UNL     1       7.132  12.496  24.080  1.00  0.00    -0.262 N
HETATM   11  C8  UNL     1       7.272  11.115  23.669  1.00  0.00     0.310 C
HETATM   12  O1  UNL     1       8.452  10.762  23.459  1.00  0.00    -0.262 OA
ATOM     13  H2  UNL     1       6.204  12.874  24.273  1.00  0.00     0.190 HD
BRANCH  11  14
HETATM   14  C9  UNL     1       6.129  10.261  23.527  1.00  0.00     0.214 C
BRANCH  14  15
HETATM   15  O2  UNL     1       6.287   9.335  22.617  1.00  0.00    -0.342 OA
ATOM     16  H2  UNL     1       6.317   8.457  22.978  1.00  0.00     0.219 HD
ENDBRANCH  14  15
BRANCH  14  17
HETATM   17  N3  UNL     1       4.923  10.270  24.191  1.00  0.00    -0.303 N
HETATM   18  C10 UNL     1       3.651   9.775  23.880  1.00  0.00     0.230 C
HETATM   19  O3  UNL     1       3.422   9.175  22.814  1.00  0.00    -0.273 OA
ATOM     20  H3  UNL     1       4.965  10.735  25.098  1.00  0.00     0.171 HD
BRANCH  18  21
HETATM   21  C11 UNL     1       2.528   9.978  24.872  1.00  0.00     0.105 C
HETATM   22  C12 UNL     1       1.417   9.057  24.487  1.00  0.00     0.183 C
HETATM   23  O4  UNL     1       0.541   9.809  23.761  1.00  0.00    -0.379 OA
HETATM   24  C13 UNL     1       0.507  11.031  24.384  1.00  0.00     0.061 C
HETATM   25  C14 UNL     1      -0.146  12.097  23.565  1.00  0.00     0.038 C
HETATM   26  C17 UNL     1      -0.406  10.955  25.596  1.00  0.00     0.038 C
HETATM   27  C18 UNL     1       1.928  11.354  24.775  1.00  0.00     0.054 C
HETATM   28  C15 UNL     1      -1.607  11.699  23.631  1.00  0.00     0.003 C
HETATM   29  C16 UNL     1      -1.777  10.910  24.912  1.00  0.00     0.003 C
ENDBRANCH  18  21
ENDBRANCH  14  17
ENDBRANCH  11  14
ENDBRANCH   4  10
TORSDOF 7
ENDMDL