MODEL 2
REMARK VINA RESULT: -8.883143687      5.800      9.113
REMARK  6 active torsions:
REMARK  status: ('A' for Active; 'I' for Inactive)
REMARK    1  A    between atoms: N1_1  and  O1_4
REMARK    2  A    between atoms: O1_4  and  C1_5
REMARK    3  A    between atoms: C2_7  and  C3_8
REMARK    4  A    between atoms: C3_8  and  C4_9
REMARK    5  A    between atoms: C16_22  and  C17_23
REMARK    6  A    between atoms: C17_23  and  C18_24
ROOT
HETATM    1  C4  UNL     1       6.753  13.972  24.610  1.00  0.00     0.024 C
HETATM    2  C5  UNL     1       5.767  12.897  24.230  1.00  0.00    -0.004 C
HETATM    3  C6  UNL     1       6.251  11.491  24.335  1.00  0.00     0.005 C
HETATM    4  C7  UNL     1       5.759  10.691  23.118  1.00  0.00     0.000 C
HETATM    5  C8  UNL     1       4.721   9.723  23.569  1.00  0.00     0.000 C
HETATM    6  C9  UNL     1       3.338  10.176  23.227  1.00  0.00     0.000 C
HETATM    7  C10 UNL     1       3.106  11.650  23.509  1.00  0.00     0.000 C
HETATM    8  C11 UNL     1       3.491  12.000  24.894  1.00  0.00     0.005 C
HETATM    9  C12 UNL     1       4.543  13.002  25.096  1.00  0.00    -0.007 C
HETATM   10  C13 UNL     1       3.996  14.395  24.900  1.00  0.00     0.039 C
HETATM   11  C14 UNL     1       4.872  15.361  25.590  1.00  0.00     0.151 A
HETATM   12  O3  UNL     1       5.704  14.884  26.697  1.00  0.00    -0.375 OA
HETATM   13  C15 UNL     1       6.272  15.053  25.475  1.00  0.00     0.155 A
ENDROOT
BRANCH   1  14
HETATM   14  C3  UNL     1       8.057  13.401  25.095  1.00  0.00     0.040 C
BRANCH  14  15
HETATM   15  C2  UNL     1       8.981  14.385  25.712  1.00  0.00     0.134 C
HETATM   16  O2  UNL     1       8.941  14.550  27.086  1.00  0.00    -0.353 OA
HETATM   17  C1  UNL     1       9.806  13.465  27.208  1.00  0.00     0.295 C
HETATM   18  C16 UNL     1      10.398  13.845  25.881  1.00  0.00     0.081 C
BRANCH  17  19
HETATM   19  O1  UNL     1      10.748  13.646  28.237  1.00  0.00    -0.254 OA
BRANCH  19  20
HETATM   20  N1  UNL     1      10.424  12.868  29.274  1.00  0.00    -0.308 N
ATOM     21  H12 UNL     1      10.876  11.980  29.493  1.00  0.00     0.184 HD
ATOM     22  H11 UNL     1       9.666  13.303  29.799  1.00  0.00     0.184 HD
ENDBRANCH  19  20
ENDBRANCH  17  19
BRANCH  18  23
HETATM   23  C17 UNL     1      11.434  14.910  26.041  1.00  0.00     0.111 C
BRANCH  23  24
HETATM   24  C18 UNL     1      12.802  14.437  25.795  1.00  0.00     0.231 C
HETATM   25  N2  UNL     1      13.888  14.855  26.598  1.00  0.00    -0.062 NA
HETATM   26  O4  UNL     1      13.015  13.644  24.853  1.00  0.00    -0.277 OA
ENDBRANCH  23  24
ENDBRANCH  18  23
ENDBRANCH  14  15
ENDBRANCH   1  14
TORSDOF 6
ENDMDL