MODEL 4
REMARK VINA RESULT: -7.950100239      3.901      8.312
REMARK  4 active torsions:
REMARK  status: ('A' for Active; 'I' for Inactive)
REMARK    1  A    between atoms: C2_3  and  C3_4
REMARK    2  A    between atoms: C3_4  and  N2_5
REMARK       I    between atoms: N2_5  and  C4_7
REMARK    3  A    between atoms: C4_7  and  C5_9
REMARK    4  A    between atoms: C5_9  and  N3_10
ROOT
HETATM    1  N1  UNL     1       0.167   9.905  26.484  1.00  0.00    -0.197 NA
HETATM    2  C1  UNL     1      -0.850  10.354  26.126  1.00  0.00     0.060 C
HETATM    3  C2  UNL     1      -2.125  10.912  25.699  1.00  0.00     0.143 C
ENDROOT
BRANCH   3   4
HETATM    4  C3  UNL     1      -2.049  11.440  24.280  1.00  0.00     0.136 C
BRANCH   4   5
HETATM    5  N2  UNL     1      -0.634  11.701  23.993  1.00  0.00    -0.359 N
HETATM    6  C4  UNL     1      -0.351  12.463  22.833  1.00  0.00     0.235 C
HETATM    7  O1  UNL     1      -1.251  12.893  22.089  1.00  0.00    -0.272 OA
ATOM      8  H2  UNL     1       0.109  11.352  24.599  1.00  0.00     0.162 HD
BRANCH   6   9
HETATM    9  C5  UNL     1       1.097  12.740  22.522  1.00  0.00     0.222 C
BRANCH   9  10
HETATM   10  N3  UNL     1       1.898  11.751  23.169  1.00  0.00    -0.379 N
HETATM   11  C6  UNL     1       2.779  12.057  24.039  1.00  0.00     0.042 C
HETATM   12  C7  UNL     1       2.960  13.507  24.375  1.00  0.00     0.064 C
HETATM   13  S1  UNL     1       3.787  10.833  24.857  1.00  0.00    -0.117 SA
HETATM   14  C8  UNL     1       3.905  13.634  25.565  1.00  0.00     0.006 C
HETATM   15  C9  UNL     1       4.315  15.066  25.693  1.00  0.00     0.000 C
HETATM   16  C10 UNL     1       5.812  15.239  25.816  1.00  0.00     0.002 C
HETATM   17  C11 UNL     1       6.568  14.629  24.682  1.00  0.00     0.020 C
HETATM   18  C12 UNL     1       7.521  13.566  25.199  1.00  0.00     0.122 C
HETATM   19  N4  UNL     1       8.125  12.835  24.105  1.00  0.00    -0.361 N
HETATM   20  C13 UNL     1       8.085  11.419  23.986  1.00  0.00     0.217 C
ATOM     21  H4  UNL     1       8.607  13.366  23.379  1.00  0.00     0.162 HD
HETATM   22  O2  UNL     1       9.100  10.804  23.562  1.00  0.00    -0.274 OA
HETATM   23  C14 UNL     1       6.859  10.641  24.355  1.00  0.00     0.103 C
HETATM   24  C15 UNL     1       5.904  10.565  23.186  1.00  0.00     0.020 C
HETATM   25  C16 UNL     1       4.680   9.808  23.650  1.00  0.00     0.081 C
ATOM     26  H3  UNL     1       1.761  10.769  22.927  1.00  0.00     0.160 HD
ENDBRANCH   9  10
ENDBRANCH   6   9
ENDBRANCH   4   5
ENDBRANCH   3   4
TORSDOF 4
ENDMDL