MODEL 2
REMARK VINA RESULT: -6.633802369      2.106      5.616
REMARK  7 active torsions:
REMARK  status: ('A' for Active; 'I' for Inactive)
REMARK    1  A    between atoms: O1_2  and  C2_3
REMARK    2  A    between atoms: C2_3  and  C3_5
REMARK    3  A    between atoms: C3_5  and  O3_6
REMARK    4  A    between atoms: C3_5  and  C14_22
REMARK    5  A    between atoms: O3_6  and  C4_7
REMARK    6  A    between atoms: C8_11  and  N1_12
REMARK       I    between atoms: N1_12  and  C9_14
REMARK       I    between atoms: C9_14  and  N2_16
REMARK    7  A    between atoms: N2_16  and  C10_18
ROOT
HETATM    1  C4  UNL     1       0.716  10.391  24.448  1.00  0.00     0.145 C
HETATM    2  C5  UNL     1       0.126  11.596  25.102  1.00  0.00     0.034 C
HETATM    3  C6  UNL     1       0.491  12.812  24.281  1.00  0.00     0.005 C
HETATM    4  C7  UNL     1       1.132  12.266  23.015  1.00  0.00     0.028 C
HETATM    5  C8  UNL     1       1.735  10.975  23.528  1.00  0.00     0.115 C
ENDROOT
BRANCH   1   6
HETATM    6  O3  UNL     1       1.134   9.402  25.281  1.00  0.00    -0.368 OA
BRANCH   6   7
HETATM    7  C3  UNL     1       0.209   8.490  25.718  1.00  0.00     0.228 C
BRANCH   7   8
HETATM    8  C2  UNL     1       0.496   7.125  25.199  1.00  0.00     0.288 C
HETATM    9  O2  UNL     1      -0.313   6.170  25.304  1.00  0.00    -0.262 OA
BRANCH   8  10
HETATM   10  O1  UNL     1       1.715   6.916  24.576  1.00  0.00    -0.324 OA
HETATM   11  C1  UNL     1       1.726   6.666  23.167  1.00  0.00     0.213 C
ENDBRANCH   8  10
ENDBRANCH   7   8
BRANCH   7  12
HETATM   12  C14 UNL     1       0.446   8.372  27.234  1.00  0.00    -0.016 C
HETATM   13  C15 UNL     1       0.090   6.999  27.742  1.00  0.00     0.018 C
HETATM   14  C16 UNL     1       1.878   8.651  27.540  1.00  0.00     0.018 C
HETATM   15  C17 UNL     1      -0.437   9.363  27.943  1.00  0.00     0.018 C
ENDBRANCH   7  12
ENDBRANCH   6   7
ENDBRANCH   1   6
BRANCH   5  16
HETATM   16  N1  UNL     1       3.044  11.146  24.064  1.00  0.00    -0.336 N
HETATM   17  C9  UNL     1       4.167  10.508  23.489  1.00  0.00     0.317 C
HETATM   18  O4  UNL     1       3.997   9.781  22.484  1.00  0.00    -0.247 OA
HETATM   19  N2  UNL     1       5.469  10.660  24.001  1.00  0.00    -0.335 N
ATOM     20  H2  UNL     1       5.590  11.254  24.822  1.00  0.00     0.165 HD
ATOM     21  H1  UNL     1       3.174  11.742  24.882  1.00  0.00     0.164 HD
BRANCH  19  22
HETATM   22  C10 UNL     1       6.639  10.039  23.451  1.00  0.00     0.023 C
HETATM   23  C11 UNL     1       7.909  10.816  23.824  1.00  0.00     0.037 C
HETATM   24  C12 UNL     1       6.595   9.929  21.948  1.00  0.00     0.037 C
HETATM   25  C13 UNL     1       6.800   8.668  24.074  1.00  0.00     0.037 C
ENDBRANCH  19  22
ENDBRANCH   5  16
TORSDOF 7
ENDMDL