MODEL 3
REMARK VINA RESULT: -7.816343382      1.038      1.472
REMARK  6 active torsions:
REMARK  status: ('A' for Active; 'I' for Inactive)
REMARK    1  A    between atoms: C2_2  and  C4_4
REMARK    2  A    between atoms: C4_4  and  O2_6
REMARK    3  A    between atoms: O2_6  and  C5_7
REMARK    4  A    between atoms: C11_14  and  O4_15
REMARK    5  A    between atoms: C13_18  and  C14_19
REMARK    6  A    between atoms: C14_19  and  C15_20
ROOT
HETATM    1  C5  UNL     1       5.405  11.279  24.448  1.00  0.00     0.143 C
HETATM    2  C6  UNL     1       6.619  10.833  23.590  1.00  0.00     0.068 C
HETATM    3  C7  UNL     1       7.067   9.490  24.027  1.00  0.00     0.154 A
HETATM    4  O3  UNL     1       6.975   8.446  23.133  1.00  0.00    -0.374 OA
HETATM    5  C8  UNL     1       6.004   8.591  24.253  1.00  0.00     0.162 A
HETATM    6  C9  UNL     1       4.623   8.977  23.819  1.00  0.00     0.020 C
HETATM    7  C10 UNL     1       4.458   8.739  22.322  1.00  0.00     0.021 C
HETATM    8  C11 UNL     1       3.687   7.960  24.480  1.00  0.00     0.130 C
HETATM    9  C12 UNL     1       2.257   8.401  24.398  1.00  0.00     0.037 C
HETATM   10  C13 UNL     1       2.122   9.571  25.341  1.00  0.00    -0.001 C
HETATM   11  C16 UNL     1       3.280  10.503  25.310  1.00  0.00     0.018 C
HETATM   12  C17 UNL     1       4.220  10.389  24.152  1.00  0.00    -0.005 C
HETATM   13  C18 UNL     1       3.567  11.067  22.928  1.00  0.00     0.019 C
ENDROOT
BRANCH   1  14
HETATM   14  O2  UNL     1       5.217  12.620  24.012  1.00  0.00    -0.315 OA
BRANCH  14  15
HETATM   15  C4  UNL     1       5.348  13.739  24.811  1.00  0.00     0.262 C
HETATM   16  O1  UNL     1       6.587  14.090  24.905  1.00  0.00    -0.265 OA
BRANCH  15  17
HETATM   17  C2  UNL     1       4.349  14.515  25.504  1.00  0.00     0.077 C
HETATM   18  C1  UNL     1       4.689  15.964  25.769  1.00  0.00     0.020 C
HETATM   19  C3  UNL     1       2.957  14.480  24.922  1.00  0.00     0.020 C
ENDBRANCH  15  17
ENDBRANCH  14  15
ENDBRANCH   1  14
BRANCH   8  20
HETATM   20  O4  UNL     1       3.921   6.696  24.008  1.00  0.00    -0.395 OA
ATOM     21  H4  UNL     1       3.833   6.052  24.700  1.00  0.00     0.210 HD
ENDBRANCH   8  20
BRANCH  10  22
HETATM   22  C14 UNL     1       0.776  10.282  25.144  1.00  0.00     0.117 C
BRANCH  22  23
HETATM   23  C15 UNL     1       0.056  10.148  26.423  1.00  0.00     0.172 C
HETATM   24  O5  UNL     1       0.316   9.196  27.192  1.00  0.00    -0.648 OA
HETATM   25  O6  UNL     1      -0.911  11.067  26.798  1.00  0.00    -0.648 OA
ENDBRANCH  22  23
ENDBRANCH  10  22
TORSDOF 6
ENDMDL