MODEL 5
REMARK VINA RESULT: -6.893154864      0.903      1.124
REMARK  6 active torsions:
REMARK  status: ('A' for Active; 'I' for Inactive)
REMARK    1  A    between atoms: C2_2  and  S1_4
REMARK    2  A    between atoms: S1_4  and  C4_5
REMARK    3  A    between atoms: N1_12  and  C11_13
REMARK    4  A    between atoms: C11_13  and  C12_14
REMARK    5  A    between atoms: C12_14  and  O1_15
REMARK    6  A    between atoms: C17_22  and  O3_24
ROOT
HETATM    1  C4  UNL     1       3.576   6.614  24.393  1.00  0.00     0.086 C
HETATM    2  C5  UNL     1       3.293   7.408  25.545  1.00  0.00     0.010 C
HETATM    3  C6  UNL     1       3.259   6.963  26.946  1.00  0.00     0.010 C
HETATM    4  C7  UNL     1       2.439   8.151  27.537  1.00  0.00     0.043 C
HETATM    5  C8  UNL     1       1.689   8.732  26.391  1.00  0.00     0.085 C
HETATM    6  C9  UNL     1       0.324   9.127  26.593  1.00  0.00     0.028 C
HETATM    7  C10 UNL     1      -0.345  10.059  25.905  1.00  0.00     0.084 C
HETATM    8  N1  UNL     1       0.120  10.868  24.832  1.00  0.00    -0.386 N
HETATM    9  C13 UNL     1       1.161  10.559  23.860  1.00  0.00     0.154 C
HETATM   10  C14 UNL     1       2.123   9.495  24.308  1.00  0.00     0.148 C
HETATM   11  O2  UNL     1       2.348   9.699  25.654  1.00  0.00    -0.368 OA
HETATM   12  C15 UNL     1       1.652   8.099  24.091  1.00  0.00     0.059 C
HETATM   13  C16 UNL     1       1.744   7.562  25.443  1.00  0.00     0.039 C
HETATM   14  C17 UNL     1       2.562   7.167  23.357  1.00  0.00     0.073 C
HETATM   15  C18 UNL     1       1.701   5.967  22.942  1.00  0.00     0.047 C
ENDROOT
BRANCH   1  16
HETATM   16  S1  UNL     1       5.182   7.031  23.692  1.00  0.00    -0.157 SA
BRANCH  16  17
HETATM   17  C2  UNL     1       6.080   8.353  24.427  1.00  0.00     0.039 C
HETATM   18  C1  UNL     1       5.720   9.727  23.862  1.00  0.00     0.021 C
HETATM   19  C3  UNL     1       7.551   8.175  24.423  1.00  0.00     0.021 C
ENDBRANCH  16  17
ENDBRANCH   1  16
BRANCH  14  20
HETATM   20  O3  UNL     1       3.151   7.722  22.262  1.00  0.00    -0.389 OA
ATOM     21  H3  UNL     1       3.210   8.669  22.302  1.00  0.00     0.210 HD
ENDBRANCH  14  20
BRANCH   8  22
HETATM   22  C11 UNL     1      -0.447  12.158  24.609  1.00  0.00     0.148 C
BRANCH  22  23
HETATM   23  C12 UNL     1      -1.032  12.290  23.245  1.00  0.00     0.183 C
BRANCH  23  24
HETATM   24  O1  UNL     1      -2.300  11.711  23.171  1.00  0.00    -0.399 OA
ATOM     25  H1  UNL     1      -2.864  12.178  22.565  1.00  0.00     0.209 HD
ENDBRANCH  23  24
ENDBRANCH  22  23
ENDBRANCH   8  22
TORSDOF 6
ENDMDL