MODEL 5
REMARK VINA RESULT: -7.852444301      4.371      6.690
REMARK  5 active torsions:
REMARK  status: ('A' for Active; 'I' for Inactive)
REMARK    1  A    between atoms: C2_2  and  C4_4
REMARK    2  A    between atoms: C4_4  and  C5_5
REMARK       I    between atoms: C5_5  and  N1_7
REMARK    3  A    between atoms: N1_7  and  C6_9
REMARK    4  A    between atoms: C6_9  and  C7_10
REMARK    5  A    between atoms: C7_10  and  O2_11
ROOT
HETATM    1  C7  UNL     1       1.495   7.155  24.821  1.00  0.00     0.074 C
HETATM    2  C8  UNL     1       2.511   7.659  25.829  1.00  0.00     0.042 C
HETATM    3  C9  UNL     1       3.915   7.396  25.402  1.00  0.00     0.044 C
HETATM    4  C10 UNL     1       4.164   8.158  24.121  1.00  0.00     0.101 C
HETATM    5  C11 UNL     1       3.153   7.858  23.064  1.00  0.00     0.044 C
HETATM    6  C12 UNL     1       1.724   7.924  23.552  1.00  0.00     0.042 C
HETATM    7  C13 UNL     1       5.536   7.854  23.548  1.00  0.00     0.116 C
HETATM    8  C14 UNL     1       6.223   9.198  23.765  1.00  0.00     0.295 C
HETATM    9  C15 UNL     1       7.695   9.034  24.031  1.00  0.00     0.077 C
HETATM   10  C16 UNL     1       8.218  10.429  23.670  1.00  0.00     0.042 C
HETATM   11  C17 UNL     1       7.274  10.929  22.625  1.00  0.00     0.255 A
HETATM   12  C18 UNL     1       6.977   9.977  21.512  1.00  0.00     0.313 A
HETATM   13  N2  UNL     1       6.105  10.071  22.643  1.00  0.00     0.135 N
HETATM   14  O3  UNL     1       5.519   9.697  24.832  1.00  0.00    -0.196 OA
HETATM   15  O4  UNL     1       4.254   9.508  24.444  1.00  0.00    -0.227 OA
ENDROOT
BRANCH   1  16
HETATM   16  C6  UNL     1       0.112   7.419  25.309  1.00  0.00     0.160 C
BRANCH  16  17
HETATM   17  N1  UNL     1      -0.276   8.764  24.943  1.00  0.00    -0.358 N
HETATM   18  C5  UNL     1      -0.423   9.805  25.898  1.00  0.00     0.217 C
HETATM   19  O1  UNL     1      -0.212   9.563  27.101  1.00  0.00    -0.274 OA
ATOM     20  H1  UNL     1      -0.451   8.973  23.960  1.00  0.00     0.162 HD
BRANCH  18  21
HETATM   21  C4  UNL     1      -0.822  11.144  25.444  1.00  0.00     0.106 C
BRANCH  21  22
HETATM   22  C2  UNL     1      -0.492  11.356  23.994  1.00  0.00    -0.014 C
HETATM   23  C1  UNL     1       0.779  12.204  23.926  1.00  0.00     0.010 C
HETATM   24  C3  UNL     1      -1.622  12.085  23.282  1.00  0.00     0.010 C
ENDBRANCH  21  22
ENDBRANCH  18  21
ENDBRANCH  16  17
ENDBRANCH   1  16
BRANCH   1  25
HETATM   25  O2  UNL     1       1.693   5.793  24.644  1.00  0.00    -0.388 OA
ATOM     26  H2  UNL     1       2.181   5.631  23.846  1.00  0.00     0.210 HD
ENDBRANCH   1  25
TORSDOF 5
ENDMDL