MODEL 3
REMARK VINA RESULT: -7.632640405      0.797      1.392
REMARK  7 active torsions:
REMARK  status: ('A' for Active; 'I' for Inactive)
REMARK    1  A    between atoms: C1_2  and  C2_4
REMARK    2  A    between atoms: C4_6  and  C5_7
REMARK    3  A    between atoms: C8_11  and  N1_12
REMARK    4  A    between atoms: N1_12  and  C9_14
REMARK    5  A    between atoms: C9_14  and  C10_16
REMARK    6  A    between atoms: C10_16  and  O3_17
REMARK    7  A    between atoms: C10_16  and  N2_19
ROOT
HETATM    1  N1  UNL     1       3.609  10.484  23.280  1.00  0.00    -0.337 N
ATOM      2  H1  UNL     1       3.394  10.635  22.294  1.00  0.00     0.167 HD
ENDROOT
BRANCH   1   3
HETATM    3  C8  UNL     1       4.611  11.311  23.835  1.00  0.00     0.092 A
HETATM    4  C2  UNL     1       5.961  11.385  23.789  1.00  0.00     0.075 A
HETATM    5  C3  UNL     1       6.560  12.513  24.231  1.00  0.00     0.036 A
HETATM    6  C4  UNL     1       5.767  13.510  24.708  1.00  0.00    -0.010 A
HETATM    7  S1  UNL     1       4.206  12.878  24.539  1.00  0.00    -0.075 SA
BRANCH   4   8
HETATM    8  C1  UNL     1       6.779  10.155  23.539  1.00  0.00     0.212 C
HETATM    9  O1  UNL     1       7.958  10.092  23.962  1.00  0.00    -0.644 OA
HETATM   10  O2  UNL     1       6.306   9.058  22.873  1.00  0.00    -0.644 OA
ENDBRANCH   4   8
BRANCH   6  11
HETATM   11  C5  UNL     1       6.189  14.855  25.257  1.00  0.00     0.026 A
HETATM   12  C6  UNL     1       5.009  15.728  25.641  1.00  0.00     0.010 A
HETATM   13  C7  UNL     1       5.943  15.146  26.688  1.00  0.00     0.010 A
ENDBRANCH   6  11
ENDBRANCH   1   3
BRANCH   1  14
HETATM   14  C9  UNL     1       2.885   9.494  23.916  1.00  0.00     0.152 C
HETATM   15  S2  UNL     1       2.871   7.949  23.405  1.00  0.00    -0.056 SA
BRANCH  14  16
HETATM   16  C10 UNL     1       1.950   9.842  24.990  1.00  0.00     0.177 C
BRANCH  16  17
HETATM   17  O3  UNL     1       2.381   9.527  26.175  1.00  0.00    -0.344 OA
ATOM     18  H3  UNL     1       1.699   9.516  26.836  1.00  0.00     0.219 HD
ENDBRANCH  16  17
BRANCH  16  19
HETATM   19  N2  UNL     1       0.703  10.450  24.867  1.00  0.00    -0.355 N
HETATM   20  C11 UNL     1       0.639  11.890  24.631  1.00  0.00     0.151 C
HETATM   21  C12 UNL     1      -0.291  12.077  23.441  1.00  0.00     0.187 C
HETATM   22  O4  UNL     1      -1.539  11.574  23.713  1.00  0.00    -0.388 OA
HETATM   23  C13 UNL     1      -1.630  10.850  24.876  1.00  0.00     0.187 C
HETATM   24  C14 UNL     1      -0.538   9.758  24.961  1.00  0.00     0.151 C
ENDBRANCH  16  19
ENDBRANCH  14  16
ENDBRANCH   1  14
TORSDOF 7
ENDMDL