MODEL 1
REMARK VINA RESULT: -6.355794665      0.000      0.000
REMARK  6 active torsions:
REMARK  status: ('A' for Active; 'I' for Inactive)
REMARK    1  A    between atoms: O1_2  and  C2_3
REMARK    2  A    between atoms: C2_3  and  C3_4
REMARK    3  A    between atoms: C3_4  and  C4_5
REMARK    4  A    between atoms: C4_5  and  O2_6
REMARK    5  A    between atoms: C8_12  and  C9_13
REMARK    6  A    between atoms: C12_17  and  O5_18
ROOT
HETATM    1  C3  UNL     1       2.785   7.846  24.696  1.00  0.00     0.016 C
HETATM    2  C5  UNL     1       3.974   8.641  24.532  1.00  0.00     0.043 C
HETATM    3  C6  UNL     1       3.857  10.151  24.347  1.00  0.00     0.035 C
HETATM    4  C7  UNL     1       5.382  10.402  24.246  1.00  0.00     0.170 C
HETATM    5  O3  UNL     1       5.961   9.209  23.839  1.00  0.00    -0.372 OA
HETATM    6  C8  UNL     1       4.895   8.418  23.387  1.00  0.00     0.122 C
HETATM    7  C10 UNL     1       5.300   7.040  23.056  1.00  0.00     0.038 C
HETATM    8  C11 UNL     1       4.313   6.360  22.148  1.00  0.00     0.041 C
HETATM    9  C12 UNL     1       2.959   6.238  22.843  1.00  0.00     0.124 C
HETATM   10  C13 UNL     1       3.063   6.418  24.339  1.00  0.00     0.036 C
HETATM   11  C14 UNL     1       4.291   5.753  24.831  1.00  0.00    -0.033 C
HETATM   12  C15 UNL     1       4.550   5.755  26.310  1.00  0.00     0.016 C
HETATM   13  C16 UNL     1       4.010   4.235  24.714  1.00  0.00     0.016 C
HETATM   14  C17 UNL     1       5.582   6.082  24.165  1.00  0.00    -0.033 C
HETATM   15  C18 UNL     1       6.266   4.895  23.484  1.00  0.00     0.016 C
HETATM   16  C19 UNL     1       6.691   6.612  25.010  1.00  0.00     0.016 C
ENDROOT
BRANCH   1  17
HETATM   17  C2  UNL     1       2.215   7.993  26.111  1.00  0.00     0.179 C
BRANCH  17  18
HETATM   18  O1  UNL     1       1.463   6.857  26.482  1.00  0.00    -0.395 OA
HETATM   19  C1  UNL     1       0.790   7.197  27.637  1.00  0.00     0.201 C
ENDBRANCH  17  18
ENDBRANCH   1  17
BRANCH   1  20
HETATM   20  C4  UNL     1       1.596   8.384  23.876  1.00  0.00     0.176 C
BRANCH  20  21
HETATM   21  O2  UNL     1       0.396   7.787  24.184  1.00  0.00    -0.400 OA
ATOM     22  H2  UNL     1      -0.331   8.396  24.240  1.00  0.00     0.209 HD
ENDBRANCH  20  21
ENDBRANCH   1  20
BRANCH   6  23
HETATM   23  C9  UNL     1       4.523   9.061  22.108  1.00  0.00     0.270 C
HETATM   24  O4  UNL     1       5.356   9.224  21.232  1.00  0.00    -0.304 OA
ENDBRANCH   6  23
BRANCH   9  25
HETATM   25  O5  UNL     1       2.299   5.075  22.441  1.00  0.00    -0.395 OA
ATOM     26  H5  UNL     1       2.771   4.304  22.731  1.00  0.00     0.210 HD
ENDBRANCH   9  25
TORSDOF 6
ENDMDL