MODEL 4
REMARK VINA RESULT: -6.650555723      2.925      4.688
REMARK  5 active torsions:
REMARK  status: ('A' for Active; 'I' for Inactive)
REMARK    1  A    between atoms: C2_2  and  C3_3
REMARK    2  A    between atoms: C12_12  and  C13_13
REMARK    3  A    between atoms: C13_13  and  C14_14
REMARK    4  A    between atoms: C14_14  and  O1_15
REMARK    5  A    between atoms: C17_22  and  C18_23
ROOT
HETATM    1  C3  UNL     1       3.551   7.431  23.256  1.00  0.00     0.053 C
HETATM    2  C4  UNL     1       4.055   7.512  21.838  1.00  0.00     0.018 C
HETATM    3  C5  UNL     1       4.835   8.823  21.598  1.00  0.00     0.007 C
HETATM    4  C6  UNL     1       6.097   8.717  22.336  1.00  0.00     0.004 C
HETATM    5  C7  UNL     1       6.028   7.857  23.539  1.00  0.00     0.054 C
HETATM    6  C8  UNL     1       7.033   8.369  24.531  1.00  0.00     0.011 C
HETATM    7  C9  UNL     1       7.845   9.348  23.695  1.00  0.00     0.011 C
HETATM    8  C10 UNL     1       6.761   9.985  22.811  1.00  0.00    -0.027 C
HETATM    9  C11 UNL     1       7.399  10.592  21.602  1.00  0.00     0.016 C
HETATM   10  C12 UNL     1       5.929  10.935  23.553  1.00  0.00     0.096 C
HETATM   11  C15 UNL     1       4.838  10.365  24.390  1.00  0.00     0.266 C
HETATM   12  O2  UNL     1       4.099  11.314  24.830  1.00  0.00    -0.265 OA
HETATM   13  O3  UNL     1       4.440   9.127  24.793  1.00  0.00    -0.282 OA
HETATM   14  C16 UNL     1       4.646   7.915  24.143  1.00  0.00     0.188 C
HETATM   15  O4  UNL     1       4.503   6.738  24.902  1.00  0.00    -0.336 OA
HETATM   16  C17 UNL     1       3.748   6.097  23.965  1.00  0.00     0.239 C
ENDROOT
BRANCH  10  17
HETATM   17  C13 UNL     1       6.687  11.836  24.480  1.00  0.00     0.041 C
BRANCH  17  18
HETATM   18  C14 UNL     1       6.630  13.305  24.233  1.00  0.00     0.165 C
BRANCH  18  19
HETATM   19  O1  UNL     1       5.465  13.925  24.689  1.00  0.00    -0.401 OA
ATOM     20  H1  UNL     1       5.424  14.859  24.522  1.00  0.00     0.209 HD
ENDBRANCH  18  19
ENDBRANCH  17  18
ENDBRANCH  10  17
BRANCH   1  21
HETATM   21  C2  UNL     1       2.147   7.834  23.487  1.00  0.00     0.014 C
HETATM   22  C1  UNL     1       1.058   6.859  23.481  1.00  0.00     0.006 C
ENDBRANCH   1  21
BRANCH  16  23
HETATM   23  C18 UNL     1       4.218   4.959  23.226  1.00  0.00     0.204 C
HETATM   24  O5  UNL     1       3.328   4.167  22.754  1.00  0.00    -0.646 OA
HETATM   25  O6  UNL     1       5.517   4.590  22.949  1.00  0.00    -0.646 OA
ENDBRANCH  16  23
TORSDOF 5
ENDMDL