MODEL 2
REMARK VINA RESULT: -6.521640171      2.579      4.670
REMARK  2 active torsions:
REMARK  status: ('A' for Active; 'I' for Inactive)
REMARK    1  A    between atoms: N6_19  and  C10_20
REMARK    2  A    between atoms: C10_20  and  C11_21
ROOT
HETATM    1  C1  UNL     1       5.621   7.389  24.590  1.00  0.00     0.024 C
HETATM    2  C2  UNL     1       4.709   7.478  23.401  1.00  0.00     0.075 C
HETATM    3  S1  UNL     1       4.390   5.812  22.766  1.00  0.00    -0.088 SA
HETATM    4  C3  UNL     1       2.642   5.513  22.833  1.00  0.00     0.134 C
HETATM    5  N1  UNL     1       2.197   4.337  22.547  1.00  0.00    -0.380 N
ATOM      6  H11 UNL     1       1.192   4.165  22.585  1.00  0.00     0.158 HD
ATOM      7  H12 UNL     1       2.807   3.563  22.282  1.00  0.00     0.158 HD
HETATM    8  N2  UNL     1       1.795   6.588  23.201  1.00  0.00    -0.361 N
ATOM      9  H2  UNL     1       0.844   6.641  22.835  1.00  0.00     0.162 HD
HETATM   10  C4  UNL     1       2.281   7.594  24.088  1.00  0.00     0.157 C
HETATM   11  C5  UNL     1       2.472   6.975  25.444  1.00  0.00     0.355 C
HETATM   12  N3  UNL     1       1.153   6.563  25.918  1.00  0.00    -0.125 NA
HETATM   13  N4  UNL     1       1.276   6.509  27.292  1.00  0.00    -0.209 NA
HETATM   14  C6  UNL     1       0.037   6.993  27.863  1.00  0.00     0.134 C
HETATM   15  C7  UNL     1       2.427   7.278  27.665  1.00  0.00     0.384 C
HETATM   16  N5  UNL     1       2.944   7.890  26.430  1.00  0.00     0.127 N
HETATM   17  C8  UNL     1       2.381   9.200  26.372  1.00  0.00     0.295 C
HETATM   18  C9  UNL     1       2.779  10.012  25.161  1.00  0.00     0.147 C
HETATM   19  N6  UNL     1       3.804   9.458  24.363  1.00  0.00    -0.403 N
HETATM   20  C14 UNL     1       3.495   8.311  23.581  1.00  0.00     0.119 C
ENDROOT
BRANCH  19  21
HETATM   21  C10 UNL     1       4.694  10.393  23.768  1.00  0.00     0.122 C
BRANCH  21  22
HETATM   22  C11 UNL     1       5.679  11.067  24.648  1.00  0.00     0.003 A
HETATM   23  C12 UNL     1       6.772  11.950  24.172  1.00  0.00     0.007 A
HETATM   24  C13 UNL     1       5.542  12.559  24.802  1.00  0.00     0.007 A
ENDBRANCH  21  22
ENDBRANCH  19  21
TORSDOF 2
ENDMDL