MODEL 4
REMARK VINA RESULT: -7.726293630      2.034      3.536
REMARK  3 active torsions:
REMARK  status: ('A' for Active; 'I' for Inactive)
REMARK    1  A    between atoms: N1_2  and  C2_4
REMARK    2  A    between atoms: C10_18  and  O1_19
REMARK    3  A    between atoms: O1_19  and  N5_20
REMARK       I    between atoms: N5_20  and  C11_22
ROOT
HETATM    1  C2  UNL     1       3.371  10.959  23.934  1.00  0.00     0.132 A
HETATM    2  N2  UNL     1       2.175  11.585  23.971  1.00  0.00    -0.318 N
ATOM      3  H2  UNL     1       1.344  11.103  23.625  1.00  0.00     0.170 HD
HETATM    4  C3  UNL     1       2.062  12.839  24.458  1.00  0.00     0.177 A
HETATM    5  S1  UNL     1       0.594  13.557  24.485  1.00  0.00    -0.040 SA
HETATM    6  N3  UNL     1       3.153  13.480  24.915  1.00  0.00    -0.334 N
ATOM      7  H3  UNL     1       3.060  14.427  25.282  1.00  0.00     0.168 HD
HETATM    8  C4  UNL     1       4.371  12.893  24.898  1.00  0.00     0.044 A
HETATM    9  C5  UNL     1       4.472  11.621  24.402  1.00  0.00     0.098 A
HETATM   10  N4  UNL     1       5.778  11.045  24.405  1.00  0.00    -0.369 N
HETATM   11  C6  UNL     1       6.251   9.840  23.740  1.00  0.00     0.124 C
HETATM   12  C7  UNL     1       7.779   9.920  23.743  1.00  0.00     0.022 C
HETATM   13  C8  UNL     1       8.055  11.329  24.212  1.00  0.00     0.029 C
HETATM   14  C9  UNL     1       6.871  11.605  25.111  1.00  0.00     0.116 C
HETATM   15  C10 UNL     1       6.797  13.029  25.519  1.00  0.00     0.180 C
HETATM   16  C13 UNL     1       5.481  13.694  25.415  1.00  0.00     0.096 C
ENDROOT
BRANCH  15  17
HETATM   17  O1  UNL     1       7.700  13.739  24.726  1.00  0.00    -0.270 OA
BRANCH  17  18
HETATM   18  N5  UNL     1       8.362  14.702  25.397  1.00  0.00    -0.235 N
HETATM   19  C11 UNL     1       9.504  14.497  26.201  1.00  0.00     0.237 C
HETATM   20  C12 UNL     1      10.171  15.617  26.903  1.00  0.00     0.119 C
HETATM   21  O2  UNL     1       9.991  13.340  26.343  1.00  0.00    -0.272 OA
ATOM     22  H5  UNL     1       8.010  15.655  25.317  1.00  0.00     0.197 HD
ENDBRANCH  17  18
ENDBRANCH  15  17
BRANCH   1  23
HETATM   23  N1  UNL     1       3.483   9.760  23.464  1.00  0.00    -0.379 N
HETATM   24  C1  UNL     1       2.687   8.697  24.023  1.00  0.00     0.147 C
ATOM     25  H1  UNL     1       4.132   9.568  22.701  1.00  0.00     0.160 HD
ENDBRANCH   1  23
TORSDOF 3
ENDMDL