MODEL 2
REMARK VINA RESULT: -5.955986114      1.323      1.562
REMARK  6 active torsions:
REMARK  status: ('A' for Active; 'I' for Inactive)
REMARK    1  A    between atoms: C2_2  and  C3_3
REMARK    2  A    between atoms: C3_3  and  C4_4
REMARK    3  A    between atoms: C6_6  and  O1_8
REMARK    4  A    between atoms: C12_15  and  O3_16
REMARK    5  A    between atoms: C14_19  and  O4_20
REMARK    6  A    between atoms: C15_22  and  O5_23
ROOT
HETATM    1  C4  UNL     1       2.131   9.031  25.416  1.00  0.00     0.047 C
HETATM    2  C5  UNL     1       2.604   9.232  26.854  1.00  0.00     0.024 C
HETATM    3  C6  UNL     1       2.540   7.602  25.063  1.00  0.00     0.084 C
HETATM    4  C7  UNL     1       2.014   7.164  23.719  1.00  0.00     0.051 C
HETATM    5  C8  UNL     1       3.987   7.400  25.115  1.00  0.00     0.010 C
HETATM    6  C9  UNL     1       4.944   8.159  24.609  1.00  0.00     0.010 C
HETATM    7  C10 UNL     1       4.736   9.422  23.852  1.00  0.00     0.083 C
HETATM    8  C11 UNL     1       5.704   9.451  22.688  1.00  0.00     0.051 C
HETATM    9  O2  UNL     1       3.435   9.471  23.443  1.00  0.00    -0.339 OA
HETATM   10  C12 UNL     1       2.674  10.046  24.487  1.00  0.00     0.180 C
HETATM   11  C13 UNL     1       3.566  11.085  25.101  1.00  0.00     0.087 C
HETATM   12  C14 UNL     1       3.540  12.427  24.437  1.00  0.00     0.156 C
HETATM   13  C15 UNL     1       4.980  12.885  24.734  1.00  0.00     0.148 C
HETATM   14  C16 UNL     1       5.724  11.706  24.145  1.00  0.00     0.043 C
HETATM   15  C17 UNL     1       4.976  10.559  24.799  1.00  0.00     0.038 C
ENDROOT
BRANCH   1  16
HETATM   16  C3  UNL     1       0.632   9.009  25.466  1.00  0.00     0.018 C
BRANCH  16  17
HETATM   17  C2  UNL     1      -0.001   9.572  26.681  1.00  0.00    -0.004 C
HETATM   18  C1  UNL     1      -0.764  10.862  26.366  1.00  0.00     0.005 C
ENDBRANCH  16  17
ENDBRANCH   1  16
BRANCH   3  19
HETATM   19  O1  UNL     1       1.942   6.789  26.034  1.00  0.00    -0.385 OA
ATOM     20  H1  UNL     1       2.430   5.974  26.020  1.00  0.00     0.211 HD
ENDBRANCH   3  19
BRANCH  10  21
HETATM   21  O3  UNL     1       1.609  10.627  23.790  1.00  0.00    -0.364 OA
ATOM     22  H3  UNL     1       1.629  10.315  22.893  1.00  0.00     0.213 HD
ENDBRANCH  10  21
BRANCH  12  23
HETATM   23  O4  UNL     1       2.722  13.352  25.048  1.00  0.00    -0.392 OA
ATOM     24  H4  UNL     1       1.826  13.356  24.731  1.00  0.00     0.210 HD
ENDBRANCH  12  23
BRANCH  13  25
HETATM   25  O5  UNL     1       5.178  12.925  26.113  1.00  0.00    -0.393 OA
ATOM     26  H5  UNL     1       5.721  13.673  26.332  1.00  0.00     0.210 HD
ENDBRANCH  13  25
TORSDOF 6
ENDMDL