MODEL 3
REMARK VINA RESULT: -7.149932811      2.467      3.903
REMARK  4 active torsions:
REMARK  status: ('A' for Active; 'I' for Inactive)
REMARK    1  A    between atoms: C1_2  and  C2_4
REMARK    2  A    between atoms: C5_8  and  C6_9
REMARK    3  A    between atoms: C6_9  and  O3_10
REMARK    4  A    between atoms: C14_22  and  O4_23
ROOT
HETATM    1  C2  UNL     1       6.160  11.405  24.075  1.00  0.00     0.091 A
HETATM    2  S1  UNL     1       7.270  12.515  24.811  1.00  0.00    -0.084 SA
HETATM    3  C3  UNL     1       6.222  13.480  25.638  1.00  0.00     0.019 A
HETATM    4  C4  UNL     1       4.931  12.946  25.356  1.00  0.00    -0.032 A
HETATM    5  C5  UNL     1       4.922  11.870  24.545  1.00  0.00     0.007 A
HETATM    6  C11 UNL     1       3.973  13.838  26.131  1.00  0.00     0.040 C
HETATM    7  C12 UNL     1       4.194  15.246  25.524  1.00  0.00     0.007 C
HETATM    8  C13 UNL     1       5.421  15.789  26.195  1.00  0.00     0.037 C
HETATM    9  C14 UNL     1       6.342  14.677  26.530  1.00  0.00     0.158 C
ENDROOT
BRANCH   5  10
HETATM   10  C6  UNL     1       3.705  11.047  24.179  1.00  0.00     0.090 C
HETATM   11  C7  UNL     1       3.226  10.152  25.243  1.00  0.00     0.070 C
HETATM   12  C8  UNL     1       1.800   9.651  24.911  1.00  0.00     0.235 C
HETATM   13  N1  UNL     1       0.819  10.676  25.033  1.00  0.00    -0.075 N
HETATM   14  C9  UNL     1       1.443  11.965  24.829  1.00  0.00     0.235 C
ATOM     15  H12 UNL     1       0.027  10.527  24.408  1.00  0.00     0.277 HD
ATOM     16  H11 UNL     1       0.317  10.626  25.919  1.00  0.00     0.277 HD
HETATM   17  C10 UNL     1       2.471  11.832  23.737  1.00  0.00     0.070 C
BRANCH  10  18
HETATM   18  O3  UNL     1       4.098  10.342  23.001  1.00  0.00    -0.385 OA
ATOM     19  H3  UNL     1       3.281  10.174  22.545  1.00  0.00     0.211 HD
ENDBRANCH  10  18
ENDBRANCH   5  10
BRANCH   1  20
HETATM   20  C1  UNL     1       6.579  10.341  23.182  1.00  0.00     0.217 C
HETATM   21  O1  UNL     1       6.642   9.148  23.720  1.00  0.00    -0.643 OA
HETATM   22  O2  UNL     1       6.928  10.344  21.882  1.00  0.00    -0.643 OA
ENDBRANCH   1  20
BRANCH   9  23
HETATM   23  O4  UNL     1       7.657  15.183  26.396  1.00  0.00    -0.390 OA
ATOM     24  H4  UNL     1       7.607  15.989  25.894  1.00  0.00     0.210 HD
ENDBRANCH   9  23
TORSDOF 4
ENDMDL