MODEL 2
REMARK VINA RESULT: -7.597714909      1.996      3.651
REMARK  4 active torsions:
REMARK  status: ('A' for Active; 'I' for Inactive)
REMARK    1  A    between atoms: C7_7  and  N1_9
REMARK    2  A    between atoms: N1_9  and  C9_11
REMARK    3  A    between atoms: C10_14  and  N3_15
REMARK    4  A    between atoms: C16_23  and  N5_24
ROOT
HETATM    1  C9  UNL     1       2.617  10.667  24.174  1.00  0.00     0.707 A
HETATM    2  N2  UNL     1       3.518  11.517  24.668  1.00  0.00    -0.021 N
ATOM      3  H2  UNL     1       4.452  11.161  24.875  1.00  0.00     0.203 HD
HETATM    4  C10 UNL     1       3.268  12.812  24.908  1.00  0.00     0.709 A
HETATM    5  N4  UNL     1       2.043  13.289  24.639  1.00  0.00    -0.022 N
ATOM      6  H4  UNL     1       1.826  14.270  24.812  1.00  0.00     0.203 HD
HETATM    7  C16 UNL     1       1.099  12.462  24.137  1.00  0.00     0.705 A
HETATM    8  N6  UNL     1       1.387  11.178  23.912  1.00  0.00    -0.022 N
ATOM      9  H6  UNL     1       0.665  10.565  23.533  1.00  0.00     0.203 HD
ENDROOT
BRANCH   1  10
HETATM   10  N1  UNL     1       2.784   9.430  23.922  1.00  0.00    -0.216 N
ATOM     11  H1  UNL     1       2.747   9.175  22.935  1.00  0.00     0.178 HD
BRANCH  10  12
HETATM   12  C7  UNL     1       3.016   8.356  24.824  1.00  0.00     0.047 C
HETATM   13  C2  UNL     1       2.307   7.083  24.414  1.00  0.00     0.010 C
HETATM   14  C1  UNL     1       2.920   6.458  23.188  1.00  0.00     0.012 C
HETATM   15  C3  UNL     1       0.851   7.318  24.147  1.00  0.00     0.007 C
HETATM   16  C4  UNL     1       0.232   7.813  25.441  1.00  0.00     0.001 C
HETATM   17  C5  UNL     1       1.247   7.887  26.552  1.00  0.00     0.002 C
HETATM   18  C6  UNL     1       2.416   8.737  26.182  1.00  0.00     0.031 C
HETATM   19  C8  UNL     1       4.485   8.080  24.925  1.00  0.00     0.039 C
ENDBRANCH  10  12
ENDBRANCH   1  10
BRANCH   4  20
HETATM   20  N3  UNL     1       4.232  13.714  25.434  1.00  0.00    -0.217 N
HETATM   21  C11 UNL     1       5.613  13.305  25.393  1.00  0.00     0.141 C
HETATM   22  C12 UNL     1       6.570  14.481  25.446  1.00  0.00     0.020 C
HETATM   23  C13 UNL     1       6.160  15.334  26.619  1.00  0.00     0.003 C
HETATM   24  C14 UNL     1       4.823  15.942  26.301  1.00  0.00     0.020 C
HETATM   25  C15 UNL     1       3.763  14.963  25.966  1.00  0.00     0.141 C
ENDBRANCH   4  20
BRANCH   7  26
HETATM   26  N5  UNL     1      -0.071  12.932  23.884  1.00  0.00    -0.234 N
ATOM     27  H52 UNL     1      -0.825  12.860  24.567  1.00  0.00     0.174 HD
ATOM     28  H51 UNL     1      -0.239  13.383  22.985  1.00  0.00     0.174 HD
ENDBRANCH   7  26
TORSDOF 4
ENDMDL