MODEL 3
REMARK VINA RESULT: -7.568289789      2.626      4.235
REMARK  4 active torsions:
REMARK  status: ('A' for Active; 'I' for Inactive)
REMARK    1  A    between atoms: O1_1  and  C1_3
REMARK    2  A    between atoms: C2_4  and  O2_5
REMARK    3  A    between atoms: O2_5  and  C3_6
REMARK    4  A    between atoms: C16_23  and  O3_24
ROOT
HETATM    1  C1  UNL     1       0.818   6.997  25.974  1.00  0.00     0.176 C
HETATM    2  C2  UNL     1       1.143   7.689  24.701  1.00  0.00     0.153 C
HETATM    3  C8  UNL     1       0.389   8.955  24.443  1.00  0.00     0.042 C
HETATM    4  C9  UNL     1      -0.402   9.387  25.619  1.00  0.00     0.024 C
HETATM    5  C10 UNL     1       0.387   9.286  26.917  1.00  0.00     0.024 C
HETATM    6  C11 UNL     1      -0.652   9.850  27.863  1.00  0.00     0.010 C
HETATM    7  C12 UNL     1      -1.282  10.971  27.095  1.00  0.00     0.033 C
HETATM    8  C13 UNL     1      -0.812  10.817  25.642  1.00  0.00     0.049 C
HETATM    9  C14 UNL     1       0.285  11.796  25.426  1.00  0.00     0.050 C
HETATM   10  C15 UNL     1       0.186  12.586  24.161  1.00  0.00     0.135 C
HETATM   11  N1  UNL     1      -1.156  12.764  23.681  1.00  0.00    -0.127 NA
HETATM   12  N2  UNL     1      -1.707  11.465  23.548  1.00  0.00    -0.035 NA
HETATM   13  N3  UNL     1      -1.960  10.993  24.807  1.00  0.00    -0.313 N
ATOM     14  H3  UNL     1      -2.904  10.781  25.129  1.00  0.00     0.178 HD
HETATM   15  C16 UNL     1       0.706   7.850  27.179  1.00  0.00     0.154 C
ENDROOT
BRANCH   2  16
HETATM   16  O2  UNL     1       2.525   7.855  24.604  1.00  0.00    -0.378 OA
BRANCH  16  17
HETATM   17  C3  UNL     1       2.897   9.133  24.245  1.00  0.00     0.122 C
HETATM   18  C4  UNL     1       3.930   9.176  23.152  1.00  0.00     0.032 C
HETATM   19  C5  UNL     1       4.633  10.517  23.371  1.00  0.00     0.002 C
HETATM   20  C6  UNL     1       4.706  10.620  24.878  1.00  0.00     0.002 C
HETATM   21  C7  UNL     1       3.603   9.763  25.432  1.00  0.00     0.032 C
ENDBRANCH  16  17
ENDBRANCH   2  16
BRANCH   1  22
HETATM   22  O1  UNL     1      -0.324   6.182  25.816  1.00  0.00    -0.390 OA
ATOM     23  H1  UNL     1      -1.010   6.451  26.415  1.00  0.00     0.210 HD
ENDBRANCH   1  22
BRANCH  15  24
HETATM   24  O3  UNL     1      -0.326   7.319  27.986  1.00  0.00    -0.393 OA
ATOM     25  H3  UNL     1      -0.421   6.400  27.767  1.00  0.00     0.210 HD
ENDBRANCH  15  24
TORSDOF 4
ENDMDL