MODEL 3
REMARK VINA RESULT: -8.078049249      2.423      3.146
REMARK  5 active torsions:
REMARK  status: ('A' for Active; 'I' for Inactive)
REMARK    1  A    between atoms: N3_9  and  N4_10
REMARK    2  A    between atoms: N4_10  and  C4_12
REMARK    3  A    between atoms: C4_12  and  N5_14
REMARK    4  A    between atoms: N5_14  and  N6_16
REMARK       I    between atoms: N6_16  and  C5_18
REMARK    5  A    between atoms: C5_18  and  C6_20
ROOT
HETATM    1  C4  UNL     1       1.872   9.550  24.239  1.00  0.00     0.206 C
HETATM    2  S2  UNL     1       3.027   8.443  24.163  1.00  0.00    -0.038 SA
ENDROOT
BRANCH   1   3
HETATM    3  N4  UNL     1       0.617   9.429  24.776  1.00  0.00    -0.265 N
ATOM      4  H4  UNL     1       0.046   8.802  24.210  1.00  0.00     0.190 HD
BRANCH   3   5
HETATM    5  N3  UNL     1      -0.103   9.898  25.848  1.00  0.00    -0.213 N
HETATM    6  C2  UNL     1      -0.133   9.707  27.159  1.00  0.00     0.117 A
HETATM    7  C1  UNL     1       0.617   8.688  27.929  1.00  0.00     0.092 C
HETATM    8  N1  UNL     1      -1.031  10.574  27.728  1.00  0.00    -0.285 N
HETATM    9  N2  UNL     1      -1.569  11.306  26.798  1.00  0.00    -0.273 N
ATOM     10  H1  UNL     1      -1.244  10.635  28.723  1.00  0.00     0.188 HD
HETATM   11  C3  UNL     1      -1.023  10.916  25.647  1.00  0.00     0.213 A
ATOM     12  H2  UNL     1      -2.271  12.034  26.924  1.00  0.00     0.189 HD
HETATM   13  S1  UNL     1      -1.433  11.601  24.217  1.00  0.00    -0.037 SA
ENDBRANCH   3   5
ENDBRANCH   1   3
BRANCH   1  14
HETATM   14  N5  UNL     1       2.275  10.855  23.697  1.00  0.00    -0.272 N
ATOM     15  H5  UNL     1       2.243  11.046  22.696  1.00  0.00     0.189 HD
BRANCH  14  16
HETATM   16  N6  UNL     1       2.702  11.816  24.599  1.00  0.00    -0.268 N
HETATM   17  C5  UNL     1       4.048  12.221  24.746  1.00  0.00     0.240 C
HETATM   18  O1  UNL     1       4.914  11.670  24.006  1.00  0.00    -0.271 OA
ATOM     19  H6  UNL     1       2.002  12.258  25.195  1.00  0.00     0.190 HD
BRANCH  17  20
HETATM   20  C6  UNL     1       4.493  13.251  25.712  1.00  0.00     0.079 C
HETATM   21  C7  UNL     1       3.581  14.425  25.630  1.00  0.00     0.014 C
HETATM   22  C8  UNL     1       4.122  15.541  26.489  1.00  0.00     0.001 C
HETATM   23  C9  UNL     1       5.435  15.973  25.883  1.00  0.00     0.000 C
HETATM   24  C10 UNL     1       6.425  14.859  25.915  1.00  0.00     0.001 C
HETATM   25  C11 UNL     1       5.934  13.548  25.418  1.00  0.00     0.014 C
ENDBRANCH  17  20
ENDBRANCH  14  16
ENDBRANCH   1  14
TORSDOF 5
ENDMDL