MODEL 1
REMARK VINA RESULT: -9.060573488      0.000      0.000
REMARK  6 active torsions:
REMARK  status: ('A' for Active; 'I' for Inactive)
REMARK       I    between atoms: N1_2  and  C2_4
REMARK       I    between atoms: C2_4  and  N2_6
REMARK    1  A    between atoms: N2_6  and  N3_8
REMARK    2  A    between atoms: N3_8  and  C3_9
REMARK    3  A    between atoms: C3_9  and  O2_10
REMARK    4  A    between atoms: C3_9  and  C4_12
REMARK    5  A    between atoms: C4_12  and  N4_14
REMARK    6  A    between atoms: C10_19  and  O3_20
ROOT
HETATM    1  N4  UNL     1       5.991  13.623  25.429  1.00  0.00    -0.294 N
HETATM    2  C6  UNL     1       4.676  13.321  25.254  1.00  0.00     0.022 A
HETATM    3  C7  UNL     1       3.542  14.283  25.518  1.00  0.00     0.069 C
HETATM    4  C8  UNL     1       4.548  12.027  24.763  1.00  0.00    -0.025 A
HETATM    5  C9  UNL     1       5.826  11.583  24.652  1.00  0.00     0.002 A
HETATM    6  C10 UNL     1       6.718  12.547  25.054  1.00  0.00     0.154 A
HETATM    7  C11 UNL     1       6.338  10.297  24.158  1.00  0.00     0.043 C
HETATM    8  C12 UNL     1       5.310   9.198  24.030  1.00  0.00     0.005 C
HETATM    9  C13 UNL     1       4.300   9.734  23.013  1.00  0.00     0.001 C
HETATM   10  C14 UNL     1       3.132  10.164  23.819  1.00  0.00     0.005 C
HETATM   11  C15 UNL     1       3.244  11.463  24.508  1.00  0.00     0.041 C
ENDROOT
BRANCH   1  12
HETATM   12  C4  UNL     1       6.491  14.900  25.918  1.00  0.00     0.082 C
HETATM   13  C5  UNL     1       6.005  15.316  27.256  1.00  0.00     0.075 C
BRANCH  12  14
HETATM   14  C3  UNL     1       7.963  15.072  25.658  1.00  0.00     0.261 C
BRANCH  14  15
HETATM   15  N3  UNL     1       8.980  14.935  26.527  1.00  0.00    -0.294 NA
BRANCH  15  16
HETATM   16  N2  UNL     1      10.009  14.794  27.384  1.00  0.00    -0.182 N
HETATM   17  C2  UNL     1      11.368  14.539  27.155  1.00  0.00     0.344 C
HETATM   18  N1  UNL     1      12.271  14.581  28.286  1.00  0.00    -0.345 N
HETATM   19  O1  UNL     1      11.881  14.288  26.065  1.00  0.00    -0.245 OA
HETATM   20  C1  UNL     1      13.665  14.336  28.034  1.00  0.00     0.151 C
ATOM     21  H1  UNL     1      11.930  14.778  29.226  1.00  0.00     0.163 HD
ATOM     22  H2  UNL     1       9.756  14.888  28.368  1.00  0.00     0.207 HD
ENDBRANCH  15  16
ENDBRANCH  14  15
BRANCH  14  23
HETATM   23  O2  UNL     1       8.208  15.390  24.409  1.00  0.00    -0.333 OA
ATOM     24  H2  UNL     1       7.698  14.996  23.711  1.00  0.00     0.220 HD
ENDBRANCH  14  23
ENDBRANCH  12  14
ENDBRANCH   1  12
BRANCH   6  25
HETATM   25  O3  UNL     1       8.134  12.377  25.057  1.00  0.00    -0.345 OA
ATOM     26  H3  UNL     1       8.714  12.186  24.330  1.00  0.00     0.219 HD
ENDBRANCH   6  25
TORSDOF 6
ENDMDL