MODEL 4
REMARK VINA RESULT: -7.915209095      2.993      4.112
REMARK  5 active torsions:
REMARK  status: ('A' for Active; 'I' for Inactive)
REMARK    1  A    between atoms: C4_4  and  C5_5
REMARK    2  A    between atoms: C9_9  and  O1_10
REMARK    3  A    between atoms: C13_15  and  O2_16
REMARK    4  A    between atoms: N1_19  and  N2_21
REMARK    5  A    between atoms: N2_21  and  C15_23
ROOT
HETATM    1  C5  UNL     1       3.840  12.920  25.072  1.00  0.00     0.014 C
HETATM    2  C6  UNL     1       3.600  11.645  24.890  1.00  0.00    -0.009 C
HETATM    3  C7  UNL     1       4.642  10.657  24.823  1.00  0.00     0.012 C
HETATM    4  C8  UNL     1       4.371   9.395  24.640  1.00  0.00     0.015 C
HETATM    5  C9  UNL     1       3.006   8.888  24.489  1.00  0.00     0.112 C
HETATM    6  C10 UNL     1       2.937   7.626  25.367  1.00  0.00     0.046 C
HETATM    7  C11 UNL     1       2.708   8.240  26.725  1.00  0.00     0.007 C
HETATM    8  C12 UNL     1       1.808   9.433  26.477  1.00  0.00     0.048 C
HETATM    9  C13 UNL     1       1.913   9.757  25.006  1.00  0.00     0.136 C
HETATM   10  C14 UNL     1       2.193  11.181  24.745  1.00  0.00     0.073 C
HETATM   11  N1  UNL     1       1.341  12.049  24.410  1.00  0.00    -0.299 N
ATOM     12  H1  UNL     1       1.696  12.994  24.268  1.00  0.00     0.186 HD
ENDROOT
BRANCH   9  13
HETATM   13  O2  UNL     1       0.729   9.420  24.352  1.00  0.00    -0.380 OA
ATOM     14  H2  UNL     1       0.945   9.033  23.512  1.00  0.00     0.211 HD
ENDBRANCH   9  13
BRANCH  11  15
HETATM   15  N2  UNL     1      -0.008  11.873  24.211  1.00  0.00    -0.278 N
ATOM     16  H2  UNL     1      -0.531  11.357  24.919  1.00  0.00     0.189 HD
BRANCH  15  17
HETATM   17  C15 UNL     1      -0.718  12.361  23.087  1.00  0.00     0.199 C
HETATM   18  N3  UNL     1      -2.108  12.115  22.944  1.00  0.00    -0.068 NA
HETATM   19  S1  UNL     1       0.013  13.222  21.907  1.00  0.00    -0.043 SA
ENDBRANCH  15  17
ENDBRANCH  11  15
BRANCH   1  20
HETATM   20  C4  UNL     1       5.169  13.481  25.225  1.00  0.00     0.003 C
HETATM   21  C2  UNL     1       5.360  14.661  25.799  1.00  0.00    -0.088 C
HETATM   22  C1  UNL     1       4.219  15.454  26.308  1.00  0.00     0.043 C
HETATM   23  C3  UNL     1       6.730  15.188  25.931  1.00  0.00     0.043 C
ENDBRANCH   1  20
BRANCH   5  24
HETATM   24  O1  UNL     1       2.819   8.542  23.147  1.00  0.00    -0.382 OA
ATOM     25  H1  UNL     1       3.456   7.873  22.925  1.00  0.00     0.211 HD
ENDBRANCH   5  24
TORSDOF 5
ENDMDL