MODEL 4
REMARK VINA RESULT: -6.530026406      2.105      2.552
REMARK  3 active torsions:
REMARK  status: ('A' for Active; 'I' for Inactive)
REMARK    1  A    between atoms: C2_2  and  C3_3
REMARK    2  A    between atoms: C13_15  and  N2_16
REMARK    3  A    between atoms: C14_20  and  C15_21
ROOT
HETATM    1  C3  UNL     1       2.831   8.383  27.012  1.00  0.00     0.023 C
HETATM    2  C4  UNL     1       2.729   9.591  26.099  1.00  0.00     0.062 C
HETATM    3  C5  UNL     1       4.027   9.596  25.282  1.00  0.00     0.013 C
HETATM    4  C6  UNL     1       4.427   8.219  24.875  1.00  0.00     0.008 C
HETATM    5  C7  UNL     1       3.312   7.212  24.920  1.00  0.00     0.013 C
HETATM    6  C8  UNL     1       2.272   7.479  23.849  1.00  0.00     0.087 C
HETATM    7  C9  UNL     1       1.391   6.278  23.740  1.00  0.00     0.025 C
HETATM    8  C10 UNL     1       1.019   5.670  25.048  1.00  0.00     0.002 C
HETATM    9  C11 UNL     1       1.259   6.588  26.227  1.00  0.00     0.006 C
HETATM   10  C12 UNL     1       2.669   7.080  26.267  1.00  0.00    -0.000 C
HETATM   11  N1  UNL     1       1.461   8.627  24.211  1.00  0.00    -0.373 N
ATOM     12  H1  UNL     1       0.624   8.751  23.642  1.00  0.00     0.161 HD
HETATM   13  C13 UNL     1       1.622   9.529  25.146  1.00  0.00     0.100 C
ENDROOT
BRANCH  13  14
HETATM   14  N2  UNL     1       0.600  10.483  25.163  1.00  0.00    -0.234 N
HETATM   15  N3  UNL     1      -0.702  10.287  25.632  1.00  0.00    -0.007 NA
HETATM   16  N4  UNL     1      -1.455  10.989  24.685  1.00  0.00    -0.015 NA
HETATM   17  N5  UNL     1      -0.751  12.204  24.623  1.00  0.00    -0.090 NA
HETATM   18  C14 UNL     1       0.648  11.862  24.714  1.00  0.00     0.317 C
BRANCH  18  19
HETATM   19  C15 UNL     1       1.269  12.014  23.402  1.00  0.00     0.216 C
HETATM   20  O1  UNL     1       2.426  11.599  23.197  1.00  0.00    -0.645 OA
HETATM   21  O2  UNL     1       0.589  12.617  22.364  1.00  0.00    -0.645 OA
ENDBRANCH  18  19
ENDBRANCH  13  14
BRANCH   1  22
HETATM   22  C2  UNL     1       1.877   8.499  28.143  1.00  0.00    -0.031 C
HETATM   23  C1  UNL     1       2.261   8.172  29.354  1.00  0.00     0.007 C
ENDBRANCH   1  22
TORSDOF 3
ENDMDL