MODEL 1
REMARK VINA RESULT: -9.059107120      0.000      0.000
REMARK  4 active torsions:
REMARK  status: ('A' for Active; 'I' for Inactive)
REMARK    1  A    between atoms: C8_9  and  O2_10
REMARK    2  A    between atoms: C13_16  and  C14_17
REMARK    3  A    between atoms: C14_17  and  O3_18
REMARK    4  A    between atoms: O3_18  and  C15_19
ROOT
HETATM    1  C1  UNL     1       5.372  14.509  24.885  1.00  0.00     0.025 C
HETATM    2  C2  UNL     1       5.177  13.234  24.498  1.00  0.00     0.011 C
HETATM    3  C3  UNL     1       6.266  12.464  23.914  1.00  0.00     0.157 C
HETATM    4  O1  UNL     1       7.379  12.493  24.556  1.00  0.00    -0.293 OA
HETATM    5  C4  UNL     1       6.250  11.665  22.691  1.00  0.00     0.095 C
HETATM    6  C5  UNL     1       6.422  10.175  22.861  1.00  0.00    -0.011 C
HETATM    7  C6  UNL     1       7.570   9.795  21.892  1.00  0.00     0.018 C
HETATM    8  C7  UNL     1       7.005   9.776  24.202  1.00  0.00     0.018 C
HETATM    9  C8  UNL     1       5.182   9.480  22.466  1.00  0.00     0.148 C
HETATM   10  C9  UNL     1       4.420   8.670  23.410  1.00  0.00     0.003 C
HETATM   11  C10 UNL     1       3.782   9.148  24.602  1.00  0.00     0.009 C
HETATM   12  C11 UNL     1       3.164  10.461  24.717  1.00  0.00     0.281 A
HETATM   13  C12 UNL     1       2.340  11.166  23.718  1.00  0.00     0.268 A
HETATM   14  C13 UNL     1       1.607  12.431  24.119  1.00  0.00     0.048 C
HETATM   15  C17 UNL     1       2.690  13.523  24.238  1.00  0.00     0.050 C
HETATM   16  C18 UNL     1       3.831  12.674  24.707  1.00  0.00     0.260 C
HETATM   17  N1  UNL     1       3.692  11.510  23.920  1.00  0.00     0.115 N
ENDROOT
BRANCH  14  18
HETATM   18  C14 UNL     1       0.721  12.844  22.988  1.00  0.00     0.185 C
BRANCH  18  19
HETATM   19  O3  UNL     1      -0.586  13.055  23.426  1.00  0.00    -0.321 OA
BRANCH  19  20
HETATM   20  C15 UNL     1      -1.558  12.101  23.261  1.00  0.00     0.254 C
HETATM   21  C16 UNL     1      -1.702  11.015  24.292  1.00  0.00     0.126 C
HETATM   22  O4  UNL     1      -2.360  12.051  22.304  1.00  0.00    -0.266 OA
ENDBRANCH  19  20
ENDBRANCH  18  19
ENDBRANCH  14  18
BRANCH   9  23
HETATM   23  O2  UNL     1       5.521   8.544  21.439  1.00  0.00    -0.391 OA
ATOM     24  H2  UNL     1       4.806   7.922  21.372  1.00  0.00     0.210 HD
ENDBRANCH   9  23
TORSDOF 4
ENDMDL