MODEL 5
REMARK VINA RESULT: -7.041094960      3.162      4.446
REMARK  5 active torsions:
REMARK  status: ('A' for Active; 'I' for Inactive)
REMARK    1  A    between atoms: C2_2  and  O1_3
REMARK    2  A    between atoms: C7_9  and  O2_10
REMARK    3  A    between atoms: O2_10  and  C8_11
REMARK    4  A    between atoms: C8_11  and  C9_13
REMARK    5  A    between atoms: C18_23  and  O5_24
ROOT
HETATM    1  C1  UNL     1       7.037   7.637  25.477  1.00  0.00     0.049 C
HETATM    2  C2  UNL     1       6.575   7.991  24.069  1.00  0.00     0.089 C
HETATM    3  C3  UNL     1       6.663   9.514  23.975  1.00  0.00     0.041 C
HETATM    4  C4  UNL     1       5.203   9.989  23.992  1.00  0.00     0.018 C
HETATM    5  C5  UNL     1       4.572   8.842  23.199  1.00  0.00     0.020 C
HETATM    6  C6  UNL     1       5.026   8.970  21.791  1.00  0.00     0.021 C
HETATM    7  C7  UNL     1       3.068   8.836  23.316  1.00  0.00     0.143 C
HETATM    8  C14 UNL     1       2.556   7.458  22.971  1.00  0.00     0.043 C
HETATM    9  C15 UNL     1       3.307   6.358  23.647  1.00  0.00     0.044 C
HETATM   10  C16 UNL     1       3.467   6.748  25.119  1.00  0.00     0.176 C
HETATM   11  O4  UNL     1       4.526   7.617  25.185  1.00  0.00    -0.373 OA
HETATM   12  C17 UNL     1       5.147   7.673  23.946  1.00  0.00     0.127 C
HETATM   13  C18 UNL     1       4.799   6.385  23.267  1.00  0.00     0.162 C
ENDROOT
BRANCH   7  14
HETATM   14  O2  UNL     1       2.606   9.303  24.541  1.00  0.00    -0.315 OA
BRANCH  14  15
HETATM   15  C8  UNL     1       1.468  10.090  24.608  1.00  0.00     0.263 C
HETATM   16  O3  UNL     1       1.600  11.355  24.485  1.00  0.00    -0.265 OA
BRANCH  15  17
HETATM   17  C9  UNL     1       0.128   9.505  24.813  1.00  0.00     0.085 C
HETATM   18  C10 UNL     1       0.194   8.426  25.844  1.00  0.00     0.014 C
HETATM   19  C11 UNL     1      -0.217   9.027  27.162  1.00  0.00     0.001 C
HETATM   20  C12 UNL     1      -0.634  10.452  26.889  1.00  0.00     0.001 C
HETATM   21  C13 UNL     1      -0.850  10.509  25.391  1.00  0.00     0.014 C
ENDBRANCH  15  17
ENDBRANCH  14  15
ENDBRANCH   7  14
BRANCH   2  22
HETATM   22  O1  UNL     1       7.421   7.358  23.191  1.00  0.00    -0.387 OA
ATOM     23  H1  UNL     1       7.945   8.029  22.771  1.00  0.00     0.210 HD
ENDBRANCH   2  22
BRANCH  13  24
HETATM   24  O5  UNL     1       4.993   6.368  21.915  1.00  0.00    -0.392 OA
ATOM     25  H5  UNL     1       5.904   6.500  21.678  1.00  0.00     0.210 HD
ENDBRANCH  13  24
TORSDOF 5
ENDMDL