MODEL 4
REMARK VINA RESULT: -6.640378571      2.637      4.628
REMARK  5 active torsions:
REMARK  status: ('A' for Active; 'I' for Inactive)
REMARK    1  A    between atoms: C2_2  and  C4_4
REMARK    2  A    between atoms: C10_10  and  O1_11
REMARK    3  A    between atoms: O1_11  and  C11_12
REMARK    4  A    between atoms: C15_17  and  O3_18
REMARK    5  A    between atoms: C17_21  and  O4_22
ROOT
HETATM    1  C4  UNL     1       3.752   7.177  21.779  1.00  0.00     0.086 C
HETATM    2  C5  UNL     1       4.681   8.185  21.148  1.00  0.00     0.018 C
HETATM    3  C6  UNL     1       4.924   9.421  21.921  1.00  0.00     0.019 C
HETATM    4  C7  UNL     1       4.861   9.343  23.396  1.00  0.00     0.029 C
HETATM    5  C8  UNL     1       4.006  10.360  23.980  1.00  0.00    -0.048 C
HETATM    6  C9  UNL     1       2.704  10.308  24.149  1.00  0.00     0.018 C
HETATM    7  C10 UNL     1       4.855  11.518  24.370  1.00  0.00     0.161 C
HETATM    8  C13 UNL     1       6.268  11.136  23.871  1.00  0.00     0.045 C
HETATM    9  C14 UNL     1       6.188   9.718  24.097  1.00  0.00     0.033 C
HETATM   10  C15 UNL     1       7.067   8.727  23.535  1.00  0.00     0.126 C
HETATM   11  C16 UNL     1       6.203   7.463  23.728  1.00  0.00     0.079 C
HETATM   12  C17 UNL     1       4.792   7.953  23.950  1.00  0.00     0.133 C
HETATM   13  C18 UNL     1       3.749   7.222  23.236  1.00  0.00     0.170 C
HETATM   14  O5  UNL     1       2.867   6.648  23.881  1.00  0.00    -0.294 OA
ENDROOT
BRANCH   7  15
HETATM   15  O1  UNL     1       4.434  12.730  23.835  1.00  0.00    -0.312 OA
BRANCH  15  16
HETATM   16  C11 UNL     1       4.577  13.881  24.605  1.00  0.00     0.255 C
HETATM   17  C12 UNL     1       5.912  14.497  24.864  1.00  0.00     0.126 C
HETATM   18  O2  UNL     1       3.564  14.440  25.114  1.00  0.00    -0.266 OA
ENDBRANCH  15  16
ENDBRANCH   7  15
BRANCH  12  19
HETATM   19  O4  UNL     1       4.489   8.036  25.310  1.00  0.00    -0.381 OA
ATOM     20  H4  UNL     1       4.460   7.155  25.665  1.00  0.00     0.211 HD
ENDBRANCH  12  19
BRANCH  10  21
HETATM   21  O3  UNL     1       8.188   8.547  24.361  1.00  0.00    -0.395 OA
ATOM     22  H3  UNL     1       8.039   8.946  25.209  1.00  0.00     0.210 HD
ENDBRANCH  10  21
BRANCH   1  23
HETATM   23  C2  UNL     1       3.962   5.815  21.267  1.00  0.00    -0.082 C
HETATM   24  C1  UNL     1       4.767   4.939  21.842  1.00  0.00     0.015 C
HETATM   25  C3  UNL     1       3.225   5.353  20.028  1.00  0.00     0.043 C
ENDBRANCH   1  23
TORSDOF 5
ENDMDL