MODEL 4
REMARK VINA RESULT: -8.828491691      2.414      3.948
REMARK  5 active torsions:
REMARK  status: ('A' for Active; 'I' for Inactive)
REMARK    1  A    between atoms: C1_2  and  O2_3
REMARK    2  A    between atoms: C1_2  and  C13_20
REMARK    3  A    between atoms: O2_3  and  C2_4
REMARK    4  A    between atoms: C3_5  and  O3_6
REMARK    5  A    between atoms: C12_17  and  O5_18
ROOT
HETATM    1  C2  UNL     1       3.478  10.036  24.132  1.00  0.00     0.173 C
HETATM    2  C3  UNL     1       2.711   8.986  23.419  1.00  0.00     0.218 C
HETATM    3  C4  UNL     1       3.225   7.737  24.092  1.00  0.00     0.169 C
HETATM    4  O4  UNL     1       2.521   6.811  24.399  1.00  0.00    -0.294 OA
HETATM    5  C5  UNL     1       4.657   7.926  24.256  1.00  0.00     0.055 C
HETATM    6  C6  UNL     1       5.232   7.358  25.522  1.00  0.00     0.020 C
HETATM    7  C7  UNL     1       6.726   7.251  25.341  1.00  0.00     0.002 C
HETATM    8  C8  UNL     1       7.288   8.334  24.464  1.00  0.00     0.007 C
HETATM    9  C9  UNL     1       6.620   8.448  23.133  1.00  0.00     0.016 C
HETATM   10  C10 UNL     1       5.767   9.724  23.145  1.00  0.00     0.015 C
HETATM   11  C11 UNL     1       4.847   9.423  24.294  1.00  0.00     0.037 C
HETATM   12  C12 UNL     1       5.496   7.402  23.116  1.00  0.00     0.138 C
ENDROOT
BRANCH   1  13
HETATM   13  O2  UNL     1       3.475  11.308  23.601  1.00  0.00    -0.312 OA
BRANCH  13  14
HETATM   14  C1  UNL     1       3.220  12.488  24.206  1.00  0.00     0.263 C
HETATM   15  O1  UNL     1       2.048  12.902  24.208  1.00  0.00    -0.265 OA
BRANCH  14  16
HETATM   16  C13 UNL     1       4.262  13.293  24.855  1.00  0.00     0.085 C
HETATM   17  C14 UNL     1       3.898  14.763  24.936  1.00  0.00     0.014 C
HETATM   18  C15 UNL     1       4.964  15.435  25.751  1.00  0.00     0.001 C
HETATM   19  C16 UNL     1       6.339  15.291  25.207  1.00  0.00     0.000 C
HETATM   20  C17 UNL     1       6.686  13.904  24.753  1.00  0.00     0.001 C
HETATM   21  C18 UNL     1       5.536  13.197  24.081  1.00  0.00     0.014 C
ENDBRANCH  14  16
ENDBRANCH  13  14
ENDBRANCH   1  13
BRANCH   2  22
HETATM   22  O3  UNL     1       1.331   9.131  23.656  1.00  0.00    -0.385 OA
ATOM     23  H3  UNL     1       1.158   9.921  24.153  1.00  0.00     0.210 HD
ENDBRANCH   2  22
BRANCH  12  24
HETATM   24  O5  UNL     1       4.840   7.362  21.917  1.00  0.00    -0.394 OA
ATOM     25  H5  UNL     1       5.414   7.264  21.166  1.00  0.00     0.210 HD
ENDBRANCH  12  24
TORSDOF 5
ENDMDL