MODEL 5
REMARK VINA RESULT: -6.684027514      2.741      4.181
REMARK  5 active torsions:
REMARK  status: ('A' for Active; 'I' for Inactive)
REMARK    1  A    between atoms: C2_2  and  O2_4
REMARK    2  A    between atoms: O2_4  and  C3_5
REMARK    3  A    between atoms: C3_5  and  C4_6
REMARK    4  A    between atoms: C6_8  and  O3_9
REMARK    5  A    between atoms: C16_21  and  O5_22
ROOT
HETATM    1  C4  UNL     1       1.409   7.814  25.714  1.00  0.00     0.008 C
HETATM    2  C5  UNL     1       0.896   7.298  27.045  1.00  0.00     0.020 C
HETATM    3  C6  UNL     1       0.897   6.834  24.690  1.00  0.00     0.128 C
HETATM    4  C7  UNL     1       1.295   7.150  23.300  1.00  0.00     0.033 C
HETATM    5  C8  UNL     1       2.571   7.902  23.161  1.00  0.00     0.012 C
HETATM    6  C9  UNL     1       3.528   7.755  24.323  1.00  0.00    -0.035 C
HETATM    7  C10 UNL     1       4.615   8.817  24.059  1.00  0.00     0.016 C
HETATM    8  C11 UNL     1       4.158   6.399  24.200  1.00  0.00     0.008 C
HETATM    9  C12 UNL     1       5.104   6.225  23.079  1.00  0.00     0.013 C
HETATM   10  C13 UNL     1       6.530   6.284  23.645  1.00  0.00     0.079 C
HETATM   11  C14 UNL     1       6.309   6.549  25.092  1.00  0.00     0.134 C
HETATM   12  O4  UNL     1       7.058   7.119  25.881  1.00  0.00    -0.297 OA
HETATM   13  C15 UNL     1       4.969   5.968  25.375  1.00  0.00     0.089 C
HETATM   14  C16 UNL     1       4.429   6.301  26.703  1.00  0.00     0.130 C
HETATM   15  C17 UNL     1       3.663   7.550  26.825  1.00  0.00     0.039 C
HETATM   16  C18 UNL     1       2.889   8.046  25.648  1.00  0.00     0.009 C
ENDROOT
BRANCH   1  17
HETATM   17  C3  UNL     1       0.597   9.104  25.490  1.00  0.00     0.191 C
BRANCH  17  18
HETATM   18  O2  UNL     1      -0.106   9.410  26.705  1.00  0.00    -0.321 OA
BRANCH  18  19
HETATM   19  C2  UNL     1      -1.004  10.420  26.789  1.00  0.00     0.254 C
HETATM   20  C1  UNL     1      -1.368  11.167  25.555  1.00  0.00     0.126 C
HETATM   21  O1  UNL     1      -1.525  10.732  27.871  1.00  0.00    -0.266 OA
ENDBRANCH  18  19
ENDBRANCH  17  18
ENDBRANCH   1  17
BRANCH   3  22
HETATM   22  O3  UNL     1      -0.514   6.923  24.749  1.00  0.00    -0.395 OA
ATOM     23  H3  UNL     1      -0.779   7.337  23.936  1.00  0.00     0.210 HD
ENDBRANCH   3  22
BRANCH  14  24
HETATM   24  O5  UNL     1       3.760   5.147  27.184  1.00  0.00    -0.395 OA
ATOM     25  H5  UNL     1       4.410   4.460  27.270  1.00  0.00     0.210 HD
ENDBRANCH  14  24
TORSDOF 5
ENDMDL