MODEL 4
REMARK VINA RESULT: -6.468581701      2.436      5.315
REMARK  5 active torsions:
REMARK  status: ('A' for Active; 'I' for Inactive)
REMARK    1  A    between atoms: C2_2  and  O2_4
REMARK    2  A    between atoms: O2_4  and  C3_5
REMARK    3  A    between atoms: C4_6  and  O3_7
REMARK    4  A    between atoms: C7_11  and  C8_12
REMARK    5  A    between atoms: C8_12  and  O4_13
ROOT
HETATM    1  C3  UNL     1       2.573   9.421  23.219  1.00  0.00     0.166 C
HETATM    2  C4  UNL     1       2.415  10.810  23.723  1.00  0.00     0.152 C
HETATM    3  C5  UNL     1       1.151  11.129  24.450  1.00  0.00     0.024 C
HETATM    4  C6  UNL     1       0.123  11.783  23.547  1.00  0.00     0.013 C
HETATM    5  C7  UNL     1       0.536   9.993  25.203  1.00  0.00    -0.009 C
HETATM    6  C9  UNL     1       1.167   9.786  26.525  1.00  0.00     0.014 C
HETATM    7  C10 UNL     1       2.493   9.155  26.589  1.00  0.00     0.021 C
HETATM    8  C11 UNL     1       2.621   7.756  26.096  1.00  0.00     0.101 C
HETATM    9  C12 UNL     1       1.968   6.902  27.131  1.00  0.00     0.064 C
HETATM   10  N1  UNL     1       1.465   6.247  27.955  1.00  0.00    -0.197 NA
HETATM   11  C13 UNL     1       2.248   7.401  24.764  1.00  0.00    -0.021 C
HETATM   12  C14 UNL     1       3.268   6.450  24.130  1.00  0.00     0.017 C
HETATM   13  C15 UNL     1       0.970   6.534  24.819  1.00  0.00     0.011 C
HETATM   14  C16 UNL     1      -0.073   7.561  25.018  1.00  0.00     0.007 C
HETATM   15  C17 UNL     1       0.432   8.793  24.331  1.00  0.00     0.004 C
HETATM   16  C18 UNL     1       1.748   8.361  23.764  1.00  0.00     0.032 C
ENDROOT
BRANCH   5  17
HETATM   17  C8  UNL     1      -0.917  10.400  25.520  1.00  0.00     0.174 C
BRANCH  17  18
HETATM   18  O4  UNL     1      -1.036  10.955  26.773  1.00  0.00    -0.400 OA
ATOM     19  H4  UNL     1      -0.813  11.879  26.777  1.00  0.00     0.209 HD
ENDBRANCH  17  18
ENDBRANCH   5  17
BRANCH   1  20
HETATM   20  O2  UNL     1       3.982   9.131  23.251  1.00  0.00    -0.313 OA
BRANCH  20  21
HETATM   21  C2  UNL     1       4.857   9.480  22.245  1.00  0.00     0.255 C
HETATM   22  C1  UNL     1       6.293   9.722  22.420  1.00  0.00     0.126 C
HETATM   23  O1  UNL     1       4.378   9.599  21.083  1.00  0.00    -0.266 OA
ENDBRANCH  20  21
ENDBRANCH   1  20
BRANCH   2  24
HETATM   24  O3  UNL     1       2.482  11.750  22.654  1.00  0.00    -0.393 OA
ATOM     25  H3  UNL     1       3.384  11.939  22.424  1.00  0.00     0.210 HD
ENDBRANCH   2  24
TORSDOF 5
ENDMDL