MODEL 1
REMARK VINA RESULT: -7.742712245      0.000      0.000
REMARK  4 active torsions:
REMARK  status: ('A' for Active; 'I' for Inactive)
REMARK    1  A    between atoms: O1_2  and  C2_3
REMARK    2  A    between atoms: C3_4  and  O2_5
REMARK    3  A    between atoms: C5_9  and  C6_10
REMARK    4  A    between atoms: C6_10  and  O4_13
ROOT
HETATM    1  C2  UNL     1       5.887  10.777  23.565  1.00  0.00     0.163 C
HETATM    2  C3  UNL     1       4.875   9.741  24.066  1.00  0.00     0.177 C
HETATM    3  C4  UNL     1       3.548  10.096  23.433  1.00  0.00     0.162 C
HETATM    4  O3  UNL     1       2.673   9.035  23.374  1.00  0.00    -0.374 OA
HETATM    5  C5  UNL     1       2.228   8.565  24.573  1.00  0.00     0.155 C
HETATM    6  C9  UNL     1       2.031   9.572  25.642  1.00  0.00     0.036 C
HETATM    7  C10 UNL     1       1.969  10.988  25.173  1.00  0.00     0.015 C
HETATM    8  C11 UNL     1       2.934  11.326  24.084  1.00  0.00    -0.011 C
HETATM    9  C12 UNL     1       2.167  12.084  23.011  1.00  0.00     0.018 C
HETATM   10  C13 UNL     1       4.077  12.137  24.632  1.00  0.00     0.010 C
HETATM   11  C14 UNL     1       3.803  13.601  24.712  1.00  0.00     0.013 C
HETATM   12  C15 UNL     1       5.210  14.197  24.825  1.00  0.00     0.079 C
HETATM   13  C16 UNL     1       6.123  13.153  24.285  1.00  0.00     0.134 C
HETATM   14  O5  UNL     1       7.335  13.210  24.376  1.00  0.00    -0.297 OA
HETATM   15  C17 UNL     1       5.269  12.123  23.664  1.00  0.00     0.091 C
ENDROOT
BRANCH   5  16
HETATM   16  C6  UNL     1       0.999   7.711  24.312  1.00  0.00     0.076 C
HETATM   17  C7  UNL     1       1.141   6.837  23.109  1.00  0.00     0.048 C
HETATM   18  C8  UNL     1       0.690   6.818  25.503  1.00  0.00     0.048 C
BRANCH  16  19
HETATM   19  O4  UNL     1      -0.129   8.509  24.114  1.00  0.00    -0.388 OA
ATOM     20  H4  UNL     1      -0.398   8.496  23.203  1.00  0.00     0.210 HD
ENDBRANCH  16  19
ENDBRANCH   5  16
BRANCH   2  21
HETATM   21  O2  UNL     1       5.218   8.464  23.652  1.00  0.00    -0.390 OA
ATOM     22  H2  UNL     1       4.832   7.804  24.217  1.00  0.00     0.210 HD
ENDBRANCH   2  21
BRANCH   1  23
HETATM   23  O1  UNL     1       7.102  10.651  24.194  1.00  0.00    -0.387 OA
HETATM   24  C1  UNL     1       8.027  10.066  23.331  1.00  0.00     0.202 C
ENDBRANCH   1  23
TORSDOF 4
ENDMDL