MODEL 5
REMARK VINA RESULT: -7.693011388      1.846      3.371
REMARK  5 active torsions:
REMARK  status: ('A' for Active; 'I' for Inactive)
REMARK    1  A    between atoms: C9_10  and  O2_11
REMARK    2  A    between atoms: O2_11  and  C10_12
REMARK    3  A    between atoms: C10_12  and  C11_14
REMARK    4  A    between atoms: C16_19  and  O4_20
REMARK    5  A    between atoms: C17_22  and  O5_24
ROOT
HETATM    1  C1  UNL     1       7.717  10.183  23.876  1.00  0.00     0.013 C
HETATM    2  C2  UNL     1       7.175   9.095  23.017  1.00  0.00     0.024 C
HETATM    3  C3  UNL     1       6.119   9.580  22.026  1.00  0.00     0.086 C
HETATM    4  C4  UNL     1       5.051   8.551  22.141  1.00  0.00     0.140 C
HETATM    5  O1  UNL     1       4.365   8.155  21.245  1.00  0.00    -0.297 OA
HETATM    6  C5  UNL     1       5.058   8.161  23.572  1.00  0.00     0.066 C
HETATM    7  C6  UNL     1       4.105   7.113  24.015  1.00  0.00     0.034 C
HETATM    8  C7  UNL     1       2.748   7.169  23.315  1.00  0.00     0.011 C
HETATM    9  C8  UNL     1       2.157   8.542  23.325  1.00  0.00     0.034 C
HETATM   10  C9  UNL     1       3.129   9.618  23.720  1.00  0.00     0.139 C
HETATM   11  C15 UNL     1       4.327   9.101  24.480  1.00  0.00     0.064 C
HETATM   12  C16 UNL     1       3.931   7.903  25.322  1.00  0.00     0.131 C
HETATM   13  C17 UNL     1       6.514   7.965  23.799  1.00  0.00     0.073 C
HETATM   14  C18 UNL     1       7.008   7.858  25.183  1.00  0.00     0.047 C
ENDROOT
BRANCH  13  15
HETATM   15  O5  UNL     1       6.881   6.777  23.122  1.00  0.00    -0.389 OA
ATOM     16  H5  UNL     1       7.829   6.740  23.179  1.00  0.00     0.210 HD
ENDBRANCH  13  15
BRANCH  12  17
HETATM   17  O4  UNL     1       2.615   7.944  25.795  1.00  0.00    -0.395 OA
ATOM     18  H4  UNL     1       2.452   7.373  26.536  1.00  0.00     0.210 HD
ENDBRANCH  12  17
BRANCH  10  19
HETATM   19  O2  UNL     1       2.470  10.660  24.415  1.00  0.00    -0.315 OA
BRANCH  19  20
HETATM   20  C10 UNL     1       2.779  11.979  24.219  1.00  0.00     0.263 C
HETATM   21  O3  UNL     1       2.100  12.609  23.342  1.00  0.00    -0.265 OA
BRANCH  20  22
HETATM   22  C11 UNL     1       3.855  12.693  24.974  1.00  0.00     0.085 C
HETATM   23  C12 UNL     1       3.802  14.200  24.836  1.00  0.00     0.014 C
HETATM   24  C13 UNL     1       5.317  14.163  24.618  1.00  0.00     0.002 C
HETATM   25  C14 UNL     1       5.131  12.727  24.134  1.00  0.00     0.014 C
ENDBRANCH  20  22
ENDBRANCH  19  20
ENDBRANCH  10  19
TORSDOF 5
ENDMDL