MODEL 5
REMARK VINA RESULT: -7.533479720      2.599      3.640
REMARK  2 active torsions:
REMARK  status: ('A' for Active; 'I' for Inactive)
REMARK    1  A    between atoms: C10_11  and  O2_12
REMARK    2  A    between atoms: C15_19  and  N1_20
ROOT
HETATM    1  C1  UNL     1       6.856   7.453  25.277  1.00  0.00     0.018 C
HETATM    2  C2  UNL     1       5.570   6.721  24.940  1.00  0.00    -0.012 C
HETATM    3  C3  UNL     1       5.701   5.279  25.458  1.00  0.00     0.012 C
HETATM    4  C4  UNL     1       4.324   5.426  26.068  1.00  0.00     0.009 C
HETATM    5  C5  UNL     1       4.498   6.939  25.881  1.00  0.00     0.032 C
HETATM    6  C6  UNL     1       3.257   7.578  25.490  1.00  0.00     0.079 A
HETATM    7  O1  UNL     1       2.750   7.284  24.262  1.00  0.00    -0.370 OA
HETATM    8  C7  UNL     1       2.816   8.516  23.566  1.00  0.00     0.158 C
HETATM    9  C8  UNL     1       4.238   8.979  23.474  1.00  0.00     0.037 C
HETATM   10  C9  UNL     1       5.159   8.015  22.824  1.00  0.00     0.035 C
HETATM   11  C10 UNL     1       5.317   6.703  23.492  1.00  0.00     0.127 C
HETATM   12  C11 UNL     1       2.098   9.367  24.620  1.00  0.00     0.099 C
HETATM   13  O3  UNL     1       1.978  10.658  24.313  1.00  0.00    -0.377 OA
HETATM   14  C12 UNL     1       0.652  10.874  23.939  1.00  0.00     0.169 C
HETATM   15  C13 UNL     1      -0.180   9.888  24.757  1.00  0.00     0.036 C
HETATM   16  C14 UNL     1       0.780   8.733  24.867  1.00  0.00     0.055 C
HETATM   17  C15 UNL     1       0.814   8.100  26.218  1.00  0.00     0.170 C
HETATM   18  C16 UNL     1       2.268   7.924  26.562  1.00  0.00     0.061 A
HETATM   19  C17 UNL     1       2.927   9.018  25.820  1.00  0.00     0.068 A
ENDROOT
BRANCH  17  20
HETATM   20  N1  UNL     1       0.074   6.879  26.322  1.00  0.00    -0.150 N
HETATM   21  O4  UNL     1      -0.257   6.464  27.439  1.00  0.00    -0.536 OA
HETATM   22  O5  UNL     1      -0.287   6.142  25.227  1.00  0.00    -0.536 OA
ENDBRANCH  17  20
BRANCH  11  23
HETATM   23  O2  UNL     1       6.483   6.131  22.906  1.00  0.00    -0.395 OA
ATOM     24  H2  UNL     1       6.906   6.839  22.434  1.00  0.00     0.210 HD
ENDBRANCH  11  23
TORSDOF 2
ENDMDL