MODEL 2
REMARK VINA RESULT: -8.263782622      1.048      1.091
REMARK  6 active torsions:
REMARK  status: ('A' for Active; 'I' for Inactive)
REMARK    1  A    between atoms: N1_2  and  C2_5
REMARK    2  A    between atoms: C14_19  and  O3_20
REMARK    3  A    between atoms: O3_20  and  C15_21
REMARK    4  A    between atoms: C18_25  and  O5_26
REMARK    5  A    between atoms: C19_28  and  O6_29
REMARK    6  A    between atoms: C20_31  and  O7_32
ROOT
HETATM    1  C2  UNL     1       4.501   7.365  22.053  1.00  0.00     0.350 C
HETATM    2  O1  UNL     1       3.449   8.011  22.602  1.00  0.00    -0.349 OA
HETATM    3  C3  UNL     1       3.705   9.212  23.221  1.00  0.00     0.153 C
HETATM    4  C4  UNL     1       4.965   9.123  24.026  1.00  0.00     0.035 C
HETATM    5  C5  UNL     1       5.217   7.939  24.875  1.00  0.00     0.014 C
HETATM    6  C6  UNL     1       4.933   6.587  24.419  1.00  0.00    -0.014 C
HETATM    7  C7  UNL     1       6.011   5.661  25.052  1.00  0.00     0.018 C
HETATM    8  C8  UNL     1       3.641   5.917  24.687  1.00  0.00     0.012 C
HETATM    9  C9  UNL     1       2.801   6.342  25.807  1.00  0.00     0.009 C
HETATM   10  C10 UNL     1       1.929   7.496  25.627  1.00  0.00     0.026 C
HETATM   11  C11 UNL     1       0.869   7.715  26.705  1.00  0.00     0.060 C
HETATM   12  C12 UNL     1      -0.112   6.634  26.870  1.00  0.00     0.018 C
HETATM   13  C13 UNL     1       0.314   9.058  26.368  1.00  0.00     0.161 C
HETATM   14  O2  UNL     1      -0.301   9.621  27.257  1.00  0.00    -0.295 OA
HETATM   15  C14 UNL     1       0.418   9.790  25.094  1.00  0.00     0.210 C
HETATM   16  C17 UNL     1       1.266   9.165  24.018  1.00  0.00     0.083 C
HETATM   17  C18 UNL     1       2.545   9.878  23.837  1.00  0.00     0.156 C
HETATM   18  C19 UNL     1       1.251   7.696  24.334  1.00  0.00     0.132 C
HETATM   19  C20 UNL     1       5.291   6.469  22.925  1.00  0.00     0.182 C
ENDROOT
BRANCH   1  20
HETATM   20  N1  UNL     1       3.967   6.606  20.906  1.00  0.00    -0.050 N
HETATM   21  C1  UNL     1       4.109   5.195  21.048  1.00  0.00     0.270 C
ATOM     22  H12 UNL     1       4.387   6.926  20.033  1.00  0.00     0.279 HD
ATOM     23  H11 UNL     1       2.994   6.856  20.727  1.00  0.00     0.279 HD
ENDBRANCH   1  20
BRANCH  19  24
HETATM   24  O7  UNL     1       6.675   6.733  22.861  1.00  0.00    -0.390 OA
ATOM     25  H7  UNL     1       7.147   6.087  22.349  1.00  0.00     0.210 HD
ENDBRANCH  19  24
BRANCH  17  26
HETATM   26  O5  UNL     1       2.982  10.607  24.984  1.00  0.00    -0.392 OA
ATOM     27  H5  UNL     1       2.282  11.180  25.272  1.00  0.00     0.210 HD
ENDBRANCH  17  26
BRANCH  15  28
HETATM   28  O3  UNL     1      -0.933   9.807  24.593  1.00  0.00    -0.308 OA
BRANCH  28  29
HETATM   29  C15 UNL     1      -1.716  10.922  24.526  1.00  0.00     0.255 C
HETATM   30  C16 UNL     1      -1.698  11.771  23.305  1.00  0.00     0.126 C
HETATM   31  O4  UNL     1      -2.440  11.197  25.519  1.00  0.00    -0.266 OA
ENDBRANCH  28  29
ENDBRANCH  15  28
BRANCH  18  32
HETATM   32  O6  UNL     1      -0.157   7.440  24.467  1.00  0.00    -0.395 OA
ATOM     33  H6  UNL     1      -0.653   8.223  24.262  1.00  0.00     0.210 HD
ENDBRANCH  18  32
TORSDOF 6
ENDMDL