MODEL 4
REMARK VINA RESULT: -6.097040718      1.893      4.304
REMARK  7 active torsions:
REMARK  status: ('A' for Active; 'I' for Inactive)
REMARK    1  A    between atoms: C8_8  and  O1_9
REMARK    2  A    between atoms: O1_9  and  C9_10
REMARK    3  A    between atoms: C11_13  and  O3_14
REMARK    4  A    between atoms: C16_20  and  C17_21
REMARK    5  A    between atoms: C17_21  and  O5_22
REMARK    6  A    between atoms: C18_24  and  O6_25
REMARK    7  A    between atoms: C21_29  and  O7_30
ROOT
HETATM    1  C1  UNL     1       6.838   4.131  25.893  1.00  0.00     0.017 C
HETATM    2  C2  UNL     1       5.937   4.746  25.136  1.00  0.00    -0.056 C
HETATM    3  C3  UNL     1       5.298   3.962  24.049  1.00  0.00     0.018 C
HETATM    4  C4  UNL     1       5.707   4.499  22.663  1.00  0.00     0.009 C
HETATM    5  C5  UNL     1       4.916   5.782  22.354  1.00  0.00     0.007 C
HETATM    6  C6  UNL     1       5.306   6.692  23.424  1.00  0.00     0.006 A
HETATM    7  C7  UNL     1       4.564   7.870  23.934  1.00  0.00     0.036 A
HETATM    8  C8  UNL     1       3.576   8.269  22.979  1.00  0.00     0.167 C
HETATM    9  C11 UNL     1       2.263   8.863  23.419  1.00  0.00     0.161 C
HETATM   10  C13 UNL     1       1.486   7.677  24.033  1.00  0.00     0.084 C
HETATM   11  C14 UNL     1       0.935   6.757  23.039  1.00  0.00     0.020 C
HETATM   12  C15 UNL     1       2.401   7.193  25.051  1.00  0.00     0.147 C
HETATM   13  O4  UNL     1       2.273   7.942  26.040  1.00  0.00    -0.296 OA
HETATM   14  C16 UNL     1       3.410   6.103  25.232  1.00  0.00     0.079 C
HETATM   15  C18 UNL     1       3.014   4.737  24.917  1.00  0.00     0.137 C
HETATM   16  C19 UNL     1       3.830   3.876  24.046  1.00  0.00     0.042 C
HETATM   17  C20 UNL     1       4.657   6.669  24.706  1.00  0.00     0.019 A
HETATM   18  C21 UNL     1       5.767   6.188  25.575  1.00  0.00     0.157 C
ENDROOT
BRANCH   8  19
HETATM   19  O1  UNL     1       4.146   9.342  22.190  1.00  0.00    -0.313 OA
BRANCH  19  20
HETATM   20  C9  UNL     1       5.030   9.178  21.173  1.00  0.00     0.255 C
HETATM   21  C10 UNL     1       6.477   9.570  21.315  1.00  0.00     0.126 C
HETATM   22  O2  UNL     1       4.636   8.687  20.084  1.00  0.00    -0.266 OA
ENDBRANCH  19  20
ENDBRANCH   8  19
BRANCH   9  23
HETATM   23  O3  UNL     1       2.355   9.921  24.251  1.00  0.00    -0.387 OA
HETATM   24  C12 UNL     1       1.281  10.797  24.112  1.00  0.00     0.202 C
ENDBRANCH   9  23
BRANCH  14  25
HETATM   25  C17 UNL     1       3.556   6.091  26.776  1.00  0.00     0.184 C
BRANCH  25  26
HETATM   26  O5  UNL     1       2.316   5.932  27.406  1.00  0.00    -0.400 OA
ATOM     27  H5  UNL     1       1.845   5.182  27.062  1.00  0.00     0.209 HD
ENDBRANCH  25  26
ENDBRANCH  14  25
BRANCH  18  28
HETATM   28  O7  UNL     1       7.015   6.775  25.218  1.00  0.00    -0.390 OA
ATOM     29  H7  UNL     1       7.109   6.530  24.305  1.00  0.00     0.210 HD
ENDBRANCH  18  28
BRANCH  15  30
HETATM   30  O6  UNL     1       2.745   3.916  26.065  1.00  0.00    -0.394 OA
ATOM     31  H6  UNL     1       3.517   3.523  26.457  1.00  0.00     0.210 HD
ENDBRANCH  15  30
TORSDOF 7
ENDMDL