MODEL 1
REMARK VINA RESULT: -7.112225866      0.000      0.000
REMARK  6 active torsions:
REMARK  status: ('A' for Active; 'I' for Inactive)
REMARK    1  A    between atoms: O1_2  and  C2_3
REMARK    2  A    between atoms: C2_3  and  C3_5
REMARK    3  A    between atoms: C3_5  and  N1_7
REMARK    4  A    between atoms: C6_9  and  O3_10
REMARK    5  A    between atoms: C12_18  and  O5_19
REMARK    6  A    between atoms: C19_27  and  O6_28
ROOT
HETATM    1  N1  UNL     1       0.565   9.752  24.189  1.00  0.00    -0.394 N
HETATM    2  C5  UNL     1       0.638   8.330  24.183  1.00  0.00     0.159 C
HETATM    3  C6  UNL     1       2.114   8.121  23.945  1.00  0.00     0.113 C
HETATM    4  C7  UNL     1       2.615   6.755  24.258  1.00  0.00     0.051 C
HETATM    5  C8  UNL     1       4.046   6.694  23.816  1.00  0.00     0.028 C
HETATM    6  C9  UNL     1       5.029   7.247  24.786  1.00  0.00     0.004 C
HETATM    7  C10 UNL     1       5.306   8.703  24.419  1.00  0.00     0.087 C
HETATM    8  C11 UNL     1       4.088   9.509  24.517  1.00  0.00     0.166 C
HETATM    9  O4  UNL     1       4.213  10.678  24.236  1.00  0.00    -0.294 OA
HETATM   10  C12 UNL     1       2.723   9.106  24.910  1.00  0.00     0.166 C
HETATM   11  C13 UNL     1       1.740  10.266  24.816  1.00  0.00     0.167 C
HETATM   12  C14 UNL     1       6.318   6.433  24.633  1.00  0.00    -0.003 C
HETATM   13  C15 UNL     1       6.386   5.544  25.853  1.00  0.00     0.006 C
HETATM   14  C16 UNL     1       5.071   4.872  26.067  1.00  0.00     0.007 C
HETATM   15  C17 UNL     1       4.327   4.475  24.846  1.00  0.00     0.017 C
HETATM   16  C18 UNL     1       4.526   2.986  24.562  1.00  0.00     0.013 C
HETATM   17  C19 UNL     1       4.571   5.282  23.625  1.00  0.00     0.069 C
HETATM   18  C20 UNL     1       6.033   5.620  23.408  1.00  0.00     0.021 C
HETATM   19  C21 UNL     1       6.907   4.470  23.160  1.00  0.00     0.013 C
ENDROOT
BRANCH   1  20
HETATM   20  C3  UNL     1      -0.665  10.356  24.516  1.00  0.00     0.175 C
HETATM   21  C4  UNL     1      -0.678  10.717  26.001  1.00  0.00     0.043 C
BRANCH  20  22
HETATM   22  C2  UNL     1      -1.094  11.492  23.688  1.00  0.00     0.280 C
HETATM   23  O2  UNL     1      -2.162  11.445  23.059  1.00  0.00    -0.263 OA
BRANCH  22  24
HETATM   24  O1  UNL     1      -0.308  12.618  23.609  1.00  0.00    -0.325 OA
HETATM   25  C1  UNL     1       0.459  12.929  22.457  1.00  0.00     0.213 C
ENDBRANCH  22  24
ENDBRANCH  20  22
ENDBRANCH   1  20
BRANCH   3  26
HETATM   26  O3  UNL     1       2.421   8.483  22.642  1.00  0.00    -0.385 OA
ATOM     27  H3  UNL     1       2.698   9.392  22.629  1.00  0.00     0.210 HD
ENDBRANCH   3  26
BRANCH  10  28
HETATM   28  O5  UNL     1       2.736   8.689  26.216  1.00  0.00    -0.377 OA
ATOM     29  H5  UNL     1       3.230   9.248  26.803  1.00  0.00     0.211 HD
ENDBRANCH  10  28
BRANCH  17  30
HETATM   30  O6  UNL     1       4.082   4.662  22.507  1.00  0.00    -0.389 OA
ATOM     31  H6  UNL     1       3.437   3.991  22.695  1.00  0.00     0.210 HD
ENDBRANCH  17  30
TORSDOF 6
ENDMDL