MODEL 4
REMARK VINA RESULT: -7.523346006      2.811      4.479
REMARK  5 active torsions:
REMARK  status: ('A' for Active; 'I' for Inactive)
REMARK    1  A    between atoms: O1_2  and  C2_3
REMARK    2  A    between atoms: C2_3  and  C3_7
REMARK    3  A    between atoms: N2_11  and  C7_12
REMARK    4  A    between atoms: C7_12  and  C8_13
REMARK    5  A    between atoms: C14_19  and  O2_20
ROOT
HETATM    1  C8  UNL     1       1.761   8.848  24.637  1.00  0.00     0.137 C
HETATM    2  C9  UNL     1       1.476   7.486  25.235  1.00  0.00     0.032 C
HETATM    3  C10 UNL     1       2.736   6.932  25.790  1.00  0.00    -0.018 C
HETATM    4  C11 UNL     1       2.679   5.423  25.562  1.00  0.00     0.011 C
HETATM    5  C12 UNL     1       3.643   4.668  26.415  1.00  0.00     0.004 C
HETATM    6  C13 UNL     1       3.484   4.860  27.879  1.00  0.00     0.048 C
HETATM    7  C14 UNL     1       2.639   6.054  28.164  1.00  0.00     0.144 C
HETATM    8  C15 UNL     1       2.983   6.689  29.479  1.00  0.00     0.252 C
HETATM    9  O3  UNL     1       3.443   6.182  30.522  1.00  0.00    -0.270 OA
HETATM   10  N3  UNL     1       2.669   8.064  29.307  1.00  0.00    -0.358 N
ATOM     11  H3  UNL     1       2.605   8.748  30.062  1.00  0.00     0.162 HD
HETATM   12  C16 UNL     1       2.449   8.354  27.884  1.00  0.00     0.131 C
HETATM   13  C17 UNL     1       3.036   7.156  27.217  1.00  0.00     0.057 C
HETATM   14  C18 UNL     1       3.920   7.428  24.959  1.00  0.00     0.150 C
HETATM   15  S1  UNL     1       3.110   8.375  23.623  1.00  0.00     0.151 S
HETATM   16  O4  UNL     1       2.803   7.298  22.626  1.00  0.00    -0.227 OA
HETATM   17  O5  UNL     1       3.965   9.463  23.136  1.00  0.00    -0.227 OA
ENDROOT
BRANCH   1  18
HETATM   18  C7  UNL     1       0.668   9.619  24.134  1.00  0.00     0.293 C
BRANCH  18  19
HETATM   19  N2  UNL     1       0.825  10.879  23.477  1.00  0.00     0.102 N
HETATM   20  C3  UNL     1      -0.485  11.527  23.501  1.00  0.00     0.296 C
HETATM   21  C4  UNL     1      -0.287  13.002  23.405  1.00  0.00     0.046 C
HETATM   22  C5  UNL     1       1.063  13.217  23.990  1.00  0.00     0.033 C
HETATM   23  C6  UNL     1       1.579  11.824  24.295  1.00  0.00     0.273 C
BRANCH  20  24
HETATM   24  C2  UNL     1      -1.326  11.220  24.648  1.00  0.00     0.145 C
HETATM   25  N1  UNL     1      -2.486  10.658  24.469  1.00  0.00    -0.382 N
ATOM     26  H12 UNL     1      -3.076  10.442  25.274  1.00  0.00     0.158 HD
ATOM     27  H11 UNL     1      -2.719  10.470  23.495  1.00  0.00     0.158 HD
BRANCH  24  28
HETATM   28  O1  UNL     1      -1.010  11.475  25.974  1.00  0.00    -0.343 OA
HETATM   29  C1  UNL     1      -1.034  10.479  26.976  1.00  0.00     0.211 C
ENDBRANCH  24  28
ENDBRANCH  20  24
ENDBRANCH  18  19
ENDBRANCH   1  18
BRANCH   7  30
HETATM   30  O2  UNL     1       1.287   5.812  28.185  1.00  0.00    -0.380 OA
ATOM     31  H2  UNL     1       0.750   6.514  27.836  1.00  0.00     0.211 HD
ENDBRANCH   7  30
TORSDOF 5
ENDMDL