MODEL 2
REMARK VINA RESULT: -8.643546536      0.777      1.104
REMARK  5 active torsions:
REMARK  status: ('A' for Active; 'I' for Inactive)
REMARK    1  A    between atoms: C7_8  and  O2_9
REMARK    2  A    between atoms: C7_8  and  C8_11
REMARK    3  A    between atoms: C8_11  and  O3_12
REMARK    4  A    between atoms: O3_12  and  C9_13
REMARK    5  A    between atoms: C18_26  and  O6_27
ROOT
HETATM    1  C1  UNL     1       2.516   5.137  23.591  1.00  0.00     0.017 C
HETATM    2  C2  UNL     1       3.042   5.878  24.554  1.00  0.00    -0.053 C
HETATM    3  C3  UNL     1       2.194   6.180  25.744  1.00  0.00     0.024 C
HETATM    4  C4  UNL     1       3.082   7.043  26.613  1.00  0.00     0.020 C
HETATM    5  C5  UNL     1       3.465   8.181  25.658  1.00  0.00     0.068 C
HETATM    6  C6  UNL     1       2.231   8.767  25.032  1.00  0.00     0.132 C
HETATM    7  O1  UNL     1       2.547  10.138  24.892  1.00  0.00    -0.333 OA
HETATM    8  C7  UNL     1       3.449  10.161  23.819  1.00  0.00     0.222 C
HETATM    9  C14 UNL     1       3.661   8.711  23.443  1.00  0.00     0.182 A
HETATM   10  O4  UNL     1       2.940   7.974  22.637  1.00  0.00    -0.356 OA
HETATM   11  C15 UNL     1       2.152   8.409  23.573  1.00  0.00     0.204 A
HETATM   12  C16 UNL     1       4.286   7.890  24.569  1.00  0.00     0.137 A
HETATM   13  O5  UNL     1       5.196   7.184  23.956  1.00  0.00    -0.360 OA
HETATM   14  C17 UNL     1       4.373   6.372  24.519  1.00  0.00     0.190 A
HETATM   15  C18 UNL     1       0.943   8.383  25.552  1.00  0.00     0.096 C
HETATM   16  C19 UNL     1       0.454   8.831  26.854  1.00  0.00     0.041 C
HETATM   17  C20 UNL     1      -0.141   7.626  27.515  1.00  0.00     0.004 C
HETATM   18  C21 UNL     1      -0.185   6.531  26.442  1.00  0.00     0.008 C
HETATM   19  C22 UNL     1       0.905   6.857  25.464  1.00  0.00     0.031 C
ENDROOT
BRANCH   8  20
HETATM   20  O2  UNL     1       2.666  10.682  22.751  1.00  0.00    -0.361 OA
ATOM     21  H2  UNL     1       2.288   9.903  22.362  1.00  0.00     0.213 HD
ENDBRANCH   8  20
BRANCH   8  22
HETATM   22  C8  UNL     1       4.630  10.994  23.929  1.00  0.00     0.240 C
BRANCH  22  23
HETATM   23  O3  UNL     1       4.811  11.793  25.013  1.00  0.00    -0.380 OA
BRANCH  23  24
HETATM   24  C9  UNL     1       5.024  13.120  24.730  1.00  0.00     0.124 C
HETATM   25  C10 UNL     1       3.770  13.939  24.746  1.00  0.00     0.051 C
HETATM   26  C11 UNL     1       3.880  15.133  25.673  1.00  0.00     0.116 C
HETATM   27  N1  UNL     1       5.021  15.927  25.339  1.00  0.00    -0.421 N
HETATM   28  C12 UNL     1       6.256  15.195  25.226  1.00  0.00     0.116 C
ATOM     29  H1  UNL     1       4.964  16.935  25.191  1.00  0.00     0.153 HD
HETATM   30  C13 UNL     1       6.001  13.776  25.680  1.00  0.00     0.051 C
ENDBRANCH  23  24
ENDBRANCH  22  23
ENDBRANCH   8  22
BRANCH  15  31
HETATM   31  O6  UNL     1      -0.045   8.796  24.610  1.00  0.00    -0.386 OA
ATOM     32  H6  UNL     1      -0.539   9.506  25.003  1.00  0.00     0.210 HD
ENDBRANCH  15  31
TORSDOF 5
ENDMDL