MODEL 5
REMARK VINA RESULT: -6.865271652      1.729      2.361
REMARK  6 active torsions:
REMARK  status: ('A' for Active; 'I' for Inactive)
REMARK    1  A    between atoms: C2_2  and  O2_4
REMARK    2  A    between atoms: O2_4  and  C3_5
REMARK    3  A    between atoms: C4_6  and  O3_7
REMARK    4  A    between atoms: C15_19  and  O4_20
REMARK    5  A    between atoms: O4_20  and  C16_21
REMARK    6  A    between atoms: C19_25  and  O6_26
ROOT
HETATM    1  C3  UNL     1       2.692  10.119  24.256  1.00  0.00     0.191 C
HETATM    2  C4  UNL     1       1.793   9.122  24.877  1.00  0.00     0.158 C
HETATM    3  C5  UNL     1       2.444   7.986  25.577  1.00  0.00    -0.014 C
HETATM    4  C6  UNL     1       1.432   6.864  25.691  1.00  0.00     0.018 C
HETATM    5  C7  UNL     1       2.663   8.433  27.037  1.00  0.00     0.018 C
HETATM    6  C8  UNL     1       3.750   7.533  24.957  1.00  0.00     0.017 C
HETATM    7  C9  UNL     1       4.067   6.090  25.193  1.00  0.00     0.042 C
HETATM    8  C10 UNL     1       3.757   5.167  24.102  1.00  0.00    -0.023 C
HETATM    9  C11 UNL     1       3.741   5.384  22.800  1.00  0.00    -0.025 C
HETATM   10  C12 UNL     1       4.040   6.642  22.091  1.00  0.00     0.018 C
HETATM   11  C13 UNL     1       2.980   7.676  22.540  1.00  0.00     0.022 C
HETATM   12  C14 UNL     1       3.930   8.059  23.604  1.00  0.00     0.003 C
HETATM   13  C15 UNL     1       3.987   9.589  23.716  1.00  0.00     0.173 C
HETATM   14  C18 UNL     1       5.034   7.541  22.784  1.00  0.00     0.064 C
HETATM   15  C19 UNL     1       6.228   6.993  23.406  1.00  0.00     0.361 C
HETATM   16  N1  UNL     1       6.301   7.057  24.846  1.00  0.00     0.113 N
HETATM   17  C20 UNL     1       7.705   6.842  25.197  1.00  0.00     0.313 C
HETATM   18  C21 UNL     1       5.581   5.945  25.432  1.00  0.00     0.284 C
ENDROOT
BRANCH   1  19
HETATM   19  O2  UNL     1       2.005  10.738  23.172  1.00  0.00    -0.311 OA
BRANCH  19  20
HETATM   20  C2  UNL     1       1.634  12.049  23.145  1.00  0.00     0.255 C
HETATM   21  C1  UNL     1       2.168  12.999  24.139  1.00  0.00     0.126 C
HETATM   22  O1  UNL     1       0.841  12.450  22.278  1.00  0.00    -0.266 OA
ENDBRANCH  19  20
ENDBRANCH   1  19
BRANCH   2  23
HETATM   23  O3  UNL     1       1.005   9.816  25.833  1.00  0.00    -0.392 OA
ATOM     24  H3  UNL     1       1.571  10.461  26.239  1.00  0.00     0.210 HD
ENDBRANCH   2  23
BRANCH  13  25
HETATM   25  O4  UNL     1       5.028  10.014  24.533  1.00  0.00    -0.313 OA
BRANCH  25  26
HETATM   26  C16 UNL     1       5.906  10.986  24.078  1.00  0.00     0.255 C
HETATM   27  C17 UNL     1       7.252  10.574  23.602  1.00  0.00     0.126 C
HETATM   28  O5  UNL     1       5.554  12.212  24.071  1.00  0.00    -0.266 OA
ENDBRANCH  25  26
ENDBRANCH  13  25
BRANCH  15  29
HETATM   29  O6  UNL     1       6.578   5.685  23.046  1.00  0.00    -0.367 OA
ATOM     30  H6  UNL     1       6.035   4.988  23.395  1.00  0.00     0.212 HD
ENDBRANCH  15  29
TORSDOF 6
ENDMDL