MODEL 4
REMARK VINA RESULT: -7.586456080      2.649      4.181
REMARK  6 active torsions:
REMARK  status: ('A' for Active; 'I' for Inactive)
REMARK    1  A    between atoms: N1_2  and  C3_4
REMARK    2  A    between atoms: C4_5  and  O1_6
REMARK    3  A    between atoms: C6_9  and  O2_10
REMARK    4  A    between atoms: O2_10  and  C7_11
REMARK    5  A    between atoms: C8_13  and  O4_14
REMARK    6  A    between atoms: C21_29  and  O6_30
ROOT
HETATM    1  C7  UNL     1       4.460  10.381  23.327  1.00  0.00     0.268 C
HETATM    2  O3  UNL     1       3.040  10.176  23.162  1.00  0.00    -0.331 OA
HETATM    3  C8  UNL     1       2.360  11.215  23.667  1.00  0.00     0.264 C
HETATM    4  C9  UNL     1       3.350  12.008  24.460  1.00  0.00     0.050 C
HETATM    5  C10 UNL     1       3.007  13.438  24.613  1.00  0.00     0.010 C
HETATM    6  C11 UNL     1       4.250  14.273  24.763  1.00  0.00     0.007 C
HETATM    7  C12 UNL     1       5.376  13.364  25.204  1.00  0.00     0.005 C
HETATM    8  C13 UNL     1       5.716  12.542  23.947  1.00  0.00     0.069 C
HETATM    9  C14 UNL     1       7.006  11.898  24.155  1.00  0.00     0.132 C
HETATM   10  O5  UNL     1       7.508  11.305  23.215  1.00  0.00    -0.298 OA
HETATM   11  C15 UNL     1       7.760  11.912  25.430  1.00  0.00     0.079 C
HETATM   12  C16 UNL     1       7.570  13.181  26.218  1.00  0.00     0.016 C
HETATM   13  C17 UNL     1       6.613  14.137  25.567  1.00  0.00    -0.043 C
HETATM   14  C18 UNL     1       7.217  14.918  24.450  1.00  0.00     0.015 C
HETATM   15  C19 UNL     1       6.178  15.159  26.629  1.00  0.00     0.015 C
HETATM   16  C20 UNL     1       4.557  11.823  23.515  1.00  0.00     0.061 C
ENDROOT
BRANCH   1  17
HETATM   17  O2  UNL     1       4.808   9.535  24.318  1.00  0.00    -0.353 OA
BRANCH  17  18
HETATM   18  C6  UNL     1       5.173   8.264  23.987  1.00  0.00     0.158 C
HETATM   19  C5  UNL     1       5.403   8.067  22.498  1.00  0.00     0.068 C
HETATM   20  C4  UNL     1       4.686   6.799  22.090  1.00  0.00     0.145 C
HETATM   21  C3  UNL     1       3.532   6.782  23.071  1.00  0.00     0.138 C
HETATM   22  C21 UNL     1       4.307   7.132  24.349  1.00  0.00     0.172 C
BRANCH  20  23
HETATM   23  O1  UNL     1       4.155   6.953  20.812  1.00  0.00    -0.393 OA
ATOM     24  H1  UNL     1       3.922   7.868  20.704  1.00  0.00     0.210 HD
ENDBRANCH  20  23
BRANCH  21  25
HETATM   25  N1  UNL     1       2.773   5.626  23.126  1.00  0.00    -0.412 N
HETATM   26  C1  UNL     1       3.084   4.516  22.348  1.00  0.00     0.143 C
HETATM   27  C2  UNL     1       1.509   5.666  23.768  1.00  0.00     0.143 C
ENDBRANCH  21  25
BRANCH  22  28
HETATM   28  O6  UNL     1       5.086   5.968  24.599  1.00  0.00    -0.391 OA
ATOM     29  H6  UNL     1       5.459   6.129  25.458  1.00  0.00     0.210 HD
ENDBRANCH  22  28
ENDBRANCH  17  18
ENDBRANCH   1  17
BRANCH   3  30
HETATM   30  O4  UNL     1       1.736  11.978  22.677  1.00  0.00    -0.371 OA
ATOM     31  H4  UNL     1       1.845  12.912  22.816  1.00  0.00     0.212 HD
ENDBRANCH   3  30
TORSDOF 6
ENDMDL