MODEL 3
REMARK VINA RESULT: -8.161185653      2.954      6.332
REMARK  5 active torsions:
REMARK  status: ('A' for Active; 'I' for Inactive)
REMARK    1  A    between atoms: C2_2  and  O1_3
REMARK    2  A    between atoms: O1_3  and  C3_4
REMARK       I    between atoms: N3_12  and  C8_13
REMARK    3  A    between atoms: C8_13  and  C9_15
REMARK    4  A    between atoms: C18_25  and  O4_26
REMARK    5  A    between atoms: C19_28  and  O5_29
ROOT
HETATM    1  C3  UNL     1       6.314   7.720  23.567  1.00  0.00     0.134 A
HETATM    2  N1  UNL     1       5.801   6.707  23.018  1.00  0.00    -0.285 N
ATOM      3  H1  UNL     1       6.311   6.137  22.342  1.00  0.00     0.188 HD
HETATM    4  N2  UNL     1       4.500   6.422  23.395  1.00  0.00    -0.317 N
HETATM    5  C4  UNL     1       3.773   5.271  22.838  1.00  0.00     0.172 C
HETATM    6  C5  UNL     1       4.080   7.388  24.337  1.00  0.00     0.085 A
HETATM    7  C6  UNL     1       2.926   8.260  23.870  1.00  0.00     0.056 C
HETATM    8  C7  UNL     1       2.782   9.404  24.815  1.00  0.00     0.129 C
HETATM    9  N3  UNL     1       1.567   9.215  25.650  1.00  0.00    -0.344 N
HETATM   10  C8  UNL     1       0.523  10.021  25.172  1.00  0.00     0.224 C
HETATM   11  O2  UNL     1      -0.589   9.980  25.746  1.00  0.00    -0.273 OA
HETATM   12  C14 UNL     1       1.411   8.388  26.766  1.00  0.00     0.120 C
HETATM   13  C15 UNL     1       0.138   8.493  27.567  1.00  0.00     0.054 C
HETATM   14  C16 UNL     1       0.444   7.342  28.571  1.00  0.00     0.170 C
HETATM   15  O3  UNL     1       1.301   6.487  27.930  1.00  0.00    -0.381 OA
HETATM   16  C17 UNL     1       1.372   6.902  26.575  1.00  0.00     0.175 C
HETATM   17  C18 UNL     1       2.426   6.232  25.827  1.00  0.00     0.180 C
HETATM   18  C19 UNL     1       3.764   6.840  25.712  1.00  0.00     0.179 C
HETATM   19  C20 UNL     1       5.291   8.288  24.477  1.00  0.00     0.121 A
ENDROOT
BRANCH  18  20
HETATM   20  O5  UNL     1       4.807   5.925  25.998  1.00  0.00    -0.390 OA
ATOM     21  H5  UNL     1       4.456   5.345  26.664  1.00  0.00     0.210 HD
ENDBRANCH  18  20
BRANCH  17  22
HETATM   22  O4  UNL     1       2.614   4.961  26.439  1.00  0.00    -0.390 OA
ATOM     23  H4  UNL     1       3.111   4.434  25.824  1.00  0.00     0.210 HD
ENDBRANCH  17  22
BRANCH   1  24
HETATM   24  O1  UNL     1       7.596   8.180  23.334  1.00  0.00    -0.338 OA
BRANCH  24  25
HETATM   25  C2  UNL     1       7.850   9.524  22.953  1.00  0.00     0.172 C
HETATM   26  C1  UNL     1       7.203   9.743  21.608  1.00  0.00     0.034 C
ENDBRANCH  24  25
ENDBRANCH   1  24
BRANCH  10  27
HETATM   27  C9  UNL     1       0.570  10.959  24.026  1.00  0.00     0.078 C
HETATM   28  C10 UNL     1       1.426  12.151  24.181  1.00  0.00     0.014 C
HETATM   29  C11 UNL     1       0.503  13.354  23.940  1.00  0.00     0.001 C
HETATM   30  C12 UNL     1      -0.623  12.773  23.088  1.00  0.00     0.001 C
HETATM   31  C13 UNL     1      -0.834  11.449  23.756  1.00  0.00     0.014 C
ENDBRANCH  10  27
TORSDOF 5
ENDMDL