MODEL 4
REMARK VINA RESULT: -6.407362437      2.677      5.087
REMARK  2 active torsions:
REMARK  status: ('A' for Active; 'I' for Inactive)
REMARK    1  A    between atoms: C2_2  and  N1_3
REMARK    2  A    between atoms: C14_22  and  C15_23
ROOT
HETATM    1  N1  UNL     1       1.982   8.355  25.894  1.00  0.00    -0.352 N
HETATM    2  C3  UNL     1       1.021   9.093  26.683  1.00  0.00     0.110 C
HETATM    3  C4  UNL     1       0.425   8.073  27.666  1.00  0.00     0.034 C
HETATM    4  C5  UNL     1      -0.102   9.731  25.991  1.00  0.00     0.182 C
HETATM    5  C6  UNL     1      -0.965  10.329  27.044  1.00  0.00     0.073 C
HETATM    6  N2  UNL     1      -1.649  10.803  27.861  1.00  0.00    -0.196 NA
HETATM    7  C7  UNL     1       0.253  10.818  25.074  1.00  0.00     0.091 C
HETATM    8  N3  UNL     1      -0.411  11.911  25.188  1.00  0.00    -0.388 N
ATOM      9  H31 UNL     1      -0.164  12.668  24.550  1.00  0.00     0.157 HD
ATOM     10  H32 UNL     1      -1.114  11.880  25.927  1.00  0.00     0.157 HD
HETATM   11  N4  UNL     1       1.233  10.862  24.043  1.00  0.00    -0.361 N
ATOM     12  H4  UNL     1       1.126  11.537  23.286  1.00  0.00     0.162 HD
HETATM   13  C8  UNL     1       2.406   9.953  24.039  1.00  0.00     0.110 C
HETATM   14  C9  UNL     1       3.455  10.755  24.738  1.00  0.00     0.047 C
HETATM   15  C10 UNL     1       4.811  10.358  24.235  1.00  0.00     0.012 C
HETATM   16  C11 UNL     1       4.497   9.873  22.831  1.00  0.00     0.035 C
HETATM   17  C12 UNL     1       3.030  10.127  22.700  1.00  0.00     0.156 C
HETATM   18  O1  UNL     1       2.959  11.552  22.610  1.00  0.00    -0.382 OA
HETATM   19  C13 UNL     1       3.243  12.046  23.884  1.00  0.00     0.176 C
HETATM   20  C14 UNL     1       2.013   8.632  24.522  1.00  0.00     0.106 C
ENDROOT
BRANCH   1  21
HETATM   21  C2  UNL     1       3.042   8.076  26.731  1.00  0.00     0.060 C
HETATM   22  C1  UNL     1       3.603   6.748  26.974  1.00  0.00     0.055 C
ENDBRANCH   1  21
BRANCH  20  23
HETATM   23  C15 UNL     1       2.180   7.457  23.638  1.00  0.00     0.267 C
HETATM   24  O2  UNL     1       1.363   6.932  22.953  1.00  0.00    -0.273 OA
HETATM   25 CL1  UNL     1       3.746   6.698  23.547  1.00  0.00    -0.037 Cl
ENDBRANCH  20  23
TORSDOF 2
ENDMDL