MODEL 5
REMARK VINA RESULT: -7.166197026      2.731      3.679
REMARK  5 active torsions:
REMARK  status: ('A' for Active; 'I' for Inactive)
REMARK    1  A    between atoms: C6_7  and  O2_8
REMARK    2  A    between atoms: O2_8  and  C7_9
REMARK    3  A    between atoms: C9_13  and  C10_14
REMARK    4  A    between atoms: C10_14  and  O4_15
REMARK    5  A    between atoms: C15_21  and  O5_22
ROOT
HETATM    1  C1  UNL     1       2.143   8.381  28.415  1.00  0.00     0.046 C
HETATM    2  C2  UNL     1       1.210   8.194  27.282  1.00  0.00     0.060 C
HETATM    3  C3  UNL     1       0.012   7.403  27.803  1.00  0.00     0.046 C
HETATM    4  O1  UNL     1       0.659   9.448  26.884  1.00  0.00    -0.375 OA
HETATM    5  C4  UNL     1       1.370   9.620  25.707  1.00  0.00     0.129 C
HETATM    6  C5  UNL     1       1.283  10.730  24.824  1.00  0.00     0.065 C
HETATM    7  C6  UNL     1       2.659  10.923  24.199  1.00  0.00     0.136 C
HETATM    8  C8  UNL     1       3.194   9.950  23.285  1.00  0.00     0.044 C
HETATM    9  C9  UNL     1       3.512   8.553  23.601  1.00  0.00    -0.014 C
HETATM   10  C11 UNL     1       2.416   7.573  23.143  1.00  0.00     0.012 C
HETATM   11  C12 UNL     1       1.132   8.109  23.668  1.00  0.00     0.009 C
HETATM   12  C13 UNL     1       1.020   8.327  25.072  1.00  0.00     0.024 C
HETATM   13  C14 UNL     1       1.814   7.525  26.052  1.00  0.00     0.055 C
HETATM   14  C15 UNL     1       3.260   7.521  25.943  1.00  0.00     0.126 C
HETATM   15  C16 UNL     1       4.065   8.188  24.908  1.00  0.00     0.044 C
ENDROOT
BRANCH   7  16
HETATM   16  O2  UNL     1       2.558  12.175  23.501  1.00  0.00    -0.303 OA
BRANCH  16  17
HETATM   17  C7  UNL     1       2.683  13.395  24.098  1.00  0.00     0.358 C
HETATM   18  O3  UNL     1       1.682  14.144  24.186  1.00  0.00    -0.245 OA
HETATM   19 CL1  UNL     1       4.256  13.867  24.723  1.00  0.00    -0.012 Cl
ENDBRANCH  16  17
ENDBRANCH   7  16
BRANCH   9  20
HETATM   20  C10 UNL     1       4.601   8.156  22.552  1.00  0.00     0.173 C
BRANCH  20  21
HETATM   21  O4  UNL     1       4.307   8.900  21.432  1.00  0.00    -0.400 OA
ATOM     22  H4  UNL     1       5.099   8.879  20.907  1.00  0.00     0.209 HD
ENDBRANCH  20  21
ENDBRANCH   9  20
BRANCH  14  23
HETATM   23  O5  UNL     1       3.648   6.145  26.016  1.00  0.00    -0.395 OA
ATOM     24  H5  UNL     1       4.440   6.130  26.540  1.00  0.00     0.210 HD
ENDBRANCH  14  23
TORSDOF 5
ENDMDL