MODEL 4
REMARK VINA RESULT: -6.638547759      1.798      2.343
REMARK  6 active torsions:
REMARK  status: ('A' for Active; 'I' for Inactive)
REMARK    1  A    between atoms: N2_6  and  C4_8
REMARK    2  A    between atoms: C4_8  and  O1_9
REMARK    3  A    between atoms: C4_8  and  C5_11
REMARK    4  A    between atoms: C8_16  and  C10_18
REMARK    5  A    between atoms: C10_18  and  N3_19
REMARK       I    between atoms: N3_19  and  C11_20
REMARK    6  A    between atoms: C11_20  and  O3_22
ROOT
HETATM    1  O3  UNL     1      -0.357   8.892  28.573  1.00  0.00    -0.174 OA
HETATM    2  C12 UNL     1      -0.770   9.967  27.865  1.00  0.00     0.238 C
HETATM    3  N4  UNL     1      -1.126  10.877  27.251  1.00  0.00    -0.163 NA
ENDROOT
BRANCH   1   4
HETATM    4  C11 UNL     1       0.282   7.764  27.948  1.00  0.00     0.454 C
HETATM    5  N3  UNL     1       0.383   7.655  26.617  1.00  0.00    -0.360 NA
HETATM    6  O2  UNL     1       0.704   6.950  28.861  1.00  0.00    -0.220 OA
BRANCH   5   7
HETATM    7  C10 UNL     1       0.484   7.543  25.260  1.00  0.00     0.184 C
BRANCH   7   8
HETATM    8  C8  UNL     1       1.198   8.647  24.508  1.00  0.00     0.076 C
HETATM    9  C2  UNL     1       1.843   8.064  23.284  1.00  0.00     0.104 C
HETATM   10  C1  UNL     1       2.202   6.601  23.442  1.00  0.00     0.034 C
HETATM   11  N1  UNL     1       3.014   8.814  22.965  1.00  0.00    -0.364 N
HETATM   12  C3  UNL     1       3.888   8.912  24.095  1.00  0.00     0.143 C
ATOM     13  H1  UNL     1       3.203   9.226  22.051  1.00  0.00     0.162 HD
HETATM   14  N2  UNL     1       5.094   8.879  24.291  1.00  0.00    -0.320 N
HETATM   15  S1  UNL     1       2.678   9.184  25.451  1.00  0.00    -0.076 SA
ATOM     16  H2  UNL     1       5.341   8.986  25.275  1.00  0.00     0.169 HD
HETATM   17  C9  UNL     1       0.316   9.772  24.104  1.00  0.00     0.036 C
BRANCH  14  18
HETATM   18  C4  UNL     1       6.191   8.729  23.477  1.00  0.00     0.140 C
BRANCH  18  19
HETATM   19  O1  UNL     1       6.556   7.510  23.203  1.00  0.00    -0.348 OA
ATOM     20  H1  UNL     1       7.444   7.267  23.436  1.00  0.00     0.219 HD
ENDBRANCH  18  19
BRANCH  18  21
HETATM   21  C5  UNL     1       6.952   9.855  22.916  1.00  0.00     0.094 C
HETATM   22  C6  UNL     1       6.610  10.071  21.474  1.00  0.00     0.041 C
HETATM   23  C7  UNL     1       8.432   9.403  22.926  1.00  0.00     0.041 C
HETATM   24 CL1  UNL     1       6.848  11.353  23.821  1.00  0.00    -0.111 Cl
ENDBRANCH  18  21
ENDBRANCH  14  18
ENDBRANCH   7   8
ENDBRANCH   5   7
ENDBRANCH   1   4
TORSDOF 6
ENDMDL