MODEL 3
REMARK VINA RESULT: -6.611734657      2.764      4.267
REMARK  5 active torsions:
REMARK  status: ('A' for Active; 'I' for Inactive)
REMARK    1  A    between atoms: C2_2  and  O1_5
REMARK    2  A    between atoms: O1_5  and  C5_6
REMARK       I    between atoms: C5_6  and  N1_8
REMARK    3  A    between atoms: N1_8  and  C6_10
REMARK    4  A    between atoms: N2_12  and  C8_13
REMARK    5  A    between atoms: C12_21  and  O4_22
ROOT
HETATM    1  C6  UNL     1       0.036  10.769  24.209  1.00  0.00     0.135 C
HETATM    2  C7  UNL     1       1.360  11.039  23.489  1.00  0.00     0.154 C
HETATM    3  N2  UNL     1       1.538  12.456  23.747  1.00  0.00    -0.342 N
HETATM    4  C11 UNL     1       0.250  13.060  23.517  1.00  0.00     0.160 C
HETATM    5  C12 UNL     1      -0.692  12.087  24.193  1.00  0.00     0.160 C
ENDROOT
BRANCH   1   6
HETATM    6  N1  UNL     1       0.356  10.446  25.578  1.00  0.00    -0.328 N
HETATM    7  C5  UNL     1       1.108   9.292  25.864  1.00  0.00     0.361 C
HETATM    8  O2  UNL     1       1.496   8.552  24.929  1.00  0.00    -0.238 OA
ATOM      9  H1  UNL     1       0.039  11.052  26.334  1.00  0.00     0.165 HD
BRANCH   7  10
HETATM   10  O1  UNL     1       1.458   8.910  27.151  1.00  0.00    -0.294 OA
BRANCH  10  11
HETATM   11  C2  UNL     1       0.502   8.354  27.991  1.00  0.00     0.061 C
HETATM   12  C1  UNL     1       1.201   8.038  29.320  1.00  0.00     0.046 C
HETATM   13  C3  UNL     1      -0.625   9.325  28.296  1.00  0.00     0.046 C
HETATM   14  C4  UNL     1      -0.074   7.060  27.490  1.00  0.00     0.046 C
ENDBRANCH  10  11
ENDBRANCH   7  10
ENDBRANCH   1   6
BRANCH   5  15
HETATM   15  O4  UNL     1      -1.883  11.965  23.484  1.00  0.00    -0.392 OA
ATOM     16  H4  UNL     1      -2.610  12.271  24.014  1.00  0.00     0.210 HD
ENDBRANCH   5  15
BRANCH   3  17
HETATM   17  C8  UNL     1       2.751  13.074  24.143  1.00  0.00     0.227 A
HETATM   18  N3  UNL     1       3.972  12.482  23.996  1.00  0.00    -0.329 N
HETATM   19  C9  UNL     1       4.844  13.373  24.481  1.00  0.00     0.137 A
ATOM     20  H3  UNL     1       4.174  11.563  23.603  1.00  0.00     0.168 HD
HETATM   21  C10 UNL     1       4.154  14.485  24.913  1.00  0.00     0.140 A
HETATM   22 BR1  UNL     1       4.841  16.071  25.692  1.00  0.00    -0.021 Br
HETATM   23  O3  UNL     1       2.891  14.246  24.683  1.00  0.00    -0.270 OA
ENDBRANCH   3  17
TORSDOF 5
ENDMDL