MODEL 2
REMARK VINA RESULT: -7.083885598      1.010      1.064
REMARK  5 active torsions:
REMARK  status: ('A' for Active; 'I' for Inactive)
REMARK    1  A    between atoms: C3_3  and  C4_4
REMARK    2  A    between atoms: C7_7  and  O1_8
REMARK    3  A    between atoms: N1_10  and  O2_11
REMARK    4  A    between atoms: N2_14  and  S1_15
REMARK    5  A    between atoms: S1_15  and  C9_18
ROOT
HETATM    1  C1  UNL     1       5.498  15.195  24.881  1.00  0.00     0.112 C
HETATM    2  C2  UNL     1       5.718  13.787  24.499  1.00  0.00    -0.104 C
HETATM    3  C3  UNL     1       5.899  12.632  24.207  1.00  0.00    -0.046 C
ENDROOT
BRANCH   3   4
HETATM    4  C4  UNL     1       6.138  11.247  23.866  1.00  0.00     0.125 A
HETATM    5  C5  UNL     1       5.154  10.332  23.541  1.00  0.00    -0.005 A
HETATM    6  C6  UNL     1       5.749   9.112  23.274  1.00  0.00     0.023 A
HETATM    7  C14 UNL     1       3.676  10.322  23.407  1.00  0.00     0.073 C
HETATM    8  C7  UNL     1       7.088   9.288  23.436  1.00  0.00     0.177 A
HETATM    9  C8  UNL     1       4.775   8.054  22.913  1.00  0.00     0.177 C
HETATM   10  N1  UNL     1       7.299  10.575  23.791  1.00  0.00    -0.192 N
HETATM   11  N2  UNL     1       3.723   7.902  23.938  1.00  0.00    -0.317 N
HETATM   12  C11 UNL     1       3.105   9.195  24.150  1.00  0.00     0.038 C
HETATM   13  C12 UNL     1       3.015   9.600  25.604  1.00  0.00     0.039 C
HETATM   14  C13 UNL     1       1.647   9.015  23.691  1.00  0.00     0.039 C
BRANCH   8  15
HETATM   15  O1  UNL     1       8.019   8.263  23.249  1.00  0.00    -0.344 OA
ATOM     16  H1  UNL     1       8.642   8.253  22.532  1.00  0.00     0.219 HD
ENDBRANCH   8  15
BRANCH  10  17
HETATM   17  O2  UNL     1       8.530  11.123  24.042  1.00  0.00    -0.280 OA
ATOM     18  H2  UNL     1       9.217  10.697  24.542  1.00  0.00     0.245 HD
ENDBRANCH  10  17
BRANCH  11  19
HETATM   19  S1  UNL     1       3.885   6.792  25.174  1.00  0.00     0.110 S
HETATM   20  O3  UNL     1       2.210   6.124  24.840  1.00  0.00    -0.234 OA
HETATM   21 CL1  UNL     1       5.378   6.071  24.172  1.00  0.00    -0.003 Cl
BRANCH  19  22
HETATM   22  C9  UNL     1       4.163   5.537  26.454  1.00  0.00     0.129 C
HETATM   23  C10 UNL     1       4.352   6.098  27.882  1.00  0.00     0.020 C
ENDBRANCH  19  22
ENDBRANCH  11  19
ENDBRANCH   3   4
TORSDOF 5
ENDMDL