MODEL 1
REMARK VINA RESULT: -8.150462474      0.000      0.000
REMARK  5 active torsions:
REMARK  status: ('A' for Active; 'I' for Inactive)
REMARK    1  A    between atoms: C3_3  and  N1_4
REMARK       I    between atoms: N1_4  and  C4_6
REMARK       I    between atoms: C4_6  and  N2_8
REMARK    2  A    between atoms: N3_11  and  C7_12
REMARK    3  A    between atoms: C7_12  and  N4_13
REMARK    4  A    between atoms: C8_14  and  O2_15
REMARK    5  A    between atoms: C11_19  and  O3_20
ROOT
HETATM    1  C1  UNL     1       5.141   3.566  29.425  1.00  0.00     0.014 C
HETATM    2  C2  UNL     1       4.818   3.454  28.265  1.00  0.00    -0.098 C
HETATM    3  C3  UNL     1       4.420   3.339  26.856  1.00  0.00     0.217 C
ENDROOT
BRANCH   3   4
HETATM    4  N1  UNL     1       4.353   4.697  26.339  1.00  0.00    -0.333 N
HETATM    5  C4  UNL     1       5.109   5.131  25.234  1.00  0.00     0.319 C
HETATM    6  O1  UNL     1       5.876   4.339  24.657  1.00  0.00    -0.247 OA
HETATM    7  N2  UNL     1       4.999   6.460  24.782  1.00  0.00    -0.331 N
HETATM    8  C5  UNL     1       4.097   7.403  25.454  1.00  0.00     0.158 C
HETATM    9  C17 UNL     1       5.740   6.989  23.653  1.00  0.00     0.158 C
HETATM   10  C6  UNL     1       3.853   8.529  24.454  1.00  0.00     0.294 C
HETATM   11  N3  UNL     1       5.075   9.227  24.203  1.00  0.00     0.109 N
HETATM   12  C16 UNL     1       6.216   8.373  24.028  1.00  0.00     0.294 C
ATOM     13  H1  UNL     1       3.730   5.363  26.797  1.00  0.00     0.165 HD
BRANCH  11  14
HETATM   14  C7  UNL     1       4.984  10.203  23.148  1.00  0.00     0.406 C
BRANCH  14  15
HETATM   15  N4  UNL     1       4.909  11.545  23.695  1.00  0.00    -0.280 N
HETATM   16  C8  UNL     1       6.021  12.287  23.974  1.00  0.00     0.152 A
HETATM   17  C9  UNL     1       5.553  13.498  24.460  1.00  0.00     0.004 A
HETATM   18  C10 UNL     1       4.182  13.505  24.480  1.00  0.00     0.004 A
HETATM   19  C15 UNL     1       6.366  14.681  24.919  1.00  0.00     0.044 C
HETATM   20  C11 UNL     1       3.804  12.253  23.989  1.00  0.00     0.152 A
HETATM   21  C12 UNL     1       3.407  14.675  24.953  1.00  0.00     0.044 C
HETATM   22  C13 UNL     1       4.268  15.453  25.907  1.00  0.00     0.005 C
HETATM   23  C14 UNL     1       5.510  15.898  25.161  1.00  0.00     0.005 C
BRANCH  16  24
HETATM   24  O2  UNL     1       7.349  11.900  23.804  1.00  0.00    -0.345 OA
ATOM     25  H2  UNL     1       7.926  12.143  23.089  1.00  0.00     0.219 HD
ENDBRANCH  16  24
BRANCH  20  26
HETATM   26  O3  UNL     1       2.475  11.880  23.857  1.00  0.00    -0.345 OA
ATOM     27  H3  UNL     1       2.082  11.300  23.214  1.00  0.00     0.219 HD
ENDBRANCH  20  26
ENDBRANCH  14  15
ENDBRANCH  11  14
ENDBRANCH   3   4
TORSDOF 5
ENDMDL