MODEL 1
REMARK VINA RESULT: -7.500335115      0.000      0.000
REMARK  2 active torsions:
REMARK  status: ('A' for Active; 'I' for Inactive)
REMARK    1  A    between atoms: C1_2  and  C2_3
REMARK       I    between atoms: C1_2  and  N3_14
REMARK    2  A    between atoms: C3_8  and  C4_9
ROOT
HETATM    1  O1  UNL     1       4.178  10.210  22.302  1.00  0.00    -0.266 OA
HETATM    2  C1  UNL     1       3.728  10.445  23.451  1.00  0.00     0.275 C
HETATM    3  N3  UNL     1       3.297   9.362  24.246  1.00  0.00    -0.316 N
HETATM    4  C8  UNL     1       2.768   9.677  25.594  1.00  0.00     0.360 C
HETATM    5  N4  UNL     1       2.403   8.446  26.273  1.00  0.00    -0.058 N
ATOM      6  H41 UNL     1       2.066   8.626  27.218  1.00  0.00     0.279 HD
ATOM      7  H42 UNL     1       3.226   7.887  26.503  1.00  0.00     0.279 HD
HETATM    8  C9  UNL     1       1.443   7.683  25.504  1.00  0.00     0.252 C
HETATM    9  C10 UNL     1       1.893   7.443  24.108  1.00  0.00     0.108 C
HETATM   10  S1  UNL     1       2.071   5.631  23.827  1.00  0.00    -0.089 SA
HETATM   11  S2  UNL     1       3.692   5.844  22.411  1.00  0.00    -0.095 SA
HETATM   12  C11 UNL     1       3.747   7.698  22.543  1.00  0.00     0.113 C
HETATM   13  C12 UNL     1       3.304   7.977  23.931  1.00  0.00     0.115 C
ENDROOT
BRANCH   2  14
HETATM   14  C2  UNL     1       3.679  11.831  23.895  1.00  0.00     0.140 A
HETATM   15  N1  UNL     1       2.659  12.664  24.124  1.00  0.00    -0.294 N
HETATM   16  N2  UNL     1       3.073  13.855  24.522  1.00  0.00    -0.302 N
ATOM     17  H1  UNL     1       1.678  12.411  24.005  1.00  0.00     0.187 HD
HETATM   18  C3  UNL     1       4.430  13.859  24.577  1.00  0.00     0.054 A
ATOM     19  H2  UNL     1       2.469  14.645  24.752  1.00  0.00     0.186 HD
HETATM   20  C7  UNL     1       4.806  12.612  24.191  1.00  0.00     0.092 A
HETATM   21 CL1  UNL     1       6.455  12.079  24.083  1.00  0.00    -0.080 Cl
BRANCH  18  22
HETATM   22  C4  UNL     1       5.267  14.990  24.972  1.00  0.00     0.039 A
HETATM   23  C5  UNL     1       4.565  16.283  25.362  1.00  0.00     0.011 A
HETATM   24  C6  UNL     1       5.429  15.469  26.337  1.00  0.00     0.011 A
ENDBRANCH  18  22
ENDBRANCH   2  14
TORSDOF 2
ENDMDL