MODEL 2
REMARK VINA RESULT: -6.645631148      4.484      5.923
REMARK  7 active torsions:
REMARK  status: ('A' for Active; 'I' for Inactive)
REMARK    1  A    between atoms: C2_2  and  O2_4
REMARK    2  A    between atoms: O2_4  and  C3_5
REMARK    3  A    between atoms: C5_7  and  O3_8
REMARK    4  A    between atoms: C11_16  and  O4_17
REMARK    5  A    between atoms: C12_19  and  N1_20
REMARK    6  A    between atoms: N1_20  and  N2_22
REMARK    7  A    between atoms: N2_22  and  N3_23
ROOT
HETATM    1  C3  UNL     1       6.099  12.554  24.292  1.00  0.00     0.151 C
HETATM    2  C4  UNL     1       6.290  11.323  23.905  1.00  0.00    -0.024 C
HETATM    3  C5  UNL     1       7.458  10.953  23.087  1.00  0.00     0.150 C
HETATM    4  C6  UNL     1       7.245   9.835  22.132  1.00  0.00     0.044 C
HETATM    5  C7  UNL     1       6.123   8.910  22.452  1.00  0.00     0.031 C
HETATM    6  C8  UNL     1       5.743   8.893  23.910  1.00  0.00     0.072 C
HETATM    7 BR1  UNL     1       7.062   8.118  25.043  1.00  0.00    -0.090 Br
HETATM    8  C9  UNL     1       5.324  10.271  24.290  1.00  0.00     0.036 C
HETATM    9  C10 UNL     1       4.007  10.543  23.623  1.00  0.00     0.044 C
HETATM   10  C11 UNL     1       3.764   9.807  22.373  1.00  0.00     0.144 C
HETATM   11  C12 UNL     1       4.905   9.234  21.654  1.00  0.00     0.148 C
ENDROOT
BRANCH  11  12
HETATM   12  N1  UNL     1       4.459   8.019  20.951  1.00  0.00    -0.245 N
ATOM     13  H1  UNL     1       4.042   8.078  20.021  1.00  0.00     0.197 HD
BRANCH  12  14
HETATM   14  N2  UNL     1       4.602   6.925  21.512  1.00  0.00    -0.248 NA
BRANCH  14  15
HETATM   15  N3  UNL     1       4.858   5.776  21.868  1.00  0.00    -0.261 N
ATOM     16  H32 UNL     1       5.376   5.626  21.002  1.00  0.00     0.193 HD
ATOM     17  H31 UNL     1       4.966   4.870  22.325  1.00  0.00     0.193 HD
ENDBRANCH  14  15
ENDBRANCH  12  14
ENDBRANCH  11  12
BRANCH  10  18
HETATM   18  O4  UNL     1       2.825   8.778  22.629  1.00  0.00    -0.393 OA
ATOM     19  H4  UNL     1       2.078   8.899  22.055  1.00  0.00     0.210 HD
ENDBRANCH  10  18
BRANCH   3  20
HETATM   20  O3  UNL     1       8.584  10.732  23.915  1.00  0.00    -0.391 OA
ATOM     21  H3  UNL     1       8.417  10.011  24.512  1.00  0.00     0.210 HD
ENDBRANCH   3  20
BRANCH   1  22
HETATM   22  O2  UNL     1       6.999  13.531  23.933  1.00  0.00    -0.291 OA
BRANCH  22  23
HETATM   23  C2  UNL     1       7.125  14.704  24.672  1.00  0.00     0.259 C
HETATM   24  C1  UNL     1       5.981  15.446  25.231  1.00  0.00     0.126 C
HETATM   25  O1  UNL     1       8.308  15.119  24.850  1.00  0.00    -0.265 OA
ENDBRANCH  22  23
ENDBRANCH   1  22
TORSDOF 7
ENDMDL