MODEL 2
REMARK VINA RESULT: -7.442019330      3.921      5.923
REMARK  4 active torsions:
REMARK  status: ('A' for Active; 'I' for Inactive)
REMARK    1  A    between atoms: N1_2  and  C2_4
REMARK    2  A    between atoms: N3_7  and  C3_8
REMARK    3  A    between atoms: C6_11  and  O1_12
REMARK    4  A    between atoms: C6_11  and  C7_14
ROOT
HETATM    1  C3  UNL     1       2.239  10.606  23.417  1.00  0.00     0.125 C
HETATM    2  C4  UNL     1       2.360   9.105  23.517  1.00  0.00     0.032 C
HETATM    3  C5  UNL     1       3.786   8.667  23.747  1.00  0.00     0.040 C
HETATM    4  C6  UNL     1       4.750   9.609  23.026  1.00  0.00     0.063 C
HETATM    5  C12 UNL     1       4.630  11.017  23.499  1.00  0.00     0.059 C
HETATM    6  C13 UNL     1       3.322  11.221  24.237  1.00  0.00     0.120 C
HETATM    7  C14 UNL     1       3.159  12.685  24.355  1.00  0.00     0.066 C
HETATM    8  N4  UNL     1       3.023  13.836  24.438  1.00  0.00    -0.197 NA
ENDROOT
BRANCH   1   9
HETATM    9  N3  UNL     1       0.915  11.024  23.798  1.00  0.00    -0.294 N
HETATM   10  N2  UNL     1       0.091  11.854  23.173  1.00  0.00    -0.282 N
HETATM   11  C2  UNL     1      -1.041  11.973  23.859  1.00  0.00     0.139 A
ATOM     12  H2  UNL     1       0.297  12.331  22.295  1.00  0.00     0.189 HD
HETATM   13  C16 UNL     1      -0.949  11.184  24.985  1.00  0.00     0.096 A
HETATM   14  C15 UNL     1       0.301  10.597  24.916  1.00  0.00     0.138 A
HETATM   15 CL1  UNL     1      -2.187  11.007  26.202  1.00  0.00    -0.079 Cl
BRANCH  11  16
HETATM   16  N1  UNL     1      -2.047  12.705  23.524  1.00  0.00    -0.378 N
HETATM   17  C1  UNL     1      -2.261  13.203  22.196  1.00  0.00     0.147 C
ATOM     18  H1  UNL     1      -2.730  12.943  24.242  1.00  0.00     0.160 HD
ENDBRANCH  11  16
ENDBRANCH   1   9
BRANCH   4  19
HETATM   19  O1  UNL     1       4.367   9.572  21.674  1.00  0.00    -0.389 OA
ATOM     20  H1  UNL     1       3.716   8.884  21.614  1.00  0.00     0.210 HD
ENDBRANCH   4  19
BRANCH   4  21
HETATM   21  C7  UNL     1       6.148   9.065  23.097  1.00  0.00     0.024 C
HETATM   22  C8  UNL     1       7.047  10.011  22.324  1.00  0.00     0.034 C
HETATM   23  C9  UNL     1       8.433   9.885  22.944  1.00  0.00     0.168 C
HETATM   24  O2  UNL     1       8.697   8.578  23.321  1.00  0.00    -0.391 OA
HETATM   25  C10 UNL     1       7.982   8.186  24.438  1.00  0.00     0.168 C
HETATM   26  C11 UNL     1       6.680   8.996  24.505  1.00  0.00     0.034 C
ENDBRANCH   4  21
TORSDOF 4
ENDMDL