MODEL 3
REMARK VINA RESULT: -7.493983383      2.606      6.830
REMARK  2 active torsions:
REMARK  status: ('A' for Active; 'I' for Inactive)
REMARK    1  A    between atoms: N1_3  and  N2_4
REMARK    2  A    between atoms: N2_4  and  C2_5
ROOT
HETATM    1  C2  UNL     1       3.796   8.805  23.045  1.00  0.00     0.299 C
HETATM    2  C3  UNL     1       4.695   9.807  23.650  1.00  0.00     0.063 C
HETATM    3  C4  UNL     1       6.015  10.057  23.044  1.00  0.00    -0.015 C
HETATM    4  C5  UNL     1       6.344   9.293  21.819  1.00  0.00     0.039 C
HETATM    5  C6  UNL     1       5.052   9.154  21.011  1.00  0.00     0.235 C
HETATM    6  N3  UNL     1       4.227   8.265  21.785  1.00  0.00    -0.056 N
ATOM      7  H31 UNL     1       3.425   7.955  21.236  1.00  0.00     0.279 HD
ATOM      8  H32 UNL     1       4.698   7.370  21.923  1.00  0.00     0.279 HD
HETATM    9  C7  UNL     1       6.194  11.550  22.704  1.00  0.00     0.037 C
HETATM   10  C8  UNL     1       6.528  12.320  23.976  1.00  0.00     0.168 C
HETATM   11  O2  UNL     1       7.803  12.007  24.432  1.00  0.00    -0.390 OA
HETATM   12  C9  UNL     1       8.243  10.776  23.970  1.00  0.00     0.188 C
HETATM   13  C10 UNL     1       7.115   9.782  24.064  1.00  0.00     0.114 C
HETATM   14 CL1  UNL     1       7.661   8.117  23.963  1.00  0.00    -0.122 Cl
ENDROOT
BRANCH   1  15
HETATM   15  N2  UNL     1       2.464   9.407  22.878  1.00  0.00    -0.101 NA
BRANCH  15  16
HETATM   16  N1  UNL     1       1.704   9.380  24.023  1.00  0.00    -0.237 N
HETATM   17  C1  UNL     1       1.348  10.360  24.976  1.00  0.00     0.272 C
HETATM   18  O1  UNL     1       1.785  11.521  25.025  1.00  0.00    -0.268 OA
HETATM   19  C12 UNL     1       0.381   9.739  25.877  1.00  0.00     0.145 C
HETATM   20  O3  UNL     1      -0.049   8.575  25.231  1.00  0.00    -0.350 OA
HETATM   21  C13 UNL     1       1.026   9.269  27.193  1.00  0.00     0.048 C
HETATM   22  C16 UNL     1      -0.746  10.606  26.330  1.00  0.00     0.048 C
HETATM   23  C11 UNL     1       1.054   8.143  24.493  1.00  0.00     0.317 C
HETATM   24  C14 UNL     1      -0.270   8.941  27.955  1.00  0.00     0.004 C
HETATM   25  C15 UNL     1      -1.029  10.239  27.788  1.00  0.00     0.004 C
ENDBRANCH  15  16
ENDBRANCH   1  15
TORSDOF 2
ENDMDL