MODEL 1
REMARK VINA RESULT: -7.772342885      0.000      0.000
REMARK  9 active torsions:
REMARK  status: ('A' for Active; 'I' for Inactive)
REMARK    1  A    between atoms: C4_6  and  C5_7
REMARK       I    between atoms: C5_7  and  N2_9
REMARK    2  A    between atoms: N2_9  and  N3_11
REMARK    3  A    between atoms: N3_11  and  C6_13
REMARK    4  A    between atoms: C6_13  and  N4_15
REMARK    5  A    between atoms: N4_15  and  C7_17
REMARK    6  A    between atoms: C7_17  and  C8_18
REMARK    7  A    between atoms: C8_18  and  O2_19
REMARK    8  A    between atoms: O2_19  and  C9_20
REMARK       I    between atoms: C9_20  and  N5_22
REMARK    9  A    between atoms: N5_22  and  C10_24
ROOT
HETATM    1  N4  UNL     1       4.389   9.028  24.260  1.00  0.00    -0.343 N
ATOM      2  H4  UNL     1       3.774   9.238  23.474  1.00  0.00     0.167 HD
ENDROOT
BRANCH   1   3
HETATM    3  C6  UNL     1       3.667   8.622  25.365  1.00  0.00     0.190 C
HETATM    4  S1  UNL     1       4.088   7.450  26.366  1.00  0.00    -0.039 SA
BRANCH   3   5
HETATM    5  N3  UNL     1       2.439   9.325  25.673  1.00  0.00    -0.273 N
ATOM      6  H3  UNL     1       2.116   9.302  26.640  1.00  0.00     0.189 HD
BRANCH   5   7
HETATM    7  N2  UNL     1       1.674  10.019  24.768  1.00  0.00    -0.262 N
HETATM    8  C5  UNL     1       0.548  10.753  25.213  1.00  0.00     0.295 C
HETATM    9  O1  UNL     1       0.243  10.797  26.459  1.00  0.00    -0.264 OA
ATOM     10  H2  UNL     1       1.917  10.007  23.778  1.00  0.00     0.190 HD
BRANCH   8  11
HETATM   11  C4  UNL     1      -0.316  11.486  24.298  1.00  0.00     0.162 A
HETATM   12  C3  UNL     1      -1.694  11.595  24.343  1.00  0.00     0.133 A
HETATM   13  N1  UNL     1      -2.070  12.354  23.310  1.00  0.00    -0.347 N
HETATM   14  C2  UNL     1      -0.961  12.711  22.635  1.00  0.00     0.120 A
ATOM     15  H1  UNL     1      -3.028  12.615  23.075  1.00  0.00     0.167 HD
HETATM   16  C1  UNL     1      -0.956  13.566  21.404  1.00  0.00     0.098 C
HETATM   17  O4  UNL     1       0.045  12.180  23.250  1.00  0.00    -0.291 OA
ENDBRANCH   8  11
ENDBRANCH   5   7
ENDBRANCH   3   5
ENDBRANCH   1   3
BRANCH   1  18
HETATM   18  C7  UNL     1       5.735   9.230  23.921  1.00  0.00     0.102 C
BRANCH  18  19
HETATM   19  C8  UNL     1       6.066  10.545  23.345  1.00  0.00     0.104 C
HETATM   20  C13 UNL     1       7.291  11.092  24.149  1.00  0.00     0.044 C
HETATM   21  C14 UNL     1       8.420  10.225  23.706  1.00  0.00     0.004 C
HETATM   22  C15 UNL     1       8.183  10.023  22.241  1.00  0.00     0.004 C
HETATM   23  C16 UNL     1       6.758  10.369  21.973  1.00  0.00     0.044 C
BRANCH  19  24
HETATM   24  O2  UNL     1       5.149  11.546  23.193  1.00  0.00    -0.287 OA
BRANCH  24  25
HETATM   25  C9  UNL     1       4.776  12.369  24.262  1.00  0.00     0.362 C
HETATM   26  O3  UNL     1       3.942  11.923  25.065  1.00  0.00    -0.238 OA
HETATM   27  N5  UNL     1       5.328  13.644  24.400  1.00  0.00    -0.332 N
ATOM     28  H5  UNL     1       6.012  13.937  23.702  1.00  0.00     0.165 HD
BRANCH  27  29
HETATM   29  C10 UNL     1       5.015  14.565  25.432  1.00  0.00     0.086 A
HETATM   30  C11 UNL     1       3.868  15.534  25.282  1.00  0.00     0.027 A
HETATM   31  C12 UNL     1       5.258  16.058  25.262  1.00  0.00     0.027 A
ENDBRANCH  27  29
ENDBRANCH  24  25
ENDBRANCH  19  24
ENDBRANCH  18  19
ENDBRANCH   1  18
TORSDOF 9
ENDMDL