MODEL 3
REMARK VINA RESULT: -7.181446368      2.938      4.820
REMARK  7 active torsions:
REMARK  status: ('A' for Active; 'I' for Inactive)
REMARK    1  A    between atoms: C3_5  and  C5_7
REMARK    2  A    between atoms: N2_10  and  N3_11
REMARK    3  A    between atoms: C6_13  and  C7_14
REMARK    4  A    between atoms: C8_15  and  C9_16
REMARK    5  A    between atoms: C9_16  and  O3_17
REMARK    6  A    between atoms: N4_19  and  O4_21
REMARK    7  A    between atoms: C11_24  and  O5_25
ROOT
HETATM    1  C7  UNL     1       5.048   9.279  24.284  1.00  0.00     0.046 C
HETATM    2  C8  UNL     1       5.428   8.094  23.460  1.00  0.00     0.083 C
HETATM    3  C10 UNL     1       6.168   8.675  22.283  1.00  0.00     0.063 C
HETATM    4  C11 UNL     1       5.167   9.401  21.459  1.00  0.00     0.045 C
HETATM    5  C12 UNL     1       4.769  10.471  22.176  1.00  0.00     0.012 C
HETATM    6  C13 UNL     1       5.520  10.444  23.482  1.00  0.00     0.029 C
HETATM    7  C14 UNL     1       6.850   9.880  22.948  1.00  0.00    -0.030 C
HETATM    8  C15 UNL     1       7.376  10.856  21.950  1.00  0.00     0.016 C
HETATM    9  C16 UNL     1       7.795   9.507  24.018  1.00  0.00     0.016 C
ENDROOT
BRANCH   1  10
HETATM   10  C6  UNL     1       3.647   9.388  24.643  1.00  0.00     0.086 C
HETATM   11  N3  UNL     1       3.173   9.739  25.783  1.00  0.00    -0.307 N
ATOM     12  H3  UNL     1       3.830   9.970  26.529  1.00  0.00     0.186 HD
BRANCH  11  13
HETATM   13  N2  UNL     1       1.803   9.821  26.055  1.00  0.00    -0.216 N
HETATM   14  C3  UNL     1       0.957   8.928  26.774  1.00  0.00     0.214 A
HETATM   15  N1  UNL     1      -0.349   9.518  26.735  1.00  0.00    -0.353 N
HETATM   16  C4  UNL     1       1.388   8.757  28.222  1.00  0.00     0.078 C
HETATM   17  C2  UNL     1      -0.334  10.618  26.088  1.00  0.00     0.074 A
ATOM     18  H1  UNL     1      -1.179   9.113  27.167  1.00  0.00     0.162 HD
HETATM   19  C1  UNL     1      -1.536  11.467  25.873  1.00  0.00     0.074 C
HETATM   20  C17 UNL     1       1.006  10.907  25.608  1.00  0.00     0.286 A
HETATM   21  O6  UNL     1       1.365  11.927  24.928  1.00  0.00    -0.264 OA
BRANCH  14  22
HETATM   22  C5  UNL     1       0.947   7.561  26.185  1.00  0.00     0.226 C
HETATM   23  O1  UNL     1      -0.004   7.085  25.554  1.00  0.00    -0.645 OA
HETATM   24  O2  UNL     1       2.078   6.783  26.362  1.00  0.00    -0.645 OA
ENDBRANCH  14  22
ENDBRANCH  11  13
ENDBRANCH   1  10
BRANCH   2  25
HETATM   25  C9  UNL     1       4.320   7.239  23.048  1.00  0.00     0.141 C
HETATM   26  N4  UNL     1       3.957   6.182  23.736  1.00  0.00    -0.251 N
ATOM     27  H4  UNL     1       3.174   5.616  23.408  1.00  0.00     0.196 HD
BRANCH  25  28
HETATM   28  O3  UNL     1       3.548   7.459  21.900  1.00  0.00    -0.348 OA
ATOM     29  H3  UNL     1       2.655   7.785  21.916  1.00  0.00     0.219 HD
ENDBRANCH  25  28
BRANCH  26  30
HETATM   30  O4  UNL     1       4.610   5.827  24.886  1.00  0.00    -0.288 OA
ATOM     31  H4  UNL     1       4.232   5.200  25.492  1.00  0.00     0.244 HD
ENDBRANCH  26  30
ENDBRANCH   2  25
BRANCH   4  32
HETATM   32  O5  UNL     1       4.744   9.018  20.194  1.00  0.00    -0.365 OA
ATOM     33  H5  UNL     1       4.136   9.504  19.650  1.00  0.00     0.217 HD
ENDBRANCH   4  32
TORSDOF 7
ENDMDL