MODEL 4
REMARK VINA RESULT: -7.312282952      1.318      2.514
REMARK  10 active torsions:
REMARK  status: ('A' for Active; 'I' for Inactive)
REMARK    1  A    between atoms: C2_2  and  S1_3
REMARK    2  A    between atoms: S1_3  and  C3_4
REMARK    3  A    between atoms: C4_5  and  O1_6
REMARK    4  A    between atoms: C5_8  and  O2_9
REMARK    5  A    between atoms: C6_11  and  O3_12
REMARK    6  A    between atoms: C7_14  and  C8_15
REMARK    7  A    between atoms: C8_15  and  O4_16
REMARK    8  A    between atoms: C9_18  and  O5_19
REMARK    9  A    between atoms: O5_19  and  C10_20
REMARK   10  A    between atoms: C10_20  and  C11_22
ROOT
HETATM    1  C3  UNL     1       0.236  10.794  24.497  1.00  0.00     0.108 C
HETATM    2  C4  UNL     1      -1.059  11.442  24.259  1.00  0.00     0.165 C
HETATM    3  C5  UNL     1      -1.137  12.529  23.263  1.00  0.00     0.177 C
HETATM    4  C6  UNL     1       0.085  12.714  22.413  1.00  0.00     0.158 C
HETATM    5  C7  UNL     1       1.294  12.773  23.326  1.00  0.00     0.071 C
HETATM    6  C9  UNL     1       1.459  11.407  23.893  1.00  0.00     0.157 C
ENDROOT
BRANCH   6   7
HETATM    7  O5  UNL     1       2.643  11.158  24.566  1.00  0.00    -0.313 OA
BRANCH   7   8
HETATM    8  C10 UNL     1       3.905  11.038  24.089  1.00  0.00     0.271 C
HETATM    9  O6  UNL     1       4.416  12.148  23.825  1.00  0.00    -0.264 OA
BRANCH   8  10
HETATM   10  C11 UNL     1       4.650   9.772  23.882  1.00  0.00     0.062 C
HETATM   11  C12 UNL     1       6.142   9.996  23.831  1.00  0.00     0.030 C
HETATM   12  C13 UNL     1       4.247   9.078  22.641  1.00  0.00    -0.005 C
HETATM   13  C14 UNL     1       4.543   7.778  22.559  1.00  0.00    -0.086 C
HETATM   14  C15 UNL     1       4.141   7.073  21.312  1.00  0.00     0.043 C
HETATM   15  C16 UNL     1       5.236   7.024  23.621  1.00  0.00     0.033 C
HETATM   16  C17 UNL     1       5.010   7.553  24.998  1.00  0.00     0.006 C
HETATM   17  C18 UNL     1       4.276   8.858  25.039  1.00  0.00     0.024 C
ENDBRANCH   8  10
ENDBRANCH   7   8
ENDBRANCH   6   7
BRANCH   1  18
HETATM   18  S1  UNL     1       0.398  10.566  26.319  1.00  0.00    -0.159 SA
BRANCH  18  19
HETATM   19  C2  UNL     1       0.691   8.804  26.622  1.00  0.00     0.070 C
HETATM   20  C1  UNL     1       0.615   8.037  25.296  1.00  0.00     0.016 C
ENDBRANCH  18  19
ENDBRANCH   1  18
BRANCH   5  21
HETATM   21  C8  UNL     1       1.243  13.913  24.269  1.00  0.00     0.174 C
BRANCH  21  22
HETATM   22  O4  UNL     1       2.557  14.255  24.600  1.00  0.00    -0.400 OA
ATOM     23  H4  UNL     1       2.784  13.799  25.403  1.00  0.00     0.209 HD
ENDBRANCH  21  22
ENDBRANCH   5  21
BRANCH   2  24
HETATM   24  O1  UNL     1      -1.637  11.943  25.458  1.00  0.00    -0.392 OA
ATOM     25  H1  UNL     1      -2.582  12.016  25.397  1.00  0.00     0.210 HD
ENDBRANCH   2  24
BRANCH   4  26
HETATM   26  O3  UNL     1      -0.063  13.851  21.640  1.00  0.00    -0.392 OA
ATOM     27  H3  UNL     1      -0.793  14.362  21.971  1.00  0.00     0.210 HD
ENDBRANCH   4  26
BRANCH   3  28
HETATM   28  O2  UNL     1      -2.228  12.386  22.376  1.00  0.00    -0.390 OA
ATOM     29  H2  UNL     1      -2.776  11.638  22.581  1.00  0.00     0.210 HD
ENDBRANCH   3  28
TORSDOF 10
ENDMDL