MODEL 2
REMARK VINA RESULT: -7.095190030      2.129      3.257
REMARK  9 active torsions:
REMARK  status: ('A' for Active; 'I' for Inactive)
REMARK    1  A    between atoms: C4_4  and  O1_5
REMARK    2  A    between atoms: C6_8  and  O2_9
REMARK    3  A    between atoms: C7_11  and  O3_12
REMARK    4  A    between atoms: C10_16  and  O4_17
REMARK    5  A    between atoms: C11_19  and  C12_20
REMARK    6  A    between atoms: C13_21  and  C14_22
REMARK    7  A    between atoms: C14_22  and  C15_23
REMARK    8  A    between atoms: C15_23  and  S1_24
REMARK    9  A    between atoms: S1_24  and  C16_25
ROOT
HETATM    1  C1  UNL     1       4.266   6.833  20.372  1.00  0.00     0.012 C
HETATM    2  C2  UNL     1       4.127   7.473  21.733  1.00  0.00     0.013 C
HETATM    3  C3  UNL     1       4.958   6.809  22.779  1.00  0.00     0.039 C
HETATM    4  C4  UNL     1       5.050   7.903  23.852  1.00  0.00     0.133 C
HETATM    5  C5  UNL     1       5.367   9.107  22.975  1.00  0.00     0.047 C
HETATM    6  C6  UNL     1       4.584   8.917  21.728  1.00  0.00     0.136 C
HETATM    7  C7  UNL     1       6.856   9.122  22.782  1.00  0.00     0.138 C
HETATM    8  C8  UNL     1       7.300   9.924  24.011  1.00  0.00     0.041 C
HETATM    9  C9  UNL     1       8.743  10.323  23.913  1.00  0.00     0.015 C
HETATM   10  C10 UNL     1       6.354  11.095  23.918  1.00  0.00     0.133 C
HETATM   11  C11 UNL     1       5.013  10.355  23.747  1.00  0.00     0.053 C
ENDROOT
BRANCH  11  12
HETATM   12  C12 UNL     1       4.065  11.221  23.066  1.00  0.00    -0.022 C
HETATM   13  C13 UNL     1       2.923  11.674  23.526  1.00  0.00    -0.029 C
BRANCH  13  14
HETATM   14  C14 UNL     1       2.357  11.388  24.854  1.00  0.00     0.037 C
BRANCH  14  15
HETATM   15  C15 UNL     1       0.915  11.888  24.914  1.00  0.00     0.086 C
BRANCH  15  16
HETATM   16  S1  UNL     1      -0.247  10.570  24.680  1.00  0.00    -0.093 SA
BRANCH  16  17
HETATM   17  C16 UNL     1       0.247   8.997  25.335  1.00  0.00     0.145 A
HETATM   18  N1  UNL     1       0.503   7.924  24.523  1.00  0.00    -0.345 N
HETATM   19  C17 UNL     1       0.849   6.903  25.314  1.00  0.00     0.107 A
ATOM     20  H1  UNL     1       0.441   7.908  23.506  1.00  0.00     0.167 HD
HETATM   21  C18 UNL     1       0.826   7.286  26.633  1.00  0.00     0.109 A
HETATM   22  N2  UNL     1       0.444   8.602  26.598  1.00  0.00    -0.341 N
HETATM   23  C19 UNL     1       0.282   9.445  27.760  1.00  0.00     0.158 C
ENDBRANCH  16  17
ENDBRANCH  15  16
ENDBRANCH  14  15
ENDBRANCH  13  14
ENDBRANCH  11  12
BRANCH  10  24
HETATM   24  O4  UNL     1       6.528  11.823  22.745  1.00  0.00    -0.394 OA
ATOM     25  H4  UNL     1       7.275  12.409  22.790  1.00  0.00     0.210 HD
ENDBRANCH  10  24
BRANCH   4  26
HETATM   26  O1  UNL     1       3.869   8.027  24.539  1.00  0.00    -0.395 OA
ATOM     27  H1  UNL     1       3.933   8.686  25.220  1.00  0.00     0.210 HD
ENDBRANCH   4  26
BRANCH   6  28
HETATM   28  O2  UNL     1       5.252   9.238  20.565  1.00  0.00    -0.394 OA
ATOM     29  H2  UNL     1       5.508  10.152  20.546  1.00  0.00     0.210 HD
ENDBRANCH   6  28
BRANCH   7  30
HETATM   30  O3  UNL     1       7.272   9.832  21.674  1.00  0.00    -0.394 OA
ATOM     31  H3  UNL     1       8.143  10.203  21.757  1.00  0.00     0.210 HD
ENDBRANCH   7  30
TORSDOF 9
ENDMDL