MODEL 2
REMARK VINA RESULT: -7.072509443      0.770      1.047
REMARK  8 active torsions:
REMARK  status: ('A' for Active; 'I' for Inactive)
REMARK    1  A    between atoms: C2_2  and  C3_3
REMARK    2  A    between atoms: C3_3  and  C4_4
REMARK    3  A    between atoms: C13_14  and  O1_15
REMARK    4  A    between atoms: C14_17  and  C15_18
REMARK    5  A    between atoms: C15_18  and  O3_20
REMARK    6  A    between atoms: O3_20  and  C16_21
REMARK    7  A    between atoms: C18_23  and  O4_24
REMARK    8  A    between atoms: C18_23  and  C19_26
ROOT
HETATM    1  C4  UNL     1       1.501  11.289  24.864  1.00  0.00    -0.046 C
HETATM    2  C5  UNL     1       2.054  12.351  24.304  1.00  0.00    -0.062 C
HETATM    3  C6  UNL     1       1.274  13.658  24.225  1.00  0.00     0.045 C
HETATM    4  C7  UNL     1       3.394  12.426  23.704  1.00  0.00     0.088 C
HETATM    5  S1  UNL     1       4.387  13.547  24.752  1.00  0.00    -0.088 SA
HETATM    6  C8  UNL     1       4.068  11.102  23.519  1.00  0.00     0.029 C
HETATM    7  C9  UNL     1       3.667  10.049  24.467  1.00  0.00     0.046 C
HETATM    8  C10 UNL     1       2.266   9.999  24.919  1.00  0.00    -0.007 C
HETATM    9  C11 UNL     1       2.306   9.613  26.414  1.00  0.00     0.021 C
HETATM   10  C12 UNL     1       1.365   9.047  24.163  1.00  0.00     0.047 C
HETATM   11  C13 UNL     1       1.995   7.852  23.573  1.00  0.00     0.136 C
HETATM   12  C14 UNL     1       3.287   8.171  22.828  1.00  0.00     0.160 C
HETATM   13  C18 UNL     1       4.179   8.732  23.918  1.00  0.00     0.165 C
ENDROOT
BRANCH  12  14
HETATM   14  C15 UNL     1       3.876   6.884  22.389  1.00  0.00     0.269 C
HETATM   15  O2  UNL     1       3.869   5.901  23.172  1.00  0.00    -0.265 OA
BRANCH  14  16
HETATM   16  O3  UNL     1       4.442   6.700  21.140  1.00  0.00    -0.321 OA
BRANCH  16  17
HETATM   17  C16 UNL     1       3.817   5.980  20.093  1.00  0.00     0.174 C
HETATM   18  C17 UNL     1       4.094   6.585  18.734  1.00  0.00     0.034 C
ENDBRANCH  16  17
ENDBRANCH  14  16
ENDBRANCH  12  14
BRANCH  11  19
HETATM   19  O1  UNL     1       1.101   7.247  22.715  1.00  0.00    -0.395 OA
ATOM     20  H1  UNL     1       0.235   7.611  22.862  1.00  0.00     0.210 HD
ENDBRANCH  11  19
BRANCH  13  21
HETATM   21  O4  UNL     1       4.162   7.737  24.911  1.00  0.00    -0.377 OA
ATOM     22  H4  UNL     1       3.797   6.928  24.571  1.00  0.00     0.211 HD
ENDBRANCH  13  21
BRANCH  13  23
HETATM   23  C19 UNL     1       5.580   8.891  23.511  1.00  0.00     0.210 C
HETATM   24  O5  UNL     1       6.495   8.614  24.369  1.00  0.00    -0.646 OA
HETATM   25  O6  UNL     1       6.045   9.311  22.279  1.00  0.00    -0.646 OA
ENDBRANCH  13  23
BRANCH   1  26
HETATM   26  C3  UNL     1       0.145  11.460  25.377  1.00  0.00     0.007 C
BRANCH  26  27
HETATM   27  C2  UNL     1      -1.014  11.028  24.668  1.00  0.00    -0.010 C
HETATM   28  C1  UNL     1      -1.612  11.825  23.793  1.00  0.00     0.011 C
ENDBRANCH  26  27
ENDBRANCH   1  26
TORSDOF 8
ENDMDL