MODEL 4
REMARK VINA RESULT: -7.832736938      1.765      2.512
REMARK  8 active torsions:
REMARK  status: ('A' for Active; 'I' for Inactive)
REMARK    1  A    between atoms: C2_2  and  C3_3
REMARK    2  A    between atoms: C2_2  and  C6_8
REMARK    3  A    between atoms: C3_3  and  C4_4
REMARK    4  A    between atoms: C4_4  and  C5_5
REMARK    5  A    between atoms: C8_10  and  O3_11
REMARK    6  A    between atoms: C10_15  and  C11_16
REMARK    7  A    between atoms: C11_16  and  O5_18
REMARK    8  A    between atoms: C11_16  and  O6_20
ROOT
HETATM    1  C6  UNL     1       4.721  11.637  24.090  1.00  0.00    -0.006 C
HETATM    2  C7  UNL     1       3.831  11.265  22.951  1.00  0.00     0.040 C
HETATM    3  C8  UNL     1       3.251   9.888  23.285  1.00  0.00     0.157 C
HETATM    4  C9  UNL     1       4.296   8.835  23.487  1.00  0.00     0.130 C
HETATM    5  O4  UNL     1       4.069   7.985  24.529  1.00  0.00    -0.363 OA
HETATM    6  C10 UNL     1       3.020   7.144  24.451  1.00  0.00     0.184 C
HETATM    7  C13 UNL     1       2.821   6.388  23.180  1.00  0.00     0.039 C
HETATM    8  C14 UNL     1       3.175   7.231  21.943  1.00  0.00     0.025 C
HETATM    9  C15 UNL     1       4.421   7.918  22.257  1.00  0.00     0.081 C
HETATM   10  C16 UNL     1       5.494   6.884  22.547  1.00  0.00     0.029 C
HETATM   11  C17 UNL     1       4.979   8.868  21.298  1.00  0.00     0.271 C
HETATM   12  O7  UNL     1       4.661   9.006  20.105  1.00  0.00    -0.264 OA
HETATM   13  O8  UNL     1       5.951   9.579  22.039  1.00  0.00    -0.312 OA
HETATM   14  C18 UNL     1       5.685   9.417  23.443  1.00  0.00     0.170 C
HETATM   15  C19 UNL     1       5.870  10.687  24.200  1.00  0.00     0.041 C
ENDROOT
BRANCH   1  16
HETATM   16  C2  UNL     1       5.142  13.099  24.069  1.00  0.00    -0.014 C
HETATM   17  C1  UNL     1       6.637  13.240  24.253  1.00  0.00     0.010 C
BRANCH  16  18
HETATM   18  C3  UNL     1       4.467  13.791  25.195  1.00  0.00     0.015 C
BRANCH  18  19
HETATM   19  C4  UNL     1       4.240  15.253  25.036  1.00  0.00     0.113 C
BRANCH  19  20
HETATM   20  C5  UNL     1       4.896  16.066  26.060  1.00  0.00     0.172 C
HETATM   21  O1  UNL     1       4.306  16.806  26.873  1.00  0.00    -0.648 OA
HETATM   22  O2  UNL     1       6.299  16.012  26.135  1.00  0.00    -0.648 OA
ENDBRANCH  19  20
ENDBRANCH  18  19
ENDBRANCH  16  18
ENDBRANCH   1  16
BRANCH   3  23
HETATM   23  O3  UNL     1       2.522  10.127  24.477  1.00  0.00    -0.392 OA
ATOM     24  H3  UNL     1       3.037  10.794  24.914  1.00  0.00     0.210 HD
ENDBRANCH   3  23
BRANCH   6  25
HETATM   25  C11 UNL     1       3.068   6.188  25.619  1.00  0.00     0.182 C
HETATM   26  C12 UNL     1       4.482   5.781  25.969  1.00  0.00     0.081 C
BRANCH  25  27
HETATM   27  O5  UNL     1       2.511   6.714  26.783  1.00  0.00    -0.364 OA
ATOM     28  H5  UNL     1       2.206   6.047  27.387  1.00  0.00     0.213 HD
ENDBRANCH  25  27
BRANCH  25  29
HETATM   29  O6  UNL     1       2.371   5.003  25.349  1.00  0.00    -0.364 OA
ATOM     30  H6  UNL     1       2.088   4.571  26.146  1.00  0.00     0.213 HD
ENDBRANCH  25  29
ENDBRANCH   6  25
TORSDOF 8
ENDMDL