MODEL 5
REMARK VINA RESULT: -7.116004954      1.915      2.618
REMARK  9 active torsions:
REMARK  status: ('A' for Active; 'I' for Inactive)
REMARK    1  A    between atoms: C2_2  and  C3_3
REMARK    2  A    between atoms: C4_5  and  C6_7
REMARK    3  A    between atoms: C6_7  and  C7_8
REMARK    4  A    between atoms: C8_9  and  C9_10
REMARK    5  A    between atoms: C14_17  and  O3_18
REMARK    6  A    between atoms: C14_17  and  C15_20
REMARK    7  A    between atoms: C15_20  and  O4_23
REMARK    8  A    between atoms: C18_25  and  O5_26
REMARK    9  A    between atoms: C19_28  and  O6_29
ROOT
HETATM    1  C6  UNL     1       3.892   8.953  24.397  1.00  0.00     0.144 C
HETATM    2  O2  UNL     1       3.379   8.466  23.202  1.00  0.00    -0.329 OA
HETATM    3  C14 UNL     1       4.364   8.431  22.269  1.00  0.00     0.223 C
HETATM    4  C18 UNL     1       5.692   8.477  22.942  1.00  0.00     0.215 C
HETATM    5  C19 UNL     1       5.370   8.685  24.381  1.00  0.00     0.194 C
ENDROOT
BRANCH   1   6
HETATM    6  C4  UNL     1       3.188   8.229  25.518  1.00  0.00     0.125 A
HETATM    7  C3  UNL     1       1.936   7.487  25.113  1.00  0.00     0.182 A
HETATM    8  O1  UNL     1       3.118   6.840  25.486  1.00  0.00    -0.362 OA
HETATM    9  C5  UNL     1       3.051   8.933  26.847  1.00  0.00     0.053 C
BRANCH   7  10
HETATM   10  C2  UNL     1       0.815   7.363  26.070  1.00  0.00    -0.002 C
HETATM   11  C1  UNL     1       0.170   6.232  26.179  1.00  0.00     0.009 C
ENDBRANCH   7  10
ENDBRANCH   1   6
BRANCH   1  12
HETATM   12  C7  UNL     1       3.545  10.390  24.520  1.00  0.00     0.018 C
HETATM   13  C8  UNL     1       4.413  11.366  24.504  1.00  0.00     0.011 C
BRANCH  13  14
HETATM   14  C9  UNL     1       4.022  12.804  24.629  1.00  0.00    -0.029 A
HETATM   15  C10 UNL     1       2.724  13.174  24.378  1.00  0.00     0.061 A
HETATM   16  S1  UNL     1       2.735  14.860  24.635  1.00  0.00    -0.106 SA
HETATM   17  C11 UNL     1       4.366  15.065  25.051  1.00  0.00    -0.021 A
HETATM   18  C12 UNL     1       5.036  16.353  25.405  1.00  0.00     0.056 C
HETATM   19  C13 UNL     1       4.871  13.806  24.981  1.00  0.00     0.026 A
ENDBRANCH  13  14
ENDBRANCH   1  12
BRANCH   5  20
HETATM   20  O6  UNL     1       5.725   7.558  25.109  1.00  0.00    -0.389 OA
ATOM     21  H6  UNL     1       6.227   7.762  25.890  1.00  0.00     0.210 HD
ENDBRANCH   5  20
BRANCH   3  22
HETATM   22  O3  UNL     1       4.194   9.421  21.296  1.00  0.00    -0.361 OA
ATOM     23  H3  UNL     1       4.831   9.342  20.596  1.00  0.00     0.213 HD
ENDBRANCH   3  22
BRANCH   3  24
HETATM   24  C15 UNL     1       4.273   7.098  21.516  1.00  0.00     0.109 C
HETATM   25  C16 UNL     1       2.954   6.411  21.816  1.00  0.00     0.051 C
HETATM   26  C17 UNL     1       4.461   7.324  20.041  1.00  0.00     0.051 C
BRANCH  24  27
HETATM   27  O4  UNL     1       5.319   6.307  21.979  1.00  0.00    -0.385 OA
ATOM     28  H4  UNL     1       5.780   5.989  21.212  1.00  0.00     0.210 HD
ENDBRANCH  24  27
ENDBRANCH   3  24
BRANCH   4  29
HETATM   29  O5  UNL     1       6.498   9.491  22.422  1.00  0.00    -0.387 OA
ATOM     30  H5  UNL     1       6.691  10.154  23.075  1.00  0.00     0.210 HD
ENDBRANCH   4  29
TORSDOF 9
ENDMDL