MODEL 2
REMARK VINA RESULT: -8.880979368      1.593      2.945
REMARK  11 active torsions:
REMARK  status: ('A' for Active; 'I' for Inactive)
REMARK    1  A    between atoms: C2_2  and  C3_3
REMARK    2  A    between atoms: C4_4  and  C5_5
REMARK    3  A    between atoms: C12_12  and  C13_13
REMARK    4  A    between atoms: C13_13  and  C14_14
REMARK    5  A    between atoms: C14_14  and  O2_16
REMARK    6  A    between atoms: O2_16  and  C15_17
REMARK    7  A    between atoms: C16_18  and  O3_19
REMARK    8  A    between atoms: C17_21  and  O4_22
REMARK    9  A    between atoms: C18_25  and  C19_26
REMARK   10  A    between atoms: C19_26  and  O6_27
REMARK   11  A    between atoms: C20_29  and  O7_30
ROOT
HETATM    1  O2  UNL     1       1.360  11.532  23.879  1.00  0.00    -0.310 OA
ENDROOT
BRANCH   1   2
HETATM    2  C14 UNL     1       1.462  12.863  23.646  1.00  0.00     0.262 C
HETATM    3  O1  UNL     1       0.748  13.424  22.821  1.00  0.00    -0.265 OA
BRANCH   2   4
HETATM    4  C13 UNL     1       2.482  13.653  24.432  1.00  0.00     0.138 C
BRANCH   4   5
HETATM    5  C12 UNL     1       3.819  13.154  24.248  1.00  0.00    -0.010 C
HETATM    6  C2  UNL     1       4.957  13.818  24.566  1.00  0.00    -0.066 C
HETATM    7  C1  UNL     1       4.862  15.153  25.139  1.00  0.00     0.048 C
BRANCH   6   8
HETATM    8  C3  UNL     1       6.180  13.122  24.295  1.00  0.00     0.003 C
HETATM    9  C4  UNL     1       6.553  12.020  23.842  1.00  0.00    -0.021 C
BRANCH   9  10
HETATM   10  C5  UNL     1       6.074  10.795  23.325  1.00  0.00     0.016 C
HETATM   11  C6  UNL     1       4.850  10.094  23.685  1.00  0.00     0.009 C
HETATM   12  C7  UNL     1       4.922   8.870  22.733  1.00  0.00     0.001 C
HETATM   13  C8  UNL     1       6.391   8.473  22.907  1.00  0.00     0.009 C
HETATM   14  C9  UNL     1       7.113   9.646  23.485  1.00  0.00    -0.041 C
HETATM   15  C10 UNL     1       7.445   9.415  24.921  1.00  0.00     0.015 C
HETATM   16  C11 UNL     1       8.338  10.043  22.713  1.00  0.00     0.015 C
ENDBRANCH   9  10
ENDBRANCH   6   8
ENDBRANCH   4   5
ENDBRANCH   2   4
ENDBRANCH   1   2
BRANCH   1  17
HETATM   17  C15 UNL     1       0.232  10.880  24.420  1.00  0.00     0.196 C
HETATM   18  C16 UNL     1       0.678   9.463  24.737  1.00  0.00     0.205 C
HETATM   19  C17 UNL     1       1.575   9.526  25.925  1.00  0.00     0.288 C
HETATM   20  O5  UNL     1       0.939   9.943  27.065  1.00  0.00    -0.349 OA
HETATM   21  C18 UNL     1      -0.300  10.455  26.768  1.00  0.00     0.179 C
HETATM   22  C20 UNL     1      -0.278  11.504  25.674  1.00  0.00     0.181 C
BRANCH  18  23
HETATM   23  O3  UNL     1       1.463   9.009  23.655  1.00  0.00    -0.388 OA
ATOM     24  H3  UNL     1       2.362   8.951  23.955  1.00  0.00     0.210 HD
ENDBRANCH  18  23
BRANCH  19  25
HETATM   25  O4  UNL     1       2.222   8.320  26.186  1.00  0.00    -0.369 OA
ATOM     26  H4  UNL     1       2.695   7.982  25.435  1.00  0.00     0.212 HD
ENDBRANCH  19  25
BRANCH  21  27
HETATM   27  C19 UNL     1      -0.924  11.004  28.043  1.00  0.00     0.198 C
BRANCH  27  28
HETATM   28  O6  UNL     1      -2.305  10.904  28.024  1.00  0.00    -0.398 OA
ATOM     29  H6  UNL     1      -2.711  11.520  28.622  1.00  0.00     0.209 HD
ENDBRANCH  27  28
ENDBRANCH  21  27
BRANCH  22  30
HETATM   30  O7  UNL     1      -1.629  11.896  25.516  1.00  0.00    -0.390 OA
ATOM     31  H7  UNL     1      -1.981  12.212  26.340  1.00  0.00     0.210 HD
ENDBRANCH  22  30
ENDBRANCH   1  17
TORSDOF 11
ENDMDL