MODEL 3
REMARK VINA RESULT: -7.758801902      1.469      4.929
REMARK  9 active torsions:
REMARK  status: ('A' for Active; 'I' for Inactive)
REMARK    1  A    between atoms: C3_4  and  O2_5
REMARK    2  A    between atoms: O2_5  and  C4_6
REMARK    3  A    between atoms: C5_8  and  C6_9
REMARK    4  A    between atoms: C6_9  and  O4_10
REMARK    5  A    between atoms: C7_12  and  O5_13
REMARK    6  A    between atoms: C8_15  and  C9_16
REMARK    7  A    between atoms: C9_16  and  C10_17
REMARK    8  A    between atoms: C18_25  and  O6_26
REMARK    9  A    between atoms: C19_28  and  O7_29
ROOT
HETATM    1  C4  UNL     1       1.317  11.632  24.976  1.00  0.00     0.270 C
HETATM    2  O3  UNL     1       0.679  11.303  23.778  1.00  0.00    -0.351 OA
HETATM    3  C5  UNL     1       0.468  12.498  23.142  1.00  0.00     0.177 C
HETATM    4  C7  UNL     1       1.444  13.524  23.727  1.00  0.00     0.158 C
HETATM    5  C8  UNL     1       2.351  12.560  24.529  1.00  0.00     0.073 C
ENDROOT
BRANCH   1   6
HETATM    6  O2  UNL     1       1.590  10.602  25.789  1.00  0.00    -0.328 OA
BRANCH   6   7
HETATM    7  C3  UNL     1       0.473   9.948  26.304  1.00  0.00     0.294 C
HETATM    8  O1  UNL     1       0.328   8.780  25.571  1.00  0.00    -0.351 OA
HETATM    9  C2  UNL     1       1.091   7.805  26.183  1.00  0.00     0.152 C
HETATM   10  C1  UNL     1       0.270   6.527  26.185  1.00  0.00     0.042 C
HETATM   11  C19 UNL     1       1.493   8.255  27.539  1.00  0.00     0.180 C
HETATM   12  C18 UNL     1       0.754   9.560  27.716  1.00  0.00     0.204 C
BRANCH  11  13
HETATM   13  O7  UNL     1       1.110   7.348  28.536  1.00  0.00    -0.390 OA
ATOM     14  H7  UNL     1       1.433   6.470  28.369  1.00  0.00     0.210 HD
ENDBRANCH  11  13
BRANCH  12  15
HETATM   15  O6  UNL     1      -0.419   9.267  28.409  1.00  0.00    -0.388 OA
ATOM     16  H6  UNL     1      -1.180   9.318  27.843  1.00  0.00     0.210 HD
ENDBRANCH  12  15
ENDBRANCH   6   7
ENDBRANCH   1   6
BRANCH   5  17
HETATM   17  C9  UNL     1       3.444  12.167  23.675  1.00  0.00     0.020 C
BRANCH  17  18
HETATM   18  C10 UNL     1       4.669  11.517  24.171  1.00  0.00     0.008 C
HETATM   19  C11 UNL     1       4.668  10.021  24.040  1.00  0.00    -0.026 C
HETATM   20  C12 UNL     1       4.691   9.363  22.772  1.00  0.00    -0.030 C
HETATM   21  C13 UNL     1       5.300   9.923  21.554  1.00  0.00     0.027 C
HETATM   22  C14 UNL     1       6.749  10.251  21.578  1.00  0.00     0.004 C
HETATM   23  C15 UNL     1       7.439  10.197  22.889  1.00  0.00     0.000 C
HETATM   24  C16 UNL     1       7.145  11.298  23.830  1.00  0.00     0.001 C
HETATM   25  C17 UNL     1       5.928  12.126  23.536  1.00  0.00     0.008 C
ENDBRANCH  17  18
ENDBRANCH   5  17
BRANCH   3  26
HETATM   26  C6  UNL     1      -0.960  12.982  23.277  1.00  0.00     0.198 C
BRANCH  26  27
HETATM   27  O4  UNL     1      -1.879  11.970  23.159  1.00  0.00    -0.398 OA
ATOM     28  H4  UNL     1      -1.489  11.149  22.882  1.00  0.00     0.209 HD
ENDBRANCH  26  27
ENDBRANCH   3  26
BRANCH   4  29
HETATM   29  O5  UNL     1       0.758  14.317  24.616  1.00  0.00    -0.392 OA
ATOM     30  H5  UNL     1       0.589  15.155  24.203  1.00  0.00     0.210 HD
ENDBRANCH   4  29
TORSDOF 9
ENDMDL