MODEL 3
REMARK VINA RESULT: -6.755266808      1.299      1.597
REMARK  8 active torsions:
REMARK  status: ('A' for Active; 'I' for Inactive)
REMARK    1  A    between atoms: C2_2  and  C3_3
REMARK    2  A    between atoms: C3_3  and  O1_4
REMARK    3  A    between atoms: O1_4  and  C4_5
REMARK    4  A    between atoms: C5_6  and  C6_7
REMARK    5  A    between atoms: C7_9  and  C8_10
REMARK    6  A    between atoms: C11_15  and  O4_16
REMARK    7  A    between atoms: C15_21  and  O5_22
REMARK    8  A    between atoms: C16_25  and  O7_26
ROOT
HETATM    1  C4  UNL     1       3.465   9.030  24.433  1.00  0.00     0.153 C
HETATM    2  C5  UNL     1       3.721  10.468  24.132  1.00  0.00     0.055 C
HETATM    3  C7  UNL     1       4.615  10.743  22.970  1.00  0.00     0.131 C
HETATM    4  O2  UNL     1       4.472   9.838  21.935  1.00  0.00    -0.354 OA
HETATM    5  C10 UNL     1       4.694   8.536  22.270  1.00  0.00     0.286 C
HETATM    6  O3  UNL     1       4.358   7.765  21.173  1.00  0.00    -0.318 OA
HETATM    7  C11 UNL     1       3.738   6.613  21.643  1.00  0.00     0.227 C
HETATM    8  C12 UNL     1       4.847   5.633  21.958  1.00  0.00     0.055 C
HETATM    9  C13 UNL     1       4.375   4.203  21.929  1.00  0.00     0.016 C
HETATM   10  C14 UNL     1       5.459   6.025  23.261  1.00  0.00     0.079 C
HETATM   11  C15 UNL     1       4.494   6.809  24.110  1.00  0.00     0.186 C
HETATM   12  O6  UNL     1       3.247   6.201  23.976  1.00  0.00    -0.311 OA
HETATM   13  C16 UNL     1       3.004   7.036  22.914  1.00  0.00     0.243 C
HETATM   14  C17 UNL     1       3.973   8.043  23.460  1.00  0.00     0.153 C
ENDROOT
BRANCH   1  15
HETATM   15  O1  UNL     1       2.079   8.912  24.663  1.00  0.00    -0.380 OA
BRANCH  15  16
HETATM   16  C3  UNL     1       1.786   8.628  25.991  1.00  0.00     0.194 C
BRANCH  16  17
HETATM   17  C2  UNL     1       0.525   7.857  26.126  1.00  0.00    -0.011 C
HETATM   18  C1  UNL     1       0.478   6.558  25.921  1.00  0.00     0.009 C
ENDBRANCH  16  17
ENDBRANCH  15  16
ENDBRANCH   1  15
BRANCH   2  19
HETATM   19  C6  UNL     1       2.412  11.239  23.903  1.00  0.00     0.096 C
HETATM   20  S1  UNL     1       2.645  12.997  24.255  1.00  0.00    -0.097 SA
ENDBRANCH   2  19
BRANCH   3  21
HETATM   21  C8  UNL     1       6.086  10.865  23.395  1.00  0.00     0.028 C
HETATM   22  C9  UNL     1       6.318  12.304  23.785  1.00  0.00     0.007 C
ENDBRANCH   3  21
BRANCH  11  23
HETATM   23  O5  UNL     1       4.906   6.890  25.417  1.00  0.00    -0.364 OA
ATOM     24  H5  UNL     1       5.851   6.955  25.489  1.00  0.00     0.213 HD
ENDBRANCH  11  23
BRANCH  13  25
HETATM   25  O7  UNL     1       1.710   7.458  22.728  1.00  0.00    -0.360 OA
ATOM     26  H7  UNL     1       1.198   6.935  22.122  1.00  0.00     0.213 HD
ENDBRANCH  13  25
BRANCH   7  27
HETATM   27  O4  UNL     1       2.886   6.045  20.716  1.00  0.00    -0.361 OA
ATOM     28  H4  UNL     1       2.013   6.420  20.738  1.00  0.00     0.213 HD
ENDBRANCH   7  27
TORSDOF 8
ENDMDL