MODEL 5
REMARK VINA RESULT: -7.348175177      0.684      1.079
REMARK  9 active torsions:
REMARK  status: ('A' for Active; 'I' for Inactive)
REMARK    1  A    between atoms: C5_5  and  O1_6
REMARK    2  A    between atoms: C8_10  and  O2_11
REMARK    3  A    between atoms: C9_13  and  O3_14
REMARK    4  A    between atoms: O3_14  and  C10_15
REMARK    5  A    between atoms: C10_15  and  C11_16
REMARK    6  A    between atoms: C11_16  and  C12_17
REMARK    7  A    between atoms: C12_17  and  C13_18
REMARK    8  A    between atoms: C13_18  and  O4_19
REMARK    9  A    between atoms: C18_28  and  O7_29
ROOT
HETATM    1  C1  UNL     1       2.261   9.276  26.775  1.00  0.00     0.018 C
HETATM    2  C2  UNL     1       1.464   9.468  25.512  1.00  0.00    -0.009 C
HETATM    3  C3  UNL     1       0.554   8.219  25.436  1.00  0.00     0.018 C
HETATM    4  C4  UNL     1       0.479  10.583  25.812  1.00  0.00     0.044 C
HETATM    5  C5  UNL     1      -0.081  11.160  24.561  1.00  0.00     0.119 C
HETATM    6  C6  UNL     1       1.059  11.856  23.856  1.00  0.00     0.042 C
HETATM    7  C7  UNL     1       2.248  11.005  23.649  1.00  0.00     0.060 C
HETATM    8  C8  UNL     1       3.486  11.807  23.993  1.00  0.00     0.158 C
HETATM    9  C9  UNL     1       4.651  11.046  23.388  1.00  0.00     0.174 C
HETATM   10  C16 UNL     1       4.682   9.720  24.004  1.00  0.00     0.030 C
HETATM   11  C17 UNL     1       3.604   9.091  24.395  1.00  0.00     0.046 C
HETATM   12 CL1  UNL     1       3.774   7.494  25.121  1.00  0.00    -0.086 Cl
HETATM   13  C18 UNL     1       2.221   9.644  24.262  1.00  0.00     0.108 C
ENDROOT
BRANCH   9  14
HETATM   14  O3  UNL     1       5.797  11.754  23.330  1.00  0.00    -0.379 OA
BRANCH  14  15
HETATM   15  C10 UNL     1       6.967  11.227  23.724  1.00  0.00     0.169 C
BRANCH  15  16
HETATM   16  C11 UNL     1       7.981  12.279  24.077  1.00  0.00     0.034 C
BRANCH  16  17
HETATM   17  C12 UNL     1       7.418  13.613  24.446  1.00  0.00     0.104 C
BRANCH  17  18
HETATM   18  C13 UNL     1       8.353  14.186  25.520  1.00  0.00     0.280 C
HETATM   19  O5  UNL     1       9.502  13.383  25.556  1.00  0.00    -0.331 OA
HETATM   20  C14 UNL     1      10.371  14.153  26.319  1.00  0.00     0.200 C
HETATM   21  C15 UNL     1       9.917  15.574  26.070  1.00  0.00     0.200 C
HETATM   22  O6  UNL     1       8.852  15.420  25.159  1.00  0.00    -0.331 OA
BRANCH  18  23
HETATM   23  O4  UNL     1       7.775  14.156  26.767  1.00  0.00    -0.343 OA
ATOM     24  H4  UNL     1       7.942  14.956  27.252  1.00  0.00     0.215 HD
ENDBRANCH  18  23
ENDBRANCH  17  18
ENDBRANCH  16  17
ENDBRANCH  15  16
ENDBRANCH  14  15
ENDBRANCH   9  14
BRANCH   8  25
HETATM   25  O2  UNL     1       3.541  12.019  25.327  1.00  0.00    -0.392 OA
ATOM     26  H2  UNL     1       3.003  12.767  25.558  1.00  0.00     0.210 HD
ENDBRANCH   8  25
BRANCH  13  27
HETATM   27  O7  UNL     1       1.631   8.787  23.289  1.00  0.00    -0.383 OA
ATOM     28  H7  UNL     1       1.622   9.262  22.466  1.00  0.00     0.211 HD
ENDBRANCH  13  27
BRANCH   5  29
HETATM   29  O1  UNL     1      -0.785  10.292  23.773  1.00  0.00    -0.396 OA
ATOM     30  H1  UNL     1      -0.325   9.970  23.006  1.00  0.00     0.210 HD
ENDBRANCH   5  29
TORSDOF 9
ENDMDL