MODEL 3
REMARK VINA RESULT: -9.078378620      1.074      1.367
REMARK  7 active torsions:
REMARK  status: ('A' for Active; 'I' for Inactive)
REMARK    1  A    between atoms: C2_2  and  N1_3
REMARK       I    between atoms: N1_3  and  C3_5
REMARK       I    between atoms: C3_5  and  N2_7
REMARK    2  A    between atoms: N2_7  and  C4_9
REMARK    3  A    between atoms: C7_12  and  N3_13
REMARK    4  A    between atoms: N3_13  and  C8_15
REMARK    5  A    between atoms: C9_18  and  O2_19
REMARK    6  A    between atoms: O2_19  and  C10_20
REMARK    7  A    between atoms: C13_23  and  O3_24
ROOT
HETATM    1  C8  UNL     1       4.650  13.082  24.577  1.00  0.00     0.164 A
HETATM    2  N4  UNL     1       3.454  12.587  24.861  1.00  0.00    -0.301 N
ATOM      3  H4  UNL     1       2.724  13.194  25.235  1.00  0.00     0.171 HD
HETATM    4  C9  UNL     1       3.217  11.332  24.662  1.00  0.00     0.232 A
HETATM    5  N5  UNL     1       4.209  10.575  24.170  1.00  0.00    -0.289 N
ATOM      6  H5  UNL     1       4.208   9.579  23.952  1.00  0.00     0.178 HD
HETATM    7  S1  UNL     1       5.459  11.692  24.005  1.00  0.00     0.025 SA
ENDROOT
BRANCH   1   8
HETATM    8  N3  UNL     1       5.024  14.321  24.725  1.00  0.00    -0.365 N
ATOM      9  H3  UNL     1       4.406  15.058  24.387  1.00  0.00     0.162 HD
BRANCH   8  10
HETATM   10  C7  UNL     1       6.258  14.697  25.337  1.00  0.00     0.083 C
HETATM   11  C6  UNL     1       6.400  14.285  26.780  1.00  0.00     0.027 C
HETATM   12  C5  UNL     1       7.614  14.994  27.337  1.00  0.00     0.027 C
HETATM   13  C4  UNL     1       8.826  14.704  26.520  1.00  0.00     0.086 C
HETATM   14  C17 UNL     1       8.499  13.691  25.459  1.00  0.00     0.027 C
HETATM   15  C16 UNL     1       7.397  14.151  24.536  1.00  0.00     0.027 C
BRANCH  13  16
HETATM   16  N2  UNL     1       9.911  14.219  27.340  1.00  0.00    -0.339 N
HETATM   17  C3  UNL     1      11.209  14.752  27.285  1.00  0.00     0.316 C
HETATM   18  N1  UNL     1      12.249  14.239  28.115  1.00  0.00    -0.343 N
HETATM   19  O1  UNL     1      11.492  15.693  26.507  1.00  0.00    -0.247 OA
ATOM     20  H1  UNL     1      12.041  13.473  28.755  1.00  0.00     0.164 HD
ATOM     21  H2  UNL     1       9.726  13.455  27.989  1.00  0.00     0.164 HD
BRANCH  18  22
HETATM   22  C2  UNL     1      13.593  14.778  28.072  1.00  0.00     0.120 C
HETATM   23  C1  UNL     1      14.357  14.333  26.846  1.00  0.00     0.026 C
ENDBRANCH  18  22
ENDBRANCH  13  16
ENDBRANCH   8  10
ENDBRANCH   1   8
BRANCH   4  24
HETATM   24  O2  UNL     1       1.965  10.729  24.941  1.00  0.00    -0.316 OA
BRANCH  24  25
HETATM   25  C10 UNL     1       0.793  11.405  24.627  1.00  0.00     0.135 C
HETATM   26  C11 UNL     1      -0.449  10.541  24.829  1.00  0.00     0.035 C
HETATM   27  C12 UNL     1      -1.653  11.381  24.551  1.00  0.00     0.037 C
HETATM   28  C13 UNL     1      -1.611  11.918  23.136  1.00  0.00     0.152 C
HETATM   29  C14 UNL     1      -0.373  12.799  23.002  1.00  0.00     0.201 C
HETATM   30  F1  UNL     1      -0.366  13.373  21.747  1.00  0.00    -0.247 F
HETATM   31  C15 UNL     1       0.820  11.880  23.165  1.00  0.00     0.072 C
BRANCH  28  32
HETATM   32  O3  UNL     1      -2.711  12.695  22.865  1.00  0.00    -0.393 OA
ATOM     33  H3  UNL     1      -2.527  13.615  23.011  1.00  0.00     0.210 HD
ENDBRANCH  28  32
ENDBRANCH  24  25
ENDBRANCH   4  24
TORSDOF 7
ENDMDL