MODEL 3
REMARK VINA RESULT: -7.623591423      4.024      6.882
REMARK  9 active torsions:
REMARK  status: ('A' for Active; 'I' for Inactive)
REMARK    1  A    between atoms: C2_2  and  C3_3
REMARK    2  A    between atoms: C3_3  and  N1_4
REMARK    3  A    between atoms: C5_6  and  C6_7
REMARK    4  A    between atoms: C7_9  and  C8_10
REMARK    5  A    between atoms: C8_10  and  O2_11
REMARK    6  A    between atoms: C9_13  and  O3_14
REMARK    7  A    between atoms: C10_16  and  O4_17
REMARK    8  A    between atoms: C11_19  and  O5_20
REMARK    9  A    between atoms: C12_22  and  C13_23
ROOT
HETATM    1  N1  UNL     1      -0.302  10.024  24.625  1.00  0.00    -0.302 N
HETATM    2  C4  UNL     1       0.624   9.510  23.759  1.00  0.00     0.122 A
HETATM    3  C5  UNL     1       1.491   8.694  24.439  1.00  0.00     0.015 A
HETATM    4  C12 UNL     1       1.069   8.725  25.742  1.00  0.00     0.040 A
HETATM    5  N2  UNL     1      -0.017   9.544  25.800  1.00  0.00    -0.302 N
ATOM      6  H2  UNL     1      -0.539   9.753  26.651  1.00  0.00     0.186 HD
ENDROOT
BRANCH   3   7
HETATM    7  C6  UNL     1       2.680   7.921  23.924  1.00  0.00     0.190 C
HETATM    8  O1  UNL     1       3.193   8.713  22.899  1.00  0.00    -0.368 OA
HETATM    9  C7  UNL     1       4.227   8.169  22.194  1.00  0.00     0.177 C
HETATM   10  C9  UNL     1       3.773   6.963  21.423  1.00  0.00     0.180 C
HETATM   11  C10 UNL     1       2.478   6.391  21.948  1.00  0.00     0.181 C
HETATM   12  C11 UNL     1       2.345   6.560  23.442  1.00  0.00     0.183 C
BRANCH   9  13
HETATM   13  C8  UNL     1       4.644   9.254  21.184  1.00  0.00     0.198 C
BRANCH  13  14
HETATM   14  O2  UNL     1       4.276   8.698  19.933  1.00  0.00    -0.398 OA
ATOM     15  H2  UNL     1       5.086   8.317  19.613  1.00  0.00     0.209 HD
ENDBRANCH  13  14
ENDBRANCH   9  13
BRANCH  10  16
HETATM   16  O3  UNL     1       4.797   6.018  21.432  1.00  0.00    -0.390 OA
ATOM     17  H3  UNL     1       4.739   5.501  20.637  1.00  0.00     0.210 HD
ENDBRANCH  10  16
BRANCH  11  18
HETATM   18  O4  UNL     1       2.504   5.024  21.686  1.00  0.00    -0.390 OA
ATOM     19  H4  UNL     1       3.411   4.747  21.751  1.00  0.00     0.210 HD
ENDBRANCH  11  18
BRANCH  12  20
HETATM   20  O5  UNL     1       3.132   5.606  24.127  1.00  0.00    -0.390 OA
ATOM     21  H5  UNL     1       3.926   5.435  23.635  1.00  0.00     0.210 HD
ENDBRANCH  12  20
ENDBRANCH   3   7
BRANCH   4  22
HETATM   22  C13 UNL     1       1.613   8.036  26.937  1.00  0.00     0.038 C
HETATM   23  C14 UNL     1       2.890   8.715  27.413  1.00  0.00     0.011 C
HETATM   24  C15 UNL     1       2.948   8.473  28.901  1.00  0.00     0.001 C
HETATM   25  C16 UNL     1       1.571   8.050  29.315  1.00  0.00     0.001 C
HETATM   26  C17 UNL     1       0.696   8.140  28.105  1.00  0.00     0.011 C
ENDBRANCH   4  22
BRANCH   1  27
HETATM   27  C3  UNL     1      -1.366  10.928  24.248  1.00  0.00     0.158 C
BRANCH  27  28
HETATM   28  C2  UNL     1      -0.870  12.185  23.625  1.00  0.00    -0.008 A
HETATM   29  C1  UNL     1       0.325  12.909  24.232  1.00  0.00     0.018 C
HETATM   30  C18 UNL     1      -1.995  13.069  23.055  1.00  0.00     0.033 A
HETATM   31  C19 UNL     1      -1.059  12.410  22.135  1.00  0.00     0.093 A
HETATM   32 CL1  UNL     1       0.131  13.469  21.326  1.00  0.00    -0.124 Cl
ENDBRANCH  27  28
ENDBRANCH   1  27
TORSDOF 9
ENDMDL