MODEL 3
REMARK VINA RESULT: -8.295854028      1.019      1.995
REMARK  11 active torsions:
REMARK  status: ('A' for Active; 'I' for Inactive)
REMARK    1  A    between atoms: C3_4  and  C4_5
REMARK    2  A    between atoms: C5_6  and  C6_7
REMARK    3  A    between atoms: C6_7  and  C7_8
REMARK    4  A    between atoms: C7_8  and  C8_9
REMARK    5  A    between atoms: C8_9  and  C9_11
REMARK    6  A    between atoms: C9_11  and  C10_12
REMARK    7  A    between atoms: C12_15  and  C14_17
REMARK    8  A    between atoms: C14_17  and  O3_18
REMARK    9  A    between atoms: C16_22  and  O5_23
REMARK   10  A    between atoms: C17_25  and  O6_26
REMARK   11  A    between atoms: C18_28  and  O7_29
ROOT
HETATM    1  C4  UNL     1       4.035  10.238  24.189  1.00  0.00    -0.072 C
HETATM    2  C5  UNL     1       5.192  10.510  24.008  1.00  0.00    -0.104 C
ENDROOT
BRANCH   2   3
HETATM    3  C6  UNL     1       6.612  10.820  23.795  1.00  0.00     0.095 C
BRANCH   3   4
HETATM    4  C7  UNL     1       6.811  12.279  23.471  1.00  0.00     0.032 C
BRANCH   4   5
HETATM    5  C8  UNL     1       6.958  13.123  24.690  1.00  0.00     0.085 C
HETATM    6 CL1  UNL     1       5.505  14.130  24.975  1.00  0.00    -0.125 Cl
BRANCH   5   7
HETATM    7  C9  UNL     1       8.211  13.920  24.793  1.00  0.00     0.054 C
BRANCH   7   8
HETATM    8  C10 UNL     1       8.370  14.780  25.995  1.00  0.00     0.146 C
HETATM    9  C11 UNL     1       8.851  14.104  27.232  1.00  0.00     0.200 C
HETATM   10  O2  UNL     1      10.072  13.488  26.958  1.00  0.00    -0.374 OA
HETATM   11  C12 UNL     1      11.030  14.488  26.792  1.00  0.00     0.100 C
HETATM   12  C13 UNL     1      11.984  14.049  25.701  1.00  0.00     0.050 C
HETATM   13  C15 UNL     1      10.441  15.795  26.396  1.00  0.00     0.208 C
HETATM   14  O4  UNL     1       9.288  15.776  25.680  1.00  0.00    -0.381 OA
BRANCH  11  15
HETATM   15  C14 UNL     1      11.882  14.595  28.058  1.00  0.00     0.203 C
BRANCH  15  16
HETATM   16  O3  UNL     1      11.550  13.545  28.912  1.00  0.00    -0.398 OA
ATOM     17  H3  UNL     1      11.416  13.892  29.786  1.00  0.00     0.209 HD
ENDBRANCH  15  16
ENDBRANCH  11  15
ENDBRANCH   7   8
ENDBRANCH   5   7
ENDBRANCH   4   5
ENDBRANCH   3   4
ENDBRANCH   2   3
BRANCH   1  18
HETATM   18  C3  UNL     1       2.614   9.879  24.410  1.00  0.00     0.231 C
HETATM   19  O1  UNL     1       1.827  10.834  23.793  1.00  0.00    -0.363 OA
HETATM   20  C2  UNL     1       0.664  11.007  24.493  1.00  0.00     0.150 C
HETATM   21  C1  UNL     1      -0.344  11.861  23.746  1.00  0.00     0.042 C
HETATM   22  C18 UNL     1       0.074   9.667  24.867  1.00  0.00     0.178 C
HETATM   23  C17 UNL     1       0.905   9.156  26.036  1.00  0.00     0.181 C
HETATM   24  C16 UNL     1       2.327   9.715  25.875  1.00  0.00     0.190 C
BRANCH  22  25
HETATM   25  O7  UNL     1       0.004   8.777  23.820  1.00  0.00    -0.390 OA
ATOM     26  H7  UNL     1      -0.215   7.890  24.083  1.00  0.00     0.210 HD
ENDBRANCH  22  25
BRANCH  23  27
HETATM   27  O6  UNL     1       0.399   9.577  27.259  1.00  0.00    -0.390 OA
ATOM     28  H6  UNL     1       0.618  10.495  27.378  1.00  0.00     0.210 HD
ENDBRANCH  23  27
BRANCH  24  29
HETATM   29  O5  UNL     1       3.175   8.794  26.466  1.00  0.00    -0.389 OA
ATOM     30  H5  UNL     1       2.969   7.905  26.202  1.00  0.00     0.210 HD
ENDBRANCH  24  29
ENDBRANCH   1  18
TORSDOF 11
ENDMDL