MODEL 4
REMARK VINA RESULT: -8.838620443      5.478      8.700
REMARK  5 active torsions:
REMARK  status: ('A' for Active; 'I' for Inactive)
REMARK    1  A    between atoms: C1_2  and  C2_4
REMARK    2  A    between atoms: C8_13  and  S1_14
REMARK    3  A    between atoms: S1_14  and  S2_15
REMARK    4  A    between atoms: S2_15  and  C9_16
REMARK    5  A    between atoms: C14_28  and  O4_29
ROOT
HETATM    1  C2  UNL     1       7.279  14.600  24.939  1.00  0.00     0.118 C
HETATM    2  C3  UNL     1       5.851  15.066  25.263  1.00  0.00     0.044 C
HETATM    3  C4  UNL     1       5.026  13.807  25.203  1.00  0.00     0.109 C
HETATM    4  C5  UNL     1       5.772  13.058  24.115  1.00  0.00     0.131 C
HETATM    5  C6  UNL     1       5.138  11.731  24.061  1.00  0.00     0.232 C
HETATM    6  O3  UNL     1       5.663  10.634  24.283  1.00  0.00    -0.273 OA
HETATM    7  N1  UNL     1       3.742  11.804  23.700  1.00  0.00    -0.310 N
ATOM      8  H1  UNL     1       3.282  11.059  23.177  1.00  0.00     0.170 HD
HETATM    9  C7  UNL     1       3.040  12.975  24.113  1.00  0.00     0.146 A
HETATM   10  C8  UNL     1       1.734  13.324  23.866  1.00  0.00     0.126 A
HETATM   11  N3  UNL     1       1.567  14.562  24.433  1.00  0.00    -0.343 N
ATOM     12  H3  UNL     1       0.709  15.113  24.431  1.00  0.00     0.167 HD
HETATM   13  C13 UNL     1       2.717  14.912  24.981  1.00  0.00     0.186 A
HETATM   14  N4  UNL     1       3.672  13.958  24.812  1.00  0.00    -0.321 N
HETATM   15  C14 UNL     1       7.164  13.088  24.689  1.00  0.00     0.147 C
ENDROOT
BRANCH  10  16
HETATM   16  S1  UNL     1       0.406  12.499  23.049  1.00  0.00    -0.034 SA
BRANCH  16  17
HETATM   17  S2  UNL     1      -1.060  11.659  24.232  1.00  0.00    -0.057 SA
BRANCH  17  18
HETATM   18  C9  UNL     1      -0.481  10.193  25.063  1.00  0.00     0.260 C
HETATM   19  C10 UNL     1      -0.431  10.251  26.562  1.00  0.00     0.048 C
HETATM   20  C11 UNL     1       0.774   9.314  26.867  1.00  0.00     0.052 C
HETATM   21  C12 UNL     1       1.708   9.769  25.791  1.00  0.00     0.282 C
HETATM   22 CL1  UNL     1       2.920   8.516  25.392  1.00  0.00    -0.095 Cl
HETATM   23  N2  UNL     1       0.883   9.924  24.625  1.00  0.00    -0.044 N
ATOM     24  H22 UNL     1       0.942   9.127  23.992  1.00  0.00     0.280 HD
ATOM     25  H21 UNL     1       1.236  10.635  23.984  1.00  0.00     0.280 HD
ENDBRANCH  17  18
ENDBRANCH  16  17
ENDBRANCH  10  16
BRANCH  15  26
HETATM   26  O4  UNL     1       8.044  12.664  23.706  1.00  0.00    -0.394 OA
ATOM     27  H4  UNL     1       7.808  13.005  22.851  1.00  0.00     0.210 HD
ENDBRANCH  15  26
BRANCH   1  28
HETATM   28  C1  UNL     1       8.252  14.957  25.961  1.00  0.00     0.179 C
HETATM   29  O1  UNL     1       9.497  14.917  25.676  1.00  0.00    -0.648 OA
HETATM   30  O2  UNL     1       7.906  15.340  27.236  1.00  0.00    -0.648 OA
ENDBRANCH   1  28
TORSDOF 5
ENDMDL