MODEL 2
REMARK VINA RESULT: -7.562583647      2.363      3.393
REMARK  8 active torsions:
REMARK  status: ('A' for Active; 'I' for Inactive)
REMARK    1  A    between atoms: C5_5  and  O1_6
REMARK    2  A    between atoms: O1_6  and  C6_7
REMARK    3  A    between atoms: C6_7  and  O2_8
REMARK    4  A    between atoms: C7_10  and  S1_11
REMARK    5  A    between atoms: S1_11  and  C8_12
REMARK    6  A    between atoms: C9_15  and  N2_16
REMARK    7  A    between atoms: C12_24  and  C13_25
REMARK    8  A    between atoms: C13_25  and  O3_27
ROOT
HETATM    1  C6  UNL     1       2.612  10.984  23.694  1.00  0.00     0.185 C
HETATM    2  C7  UNL     1       3.654  11.489  24.530  1.00  0.00     0.115 C
ENDROOT
BRANCH   1   3
HETATM    3  O1  UNL     1       1.310  10.953  23.564  1.00  0.00    -0.319 OA
BRANCH   3   4
HETATM    4  C5  UNL     1       0.340   9.955  23.752  1.00  0.00     0.186 C
HETATM    5  C4  UNL     1      -0.934  10.625  24.114  1.00  0.00     0.005 C
HETATM    6  C3  UNL     1      -1.265  10.793  25.371  1.00  0.00     0.004 C
HETATM    7  C2  UNL     1      -0.299  10.278  26.395  1.00  0.00     0.205 C
HETATM    8  C1  UNL     1      -0.876  10.226  27.772  1.00  0.00     0.044 C
HETATM    9  N4  UNL     1      -0.052   8.892  25.962  1.00  0.00    -0.059 N
HETATM   10  C12 UNL     1       0.708   8.887  24.714  1.00  0.00     0.247 C
ATOM     11  H42 UNL     1       0.403   8.340  26.689  1.00  0.00     0.278 HD
ATOM     12  H41 UNL     1      -0.916   8.355  25.886  1.00  0.00     0.278 HD
BRANCH  10  13
HETATM   13  C13 UNL     1       0.427   7.506  24.100  1.00  0.00     0.147 C
HETATM   14  C14 UNL     1       1.732   6.747  23.868  1.00  0.00     0.041 C
BRANCH  13  15
HETATM   15  O3  UNL     1      -0.298   6.792  25.065  1.00  0.00    -0.394 OA
ATOM     16  H3  UNL     1      -0.595   7.434  25.699  1.00  0.00     0.210 HD
ENDBRANCH  13  15
ENDBRANCH  10  13
ENDBRANCH   3   4
ENDBRANCH   1   3
BRANCH   1  17
HETATM   17  O2  UNL     1       3.175  10.265  22.627  1.00  0.00    -0.341 OA
ATOM     18  H2  UNL     1       2.654  10.433  21.851  1.00  0.00     0.220 HD
ENDBRANCH   1  17
BRANCH   2  19
HETATM   19  S1  UNL     1       4.153  13.173  24.484  1.00  0.00    -0.077 SA
BRANCH  19  20
HETATM   20  C8  UNL     1       5.935  13.351  24.539  1.00  0.00     0.109 A
HETATM   21  N1  UNL     1       6.804  12.404  24.075  1.00  0.00    -0.184 N
HETATM   22  C9  UNL     1       8.134  12.529  24.272  1.00  0.00     0.676 A
ATOM     23  H1  UNL     1       6.443  11.593  23.573  1.00  0.00     0.185 HD
HETATM   24  N3  UNL     1       8.696  13.583  24.932  1.00  0.00    -0.201 N
HETATM   25  C10 UNL     1       7.869  14.514  25.393  1.00  0.00     0.128 A
ATOM     26  H3  UNL     1       9.704  13.653  25.065  1.00  0.00     0.183 HD
HETATM   27  C11 UNL     1       6.506  14.411  25.204  1.00  0.00     0.061 A
HETATM   28 BR1  UNL     1       5.437  15.829  25.902  1.00  0.00    -0.047 Br
BRANCH  22  29
HETATM   29  N2  UNL     1       8.983  11.640  23.880  1.00  0.00    -0.234 N
ATOM     30  H22 UNL     1       9.833  12.029  23.472  1.00  0.00     0.174 HD
ATOM     31  H21 UNL     1       8.825  10.639  23.995  1.00  0.00     0.174 HD
ENDBRANCH  22  29
ENDBRANCH  19  20
ENDBRANCH   2  19
TORSDOF 8
ENDMDL