MODEL 2
REMARK VINA RESULT: -8.002031757      2.231      3.909
REMARK  8 active torsions:
REMARK  status: ('A' for Active; 'I' for Inactive)
REMARK    1  A    between atoms: C2_2  and  C3_3
REMARK    2  A    between atoms: C2_2  and  N1_6
REMARK    3  A    between atoms: C3_3  and  O1_4
REMARK    4  A    between atoms: N1_6  and  C4_7
REMARK    5  A    between atoms: C5_8  and  C6_9
REMARK    6  A    between atoms: N3_13  and  C8_14
REMARK    7  A    between atoms: C8_14  and  C9_15
REMARK    8  A    between atoms: C13_20  and  N5_21
ROOT
HETATM    1  C9  UNL     1       2.710   8.957  23.136  1.00  0.00     0.155 C
HETATM    2  C10 UNL     1       2.194   8.625  24.458  1.00  0.00     0.061 C
HETATM    3  N4  UNL     1       1.805   8.352  25.502  1.00  0.00    -0.197 NA
ENDROOT
BRANCH   1   4
HETATM    4  C8  UNL     1       4.245   9.101  23.220  1.00  0.00     0.050 C
HETATM    5  C11 UNL     1       4.641   8.026  24.210  1.00  0.00     0.034 C
HETATM    6  C12 UNL     1       5.057   6.772  23.524  1.00  0.00     0.035 C
HETATM    7  C13 UNL     1       4.262   6.332  22.343  1.00  0.00     0.183 C
HETATM    8  C14 UNL     1       3.908   7.419  21.372  1.00  0.00     0.035 C
HETATM    9  C15 UNL     1       4.681   8.663  21.864  1.00  0.00     0.034 C
BRANCH   4  10
HETATM   10  N3  UNL     1       4.473  10.440  23.638  1.00  0.00    -0.335 N
HETATM   11  C7  UNL     1       3.418  11.254  23.885  1.00  0.00     0.113 A
HETATM   12  C5  UNL     1       3.508  12.585  24.281  1.00  0.00     0.086 A
HETATM   13  C4  UNL     1       4.789  13.105  24.433  1.00  0.00     0.142 A
HETATM   14  C18 UNL     1       5.877  12.238  24.169  1.00  0.00     0.112 A
HETATM   15  C16 UNL     1       5.716  10.931  23.780  1.00  0.00     0.142 A
HETATM   16 CL1  UNL     1       7.530  12.807  24.296  1.00  0.00    -0.077 Cl
HETATM   17  C17 UNL     1       6.913  10.118  23.577  1.00  0.00     0.119 C
HETATM   18  N6  UNL     1       7.894   9.502  23.437  1.00  0.00    -0.190 NA
BRANCH  12  19
HETATM   19  C6  UNL     1       2.278  13.355  24.438  1.00  0.00     0.269 C
HETATM   20  N2  UNL     1       1.059  12.619  24.553  1.00  0.00    -0.057 NA
HETATM   21  O2  UNL     1       2.129  14.578  24.489  1.00  0.00    -0.271 OA
ENDBRANCH  12  19
BRANCH  13  22
HETATM   22  N1  UNL     1       5.026  14.232  24.809  1.00  0.00    -0.438 NA
BRANCH  22  23
HETATM   23  C2  UNL     1       5.493  15.316  25.398  1.00  0.00     0.183 C
HETATM   24  C1  UNL     1       4.398  16.249  26.021  1.00  0.00     0.049 C
BRANCH  23  25
HETATM   25  C3  UNL     1       6.405  15.115  26.655  1.00  0.00     0.203 C
BRANCH  25  26
HETATM   26  O1  UNL     1       7.702  15.444  26.359  1.00  0.00    -0.398 OA
ATOM     27  H1  UNL     1       7.983  16.183  26.885  1.00  0.00     0.209 HD
ENDBRANCH  25  26
ENDBRANCH  23  25
ENDBRANCH  22  23
ENDBRANCH  13  22
ENDBRANCH   4  10
BRANCH   7  28
HETATM   28  N5  UNL     1       5.078   5.301  21.674  1.00  0.00    -0.075 N
ATOM     29  H53 UNL     1       5.664   5.668  20.924  1.00  0.00     0.274 HD
ATOM     30  H52 UNL     1       5.836   4.940  22.254  1.00  0.00     0.274 HD
ATOM     31  H51 UNL     1       4.422   4.584  21.368  1.00  0.00     0.274 HD
ENDBRANCH   7  28
ENDBRANCH   1   4
TORSDOF 8
ENDMDL