MODEL 2
REMARK VINA RESULT: -7.495948907      2.019      2.758
REMARK  9 active torsions:
REMARK  status: ('A' for Active; 'I' for Inactive)
REMARK    1  A    between atoms: C2_2  and  O1_3
REMARK    2  A    between atoms: O1_3  and  C3_4
REMARK    3  A    between atoms: C3_4  and  C4_6
REMARK    4  A    between atoms: C5_7  and  O3_8
REMARK    5  A    between atoms: C6_10  and  O4_11
REMARK    6  A    between atoms: C7_13  and  O5_14
REMARK    7  A    between atoms: C8_16  and  S1_17
REMARK    8  A    between atoms: C10_19  and  N1_20
REMARK       I    between atoms: N1_20  and  C11_22
REMARK    9  A    between atoms: C11_22  and  C12_24
ROOT
HETATM    1  C4  UNL     1       4.059   7.314  24.059  1.00  0.00     0.140 C
HETATM    2  C5  UNL     1       3.105   6.300  24.685  1.00  0.00     0.165 C
HETATM    3  C6  UNL     1       2.137   5.917  23.585  1.00  0.00     0.177 C
HETATM    4  C7  UNL     1       1.196   7.077  23.397  1.00  0.00     0.165 C
HETATM    5  C8  UNL     1       1.858   8.412  23.536  1.00  0.00     0.102 C
HETATM    6  C10 UNL     1       3.338   8.397  23.335  1.00  0.00     0.117 C
ENDROOT
BRANCH   6   7
HETATM    7  N1  UNL     1       3.845   9.678  23.871  1.00  0.00    -0.350 N
HETATM    8  C11 UNL     1       4.939  10.336  23.287  1.00  0.00     0.252 C
HETATM    9  O6  UNL     1       5.551   9.869  22.273  1.00  0.00    -0.268 OA
ATOM     10  H1  UNL     1       3.391  10.093  24.684  1.00  0.00     0.163 HD
BRANCH   8  11
HETATM   11  C12 UNL     1       5.418  11.592  23.830  1.00  0.00     0.032 A
HETATM   12  C13 UNL     1       6.748  11.968  23.888  1.00  0.00     0.018 A
HETATM   13  C14 UNL     1       7.150  13.179  24.411  1.00  0.00     0.025 A
HETATM   14  C15 UNL     1       6.215  14.058  24.900  1.00  0.00     0.034 A
HETATM   15 CL1  UNL     1       6.663  15.615  25.579  1.00  0.00    -0.084 Cl
HETATM   16  C16 UNL     1       4.864  13.735  24.869  1.00  0.00     0.025 A
HETATM   17  C17 UNL     1       4.511  12.522  24.339  1.00  0.00     0.018 A
ENDBRANCH   8  11
ENDBRANCH   6   7
BRANCH   1  18
HETATM   18  C3  UNL     1       4.908   6.517  23.103  1.00  0.00     0.267 C
HETATM   19  O2  UNL     1       5.901   5.867  23.511  1.00  0.00    -0.265 OA
BRANCH  18  20
HETATM   20  O1  UNL     1       4.606   6.488  21.755  1.00  0.00    -0.321 OA
BRANCH  20  21
HETATM   21  C2  UNL     1       4.299   5.278  21.070  1.00  0.00     0.174 C
HETATM   22  C1  UNL     1       3.245   5.518  20.037  1.00  0.00     0.034 C
ENDBRANCH  20  21
ENDBRANCH  18  20
ENDBRANCH   1  18
BRANCH   5  23
HETATM   23  S1  UNL     1       1.478   9.166  25.154  1.00  0.00    -0.164 SA
HETATM   24  C9  UNL     1       0.143   8.216  25.975  1.00  0.00     0.090 C
ENDBRANCH   5  23
BRANCH   2  25
HETATM   25  O3  UNL     1       3.844   5.206  25.127  1.00  0.00    -0.392 OA
ATOM     26  H3  UNL     1       3.259   4.464  25.227  1.00  0.00     0.210 HD
ENDBRANCH   2  25
BRANCH   4  27
HETATM   27  O5  UNL     1       0.546   6.920  22.185  1.00  0.00    -0.392 OA
ATOM     28  H5  UNL     1       0.820   6.093  21.804  1.00  0.00     0.210 HD
ENDBRANCH   4  27
BRANCH   3  29
HETATM   29  O4  UNL     1       1.426   4.763  23.952  1.00  0.00    -0.390 OA
ATOM     30  H4  UNL     1       0.526   4.988  24.159  1.00  0.00     0.210 HD
ENDBRANCH   3  29
TORSDOF 9
ENDMDL