MODEL 4
REMARK VINA RESULT: -7.341640663      4.587      6.433
REMARK  10 active torsions:
REMARK  status: ('A' for Active; 'I' for Inactive)
REMARK    1  A    between atoms: C2_2  and  C3_3
REMARK    2  A    between atoms: C4_4  and  C5_5
REMARK    3  A    between atoms: C5_5  and  O1_6
REMARK    4  A    between atoms: C8_10  and  N1_11
REMARK    5  A    between atoms: C10_13  and  C11_14
REMARK    6  A    between atoms: C11_14  and  N2_15
REMARK    7  A    between atoms: N2_15  and  N3_17
REMARK    8  A    between atoms: C14_22  and  C15_23
REMARK    9  A    between atoms: C15_23  and  C16_25
REMARK   10  A    between atoms: C19_29  and  N4_31
ROOT
HETATM    1  C5  UNL     1       1.777   7.519  29.594  1.00  0.00     0.153 C
HETATM    2  C6  UNL     1       0.518   7.186  28.832  1.00  0.00     0.056 C
HETATM    3  C7  UNL     1       0.576   8.079  27.584  1.00  0.00     0.030 C
HETATM    4  C8  UNL     1       1.869   8.021  26.851  1.00  0.00     0.091 C
HETATM    5  C18 UNL     1       3.105   8.119  27.676  1.00  0.00     0.068 C
HETATM    6  C19 UNL     1       3.023   7.171  28.871  1.00  0.00     0.164 C
HETATM    7  C20 UNL     1       3.115   5.762  28.364  1.00  0.00     0.050 C
ENDROOT
BRANCH   4   8
HETATM    8  N1  UNL     1       1.905   9.037  25.815  1.00  0.00    -0.360 N
HETATM    9  C9  UNL     1       0.853   9.860  25.682  1.00  0.00     0.103 A
HETATM   10  C10 UNL     1       0.864  10.856  24.716  1.00  0.00     0.023 A
HETATM   11  C13 UNL     1       1.949  11.009  23.874  1.00  0.00     0.196 A
HETATM   12  O2  UNL     1       1.939  11.920  22.995  1.00  0.00    -0.287 OA
HETATM   13  C14 UNL     1       3.001  10.168  24.016  1.00  0.00     0.078 A
HETATM   14  C17 UNL     1       2.957   9.192  24.991  1.00  0.00     0.110 A
BRANCH  10  15
HETATM   15  C11 UNL     1      -0.197  11.900  24.655  1.00  0.00     0.156 C
BRANCH  15  16
HETATM   16  N2  UNL     1      -1.273  11.441  23.778  1.00  0.00    -0.238 NA
HETATM   17  C12 UNL     1      -1.616  12.606  22.891  1.00  0.00     0.136 C
BRANCH  16  18
HETATM   18  N3  UNL     1      -2.457  11.180  24.505  1.00  0.00    -0.363 NA
ATOM     19  H32 UNL     1      -2.577  10.169  24.452  1.00  0.00     0.171 HD
ATOM     20  H31 UNL     1      -3.273  11.587  24.048  1.00  0.00     0.171 HD
ENDBRANCH  16  18
ENDBRANCH  15  16
ENDBRANCH  10  15
BRANCH  13  21
HETATM   21  C15 UNL     1       4.103  10.313  23.064  1.00  0.00     0.193 C
HETATM   22  O3  UNL     1       3.964   9.797  21.897  1.00  0.00    -0.289 OA
BRANCH  21  23
HETATM   23  C16 UNL     1       5.319  11.058  23.479  1.00  0.00     0.306 C
HETATM   24  F1  UNL     1       5.038  12.336  23.872  1.00  0.00    -0.247 F
ENDBRANCH  21  23
ENDBRANCH  13  21
ENDBRANCH   4   8
BRANCH   6  25
HETATM   25  N4  UNL     1       4.151   7.392  29.758  1.00  0.00    -0.067 N
ATOM     26  H43 UNL     1       4.079   8.272  30.269  1.00  0.00     0.275 HD
ATOM     27  H42 UNL     1       4.146   6.762  30.560  1.00  0.00     0.275 HD
ATOM     28  H41 UNL     1       5.011   7.325  29.213  1.00  0.00     0.275 HD
ENDBRANCH   6  25
BRANCH   1  29
HETATM   29  C4  UNL     1       1.759   6.972  30.960  1.00  0.00    -0.066 C
HETATM   30  C3  UNL     1       1.735   6.487  32.049  1.00  0.00    -0.104 C
BRANCH  30  31
HETATM   31  C2  UNL     1       1.710   5.855  33.386  1.00  0.00     0.089 C
HETATM   32  C1  UNL     1       2.621   6.680  34.278  1.00  0.00     0.018 C
ENDBRANCH  30  31
ENDBRANCH   1  29
BRANCH   1  33
HETATM   33  O1  UNL     1       1.777   8.935  29.654  1.00  0.00    -0.375 OA
ATOM     34  H1  UNL     1       0.944   9.265  29.337  1.00  0.00     0.211 HD
ENDBRANCH   1  33
TORSDOF 10
ENDMDL