MODEL 4
REMARK VINA RESULT: -7.610969536      1.598      2.619
REMARK  8 active torsions:
REMARK  status: ('A' for Active; 'I' for Inactive)
REMARK    1  A    between atoms: O1_2  and  N1_3
REMARK    2  A    between atoms: C2_5  and  N2_6
REMARK    3  A    between atoms: C2_5  and  C11_28
REMARK    4  A    between atoms: N2_6  and  C3_8
REMARK    5  A    between atoms: C3_8  and  S1_9
REMARK    6  A    between atoms: S1_9  and  N3_11
REMARK    7  A    between atoms: S1_9  and  C7_23
REMARK       I    between atoms: N3_11  and  C4_13
REMARK       I    between atoms: C4_13  and  N4_14
REMARK       I    between atoms: C4_13  and  N5_18
REMARK    8  A    between atoms: N4_14  and  O3_16
REMARK       I    between atoms: N5_18  and  C5_20
ROOT
HETATM    1  S1  UNL     1       4.161   9.836  23.081  1.00  0.00     0.113 S
HETATM    2  O2  UNL     1       3.931  10.111  21.871  1.00  0.00    -0.238 OA
ENDROOT
BRANCH   1   3
HETATM    3  C3  UNL     1       2.450   9.477  23.827  1.00  0.00     0.183 C
BRANCH   3   4
HETATM    4  N2  UNL     1       2.229   9.981  25.163  1.00  0.00    -0.345 N
ATOM      5  H2  UNL     1       3.040  10.351  25.658  1.00  0.00     0.167 HD
BRANCH   4   6
HETATM    6  C2  UNL     1       1.001  10.008  25.841  1.00  0.00     0.109 C
HETATM    7  N1  UNL     1       0.225  11.021  25.709  1.00  0.00    -0.254 N
ATOM      8  H1  UNL     1      -0.661  11.017  26.215  1.00  0.00     0.195 HD
BRANCH   7   9
HETATM    9  O1  UNL     1       0.522  12.121  24.917  1.00  0.00    -0.284 OA
HETATM   10  C1  UNL     1      -0.199  12.302  23.696  1.00  0.00     0.237 C
ENDBRANCH   7   9
BRANCH   6  11
HETATM   11  C11 UNL     1       0.568   8.908  26.712  1.00  0.00     0.009 C
HETATM   12  C12 UNL     1      -0.029   7.773  25.841  1.00  0.00     0.023 C
HETATM   13  C13 UNL     1       1.694   8.240  27.479  1.00  0.00     0.023 C
HETATM   14  C14 UNL     1      -0.500   9.435  27.629  1.00  0.00     0.023 C
ENDBRANCH   6  11
ENDBRANCH   4   6
ENDBRANCH   3   4
ENDBRANCH   1   3
BRANCH   1  15
HETATM   15  N3  UNL     1       5.407   8.456  22.784  1.00  0.00    -0.139 N
HETATM   16  C4  UNL     1       4.471   6.960  22.966  1.00  0.00     0.712 C
HETATM   17  N4  UNL     1       4.203   6.974  21.835  1.00  0.00    -0.098 N
HETATM   18  N5  UNL     1       4.787   6.943  24.300  1.00  0.00    -0.158 N
ATOM     19  H4  UNL     1       3.626   6.145  21.690  1.00  0.00     0.213 HD
HETATM   20  C5  UNL     1       4.176   5.977  25.173  1.00  0.00     0.232 C
ATOM     21  H5  UNL     1       5.456   7.616  24.674  1.00  0.00     0.187 HD
HETATM   22  C6  UNL     1       4.507   5.932  26.601  1.00  0.00     0.118 C
HETATM   23  O4  UNL     1       3.355   5.176  24.693  1.00  0.00    -0.273 OA
ATOM     24  H3  UNL     1       6.399   8.548  22.567  1.00  0.00     0.195 HD
BRANCH  17  25
HETATM   25  O3  UNL     1       4.285   7.542  20.650  1.00  0.00    -0.276 OA
ATOM     26  H3  UNL     1       4.036   8.236  20.051  1.00  0.00     0.245 HD
ENDBRANCH  17  25
ENDBRANCH   1  15
BRANCH   1  27
HETATM   27  C7  UNL     1       4.930  11.547  23.758  1.00  0.00     0.085 A
HETATM   28  C8  UNL     1       4.406  12.639  24.328  1.00  0.00     0.030 A
HETATM   29  C9  UNL     1       5.236  13.604  24.760  1.00  0.00     0.009 A
HETATM   30  C10 UNL     1       6.577  13.439  24.604  1.00  0.00     0.051 A
HETATM   31  S2  UNL     1       6.596  11.875  23.825  1.00  0.00    -0.091 SA
ENDBRANCH   1  27
TORSDOF 8
ENDMDL