MODEL 3
REMARK VINA RESULT: -5.962148231      0.328      1.059
REMARK  3 active torsions:
REMARK  status: ('A' for Active; 'I' for Inactive)
REMARK    1  A    between atoms: N1_1  and  N2_4
REMARK    2  A    between atoms: C1_6  and  C2_8
REMARK       I    between atoms: C2_8  and  N4_10
REMARK    3  A    between atoms: N4_10  and  C3_12
ROOT
HETATM    1  C2  UNL     1      65.448  29.084  33.925  1.00  0.00     0.302 C
HETATM    2  O1  UNL     1      65.335  29.781  34.957  1.00  0.00    -0.264 OA
HETATM    3  N4  UNL     1      64.277  28.793  33.175  1.00  0.00    -0.151 N
ATOM      4  H4  UNL     1      64.323  28.866  32.159  1.00  0.00     0.188 HD
ENDROOT
BRANCH   1   5
HETATM    5  C1  UNL     1      66.762  28.612  33.547  1.00  0.00     0.199 C
HETATM    6  N2  UNL     1      66.954  27.348  33.417  1.00  0.00    -0.290 N
ATOM      7  H2  UNL     1      66.197  26.683  33.576  1.00  0.00     0.187 HD
HETATM    8  N3  UNL     1      67.787  29.571  33.335  1.00  0.00    -0.075 NA
BRANCH   6   9
HETATM    9  N1  UNL     1      68.227  26.909  33.053  1.00  0.00    -0.344 N
ATOM     10  H12 UNL     1      69.049  27.282  33.527  1.00  0.00     0.176 HD
ATOM     11  H11 UNL     1      68.302  26.216  32.308  1.00  0.00     0.176 HD
ENDBRANCH   6   9
ENDBRANCH   1   5
BRANCH   3  12
HETATM   12  C3  UNL     1      63.166  28.442  33.709  1.00  0.00     0.710 A
HETATM   13  N5  UNL     1      62.813  28.477  35.003  1.00  0.00    -0.117 N
HETATM   14  N6  UNL     1      61.556  28.019  35.123  1.00  0.00     0.006 NA
ATOM     15  H5  UNL     1      63.402  28.799  35.771  1.00  0.00     0.202 HD
HETATM   16  N7  UNL     1      61.130  27.700  33.913  1.00  0.00     0.006 NA
HETATM   17  N8  UNL     1      62.117  27.960  33.047  1.00  0.00    -0.117 N
ATOM     18  H8  UNL     1      62.072  27.813  32.039  1.00  0.00     0.202 HD
ENDBRANCH   3  12
TORSDOF 3
ENDMDL