MODEL 4
REMARK VINA RESULT: -5.112842536      2.177      3.006
REMARK  3 active torsions:
REMARK  status: ('A' for Active; 'I' for Inactive)
REMARK    1  A    between atoms: N1_1  and  C1_4
REMARK    2  A    between atoms: C3_9  and  C4_10
REMARK    3  A    between atoms: N4_13  and  O3_14
ROOT
HETATM    1  C1  UNL     1      61.341  28.302  33.945  1.00  0.00     0.695 A
HETATM    2  N2  UNL     1      61.432  28.286  35.287  1.00  0.00    -0.153 N
ATOM      3  H2  UNL     1      60.575  28.201  35.833  1.00  0.00     0.187 HD
HETATM    4  C2  UNL     1      62.611  28.375  35.945  1.00  0.00     0.295 A
HETATM    5  O1  UNL     1      62.662  28.357  37.193  1.00  0.00    -0.265 OA
HETATM    6  C3  UNL     1      63.768  28.486  35.206  1.00  0.00     0.214 A
HETATM    7  N4  UNL     1      63.672  28.502  33.864  1.00  0.00    -0.138 N
HETATM    8  N5  UNL     1      62.489  28.412  33.258  1.00  0.00    -0.105 N
ATOM      9  H5  UNL     1      62.455  28.426  32.238  1.00  0.00     0.208 HD
ENDROOT
BRANCH   1  10
HETATM   10  N1  UNL     1      60.185  28.215  33.337  1.00  0.00    -0.233 N
ATOM     11  H12 UNL     1      59.569  27.415  33.477  1.00  0.00     0.174 HD
ATOM     12  H11 UNL     1      59.860  28.943  32.702  1.00  0.00     0.174 HD
ENDBRANCH   1  10
BRANCH   7  13
HETATM   13  O3  UNL     1      64.837  28.614  33.154  1.00  0.00    -0.267 OA
ATOM     14  H3  UNL     1      65.622  28.250  33.547  1.00  0.00     0.247 HD
ENDBRANCH   7  13
BRANCH   6  15
HETATM   15  C4  UNL     1      65.065  28.585  35.854  1.00  0.00     0.291 C
HETATM   16  N3  UNL     1      65.855  27.435  36.122  1.00  0.00    -0.056 NA
HETATM   17  O2  UNL     1      65.540  29.694  36.206  1.00  0.00    -0.269 OA
ENDBRANCH   6  15
TORSDOF 3
ENDMDL