MODEL 1
REMARK VINA RESULT: -6.297804718      0.000      0.000
REMARK  1 active torsions:
REMARK  status: ('A' for Active; 'I' for Inactive)
REMARK       I    between atoms: C1_4  and  N3_6
REMARK    1  A    between atoms: N3_6  and  N4_8
ROOT
HETATM    1  N4  UNL     1      65.378  29.348  33.899  1.00  0.00    -0.267 N
ATOM      2  H4  UNL     1      65.739  30.165  34.390  1.00  0.00     0.190 HD
HETATM    3  C2  UNL     1      64.091  29.095  33.869  1.00  0.00     0.220 C
HETATM    4  N5  UNL     1      63.258  28.091  33.306  1.00  0.00    -0.236 N
ATOM      5  H5  UNL     1      63.243  27.563  32.434  1.00  0.00     0.183 HD
HETATM    6  S1  UNL     1      62.284  28.147  34.727  1.00  0.00     0.328 S
HETATM    7  O1  UNL     1      60.824  27.975  34.514  1.00  0.00    -0.182 OA
HETATM    8  O2  UNL     1      62.873  27.464  35.907  1.00  0.00    -0.182 OA
HETATM    9  N6  UNL     1      62.913  29.707  34.380  1.00  0.00    -0.236 N
ATOM     10  H6  UNL     1      62.583  30.665  34.492  1.00  0.00     0.183 HD
ENDROOT
BRANCH   1  11
HETATM   11  N3  UNL     1      66.242  28.467  33.240  1.00  0.00    -0.271 N
HETATM   12  C1  UNL     1      67.485  28.862  32.710  1.00  0.00     0.200 C
HETATM   13  N1  UNL     1      67.876  28.359  31.593  1.00  0.00    -0.372 N
HETATM   14  N2  UNL     1      68.326  29.798  33.361  1.00  0.00    -0.062 NA
ATOM     15  H12 UNL     1      68.777  28.646  31.209  1.00  0.00     0.158 HD
ATOM     16  H11 UNL     1      67.271  27.685  31.125  1.00  0.00     0.158 HD
ATOM     17  H3  UNL     1      65.959  27.493  33.139  1.00  0.00     0.189 HD
ENDBRANCH   1  11
TORSDOF 1
ENDMDL