MODEL 1
REMARK VINA RESULT: -5.732312374      0.000      0.000
REMARK  2 active torsions:
REMARK  status: ('A' for Active; 'I' for Inactive)
REMARK    1  A    between atoms: N1_1  and  C1_4
REMARK    2  A    between atoms: C3_11  and  N4_12
REMARK       I    between atoms: N4_12  and  C4_14
ROOT
HETATM    1  C1  UNL     1      63.661  28.760  33.821  1.00  0.00     0.694 A
HETATM    2  N2  UNL     1      62.425  28.419  33.420  1.00  0.00    -0.141 N
ATOM      3  H2  UNL     1      62.196  28.416  32.426  1.00  0.00     0.189 HD
HETATM    4  C2  UNL     1      61.489  28.079  34.322  1.00  0.00     0.352 A
HETATM    5  O1  UNL     1      60.330  27.757  33.978  1.00  0.00    -0.246 OA
HETATM    6  N3  UNL     1      61.806  28.087  35.640  1.00  0.00    -0.140 N
ATOM      7  H3  UNL     1      61.104  27.832  36.334  1.00  0.00     0.189 HD
HETATM    8  C3  UNL     1      63.033  28.427  36.030  1.00  0.00     0.704 A
HETATM    9  N6  UNL     1      63.989  28.772  35.127  1.00  0.00    -0.022 N
ATOM     10  H6  UNL     1      64.927  29.032  35.429  1.00  0.00     0.203 HD
ENDROOT
BRANCH   8  11
HETATM   11  N4  UNL     1      63.365  28.445  37.268  1.00  0.00    -0.143 N
HETATM   12  C4  UNL     1      63.644  29.595  38.017  1.00  0.00     0.346 C
HETATM   13  N5  UNL     1      62.802  29.878  39.152  1.00  0.00    -0.039 NA
HETATM   14  O2  UNL     1      64.570  30.405  37.781  1.00  0.00    -0.250 OA
ATOM     15  H4  UNL     1      63.431  27.547  37.747  1.00  0.00     0.188 HD
ENDBRANCH   8  11
BRANCH   1  16
HETATM   16  N1  UNL     1      64.525  29.078  32.923  1.00  0.00    -0.234 N
ATOM     17  H12 UNL     1      64.363  28.855  31.940  1.00  0.00     0.174 HD
ATOM     18  H11 UNL     1      65.376  29.556  33.219  1.00  0.00     0.174 HD
ENDBRANCH   1  16
TORSDOF 2
ENDMDL