MODEL 4
REMARK VINA RESULT: -5.354844606      2.126      3.527
REMARK  3 active torsions:
REMARK  status: ('A' for Active; 'I' for Inactive)
REMARK       I    between atoms: C1_4  and  N3_6
REMARK    1  A    between atoms: C2_8  and  C3_9
REMARK    2  A    between atoms: C2_8  and  C4_12
REMARK       I    between atoms: C4_12  and  N5_14
REMARK    3  A    between atoms: N5_14  and  N6_16
ROOT
HETATM    1  N1  UNL     1      63.392  29.756  37.603  1.00  0.00    -0.373 N
ATOM      2  H11 UNL     1      62.749  30.442  37.210  1.00  0.00     0.158 HD
ATOM      3  H12 UNL     1      63.975  29.994  38.407  1.00  0.00     0.158 HD
HETATM    4  C1  UNL     1      63.431  28.594  37.031  1.00  0.00     0.186 C
HETATM    5  N2  UNL     1      64.333  27.632  37.583  1.00  0.00    -0.064 NA
HETATM    6  N3  UNL     1      62.640  28.271  35.940  1.00  0.00    -0.322 N
ATOM      7  H3  UNL     1      61.715  27.895  36.146  1.00  0.00     0.169 HD
HETATM    8  C2  UNL     1      62.948  28.394  34.671  1.00  0.00     0.170 C
ENDROOT
BRANCH   8   9
HETATM    9  C3  UNL     1      61.899  27.967  33.759  1.00  0.00     0.287 C
HETATM   10  N4  UNL     1      60.545  27.815  34.252  1.00  0.00    -0.056 NA
HETATM   11  O1  UNL     1      62.078  27.715  32.560  1.00  0.00    -0.269 OA
ENDBRANCH   8   9
BRANCH   8  12
HETATM   12  C4  UNL     1      64.220  28.909  34.246  1.00  0.00     0.291 C
HETATM   13  O2  UNL     1      64.544  30.076  34.675  1.00  0.00    -0.264 OA
HETATM   14  N5  UNL     1      65.168  28.295  33.412  1.00  0.00    -0.271 N
ATOM     15  H5  UNL     1      64.985  27.368  33.029  1.00  0.00     0.189 HD
BRANCH  14  16
HETATM   16  N6  UNL     1      66.387  28.969  33.098  1.00  0.00    -0.342 N
ATOM     17  H62 UNL     1      66.557  29.263  32.136  1.00  0.00     0.176 HD
ATOM     18  H61 UNL     1      67.073  29.150  33.831  1.00  0.00     0.176 HD
ENDBRANCH  14  16
ENDBRANCH   8  12
TORSDOF 3
ENDMDL