MODEL 5
REMARK VINA RESULT: -5.134736127      1.784      3.778
REMARK  2 active torsions:
REMARK  status: ('A' for Active; 'I' for Inactive)
REMARK    1  A    between atoms: C1_2  and  C2_4
REMARK    2  A    between atoms: C2_4  and  N2_5
ROOT
HETATM    1  C2  UNL     1      64.734  28.951  34.799  1.00  0.00     0.367 C
HETATM    2  N3  UNL     1      64.579  27.992  33.786  1.00  0.00    -0.281 N
ATOM      3  H3  UNL     1      65.378  27.646  33.256  1.00  0.00     0.184 HD
HETATM    4  N4  UNL     1      63.308  27.539  33.537  1.00  0.00    -0.253 N
ATOM      5  H4  UNL     1      63.201  26.598  33.158  1.00  0.00     0.191 HD
HETATM    6  C3  UNL     1      62.147  28.289  33.773  1.00  0.00     0.341 C
HETATM    7  O2  UNL     1      61.013  27.988  33.289  1.00  0.00    -0.245 OA
HETATM    8  N5  UNL     1      62.243  29.447  34.597  1.00  0.00    -0.274 N
ATOM      9  H5  UNL     1      61.431  30.030  34.802  1.00  0.00     0.173 HD
HETATM   10  C4  UNL     1      63.532  29.746  35.119  1.00  0.00     0.293 C
HETATM   11  O3  UNL     1      63.673  30.735  35.895  1.00  0.00    -0.268 OA
ENDROOT
BRANCH   1  12
HETATM   12  C1  UNL     1      65.223  28.377  36.095  1.00  0.00     0.299 C
HETATM   13  N1  UNL     1      64.411  27.457  36.816  1.00  0.00    -0.058 NA
HETATM   14  O1  UNL     1      66.341  28.672  36.590  1.00  0.00    -0.271 OA
ENDBRANCH   1  12
BRANCH   1  15
HETATM   15  N2  UNL     1      65.774  29.889  34.359  1.00  0.00    -0.033 N
ATOM     16  H23 UNL     1      65.983  30.616  35.043  1.00  0.00     0.278 HD
ATOM     17  H22 UNL     1      66.707  29.479  34.327  1.00  0.00     0.278 HD
ATOM     18  H21 UNL     1      65.458  30.254  33.461  1.00  0.00     0.278 HD
ENDBRANCH   1  15
TORSDOF 2
ENDMDL