MODEL 2
REMARK VINA RESULT: -5.649753565      5.551      7.105
REMARK  2 active torsions:
REMARK  status: ('A' for Active; 'I' for Inactive)
REMARK    1  A    between atoms: N1_1  and  N2_4
REMARK       I    between atoms: N2_4  and  C1_6
REMARK    2  A    between atoms: N4_8  and  N5_10
ROOT
HETATM    1  N5  UNL     1      66.757  28.860  32.583  1.00  0.00    -0.279 N
ATOM      2  H5  UNL     1      66.134  29.482  32.068  1.00  0.00     0.189 HD
HETATM    3  C2  UNL     1      67.926  28.577  32.126  1.00  0.00     0.190 A
HETATM    4  N6  UNL     1      68.897  27.734  32.726  1.00  0.00    -0.333 N
ATOM      5  H6  UNL     1      68.807  27.229  33.607  1.00  0.00     0.168 HD
HETATM    6  C3  UNL     1      70.017  27.732  31.855  1.00  0.00     0.185 A
HETATM    7  N7  UNL     1      69.808  28.475  30.823  1.00  0.00    -0.316 N
ATOM      8  H7  UNL     1      70.475  28.621  30.066  1.00  0.00     0.170 HD
HETATM    9  C4  UNL     1      68.517  29.060  30.888  1.00  0.00     0.291 A
HETATM   10  O1  UNL     1      67.980  29.833  30.064  1.00  0.00    -0.264 OA
ENDROOT
BRANCH   1  11
HETATM   11  N4  UNL     1      66.361  28.301  33.790  1.00  0.00    -0.271 N
HETATM   12  C1  UNL     1      65.184  28.442  34.278  1.00  0.00     0.221 C
HETATM   13  N2  UNL     1      64.234  29.200  33.562  1.00  0.00    -0.279 N
HETATM   14  N3  UNL     1      64.877  27.837  35.508  1.00  0.00    -0.061 NA
ATOM     15  H2  UNL     1      64.145  30.199  33.743  1.00  0.00     0.189 HD
ATOM     16  H4  UNL     1      67.041  27.751  34.314  1.00  0.00     0.189 HD
BRANCH  13  17
HETATM   17  N1  UNL     1      63.420  28.598  32.612  1.00  0.00    -0.343 N
ATOM     18  H12 UNL     1      63.431  27.581  32.532  1.00  0.00     0.176 HD
ATOM     19  H11 UNL     1      62.823  29.161  32.007  1.00  0.00     0.176 HD
ENDBRANCH  13  17
ENDBRANCH   1  11
TORSDOF 2
ENDMDL