MODEL 1
REMARK VINA RESULT: -5.204463263      0.000      0.000
REMARK  4 active torsions:
REMARK  status: ('A' for Active; 'I' for Inactive)
REMARK    1  A    between atoms: N1_2  and  C2_4
REMARK    2  A    between atoms: C2_4  and  C3_10
REMARK    3  A    between atoms: N2_5  and  N3_7
REMARK       I    between atoms: C3_10  and  N4_12
REMARK       I    between atoms: C4_14  and  N6_16
REMARK    4  A    between atoms: N6_16  and  N7_18
ROOT
HETATM    1  C3  UNL     1      63.545  29.281  34.406  1.00  0.00     0.293 C
HETATM    2  O1  UNL     1      63.729  30.339  35.065  1.00  0.00    -0.264 OA
HETATM    3  N4  UNL     1      64.528  28.805  33.516  1.00  0.00    -0.293 N
ATOM      4  H4  UNL     1      64.220  28.250  32.718  1.00  0.00     0.172 HD
HETATM    5  C4  UNL     1      65.786  29.025  33.646  1.00  0.00     0.209 C
HETATM    6  N5  UNL     1      66.296  29.778  34.717  1.00  0.00    -0.062 NA
HETATM    7  N6  UNL     1      66.669  28.488  32.681  1.00  0.00    -0.280 N
ATOM      8  H6  UNL     1      66.679  27.488  32.478  1.00  0.00     0.189 HD
ENDROOT
BRANCH   1   9
HETATM    9  C2  UNL     1      62.269  28.557  34.595  1.00  0.00     0.184 C
HETATM   10  N2  UNL     1      61.892  28.174  35.767  1.00  0.00    -0.288 N
ATOM     11  H2  UNL     1      61.003  27.680  35.837  1.00  0.00     0.188 HD
BRANCH   9  12
HETATM   12  N1  UNL     1      61.433  28.271  33.487  1.00  0.00    -0.375 N
HETATM   13  C1  UNL     1      60.008  28.257  33.630  1.00  0.00     0.148 C
ATOM     14  H1  UNL     1      61.851  28.072  32.578  1.00  0.00     0.160 HD
ENDBRANCH   9  12
BRANCH  10  15
HETATM   15  N3  UNL     1      62.604  28.382  36.942  1.00  0.00    -0.343 N
ATOM     16  H32 UNL     1      63.612  28.235  36.893  1.00  0.00     0.176 HD
ATOM     17  H31 UNL     1      62.195  28.667  37.832  1.00  0.00     0.176 HD
ENDBRANCH  10  15
ENDBRANCH   1   9
BRANCH   7  18
HETATM   18  N7  UNL     1      67.523  29.358  32.016  1.00  0.00    -0.343 N
ATOM     19  H72 UNL     1      67.814  30.228  32.463  1.00  0.00     0.176 HD
ATOM     20  H71 UNL     1      67.843  29.100  31.082  1.00  0.00     0.176 HD
ENDBRANCH   7  18
TORSDOF 4
ENDMDL