MODEL 3
REMARK VINA RESULT: -5.667815380      3.069      4.705
REMARK  1 active torsions:
REMARK  status: ('A' for Active; 'I' for Inactive)
REMARK       I    between atoms: C1_2  and  N2_4
REMARK    1  A    between atoms: N2_4  and  C2_6
ROOT
HETATM    1  C2  UNL     1      64.843  28.555  33.881  1.00  0.00     0.694 A
HETATM    2  N3  UNL     1      63.742  27.880  33.561  1.00  0.00    -0.141 N
ATOM      3  H3  UNL     1      63.796  27.071  32.943  1.00  0.00     0.189 HD
HETATM    4  C3  UNL     1      62.568  28.271  34.054  1.00  0.00     0.342 A
HETATM    5  O2  UNL     1      61.503  27.641  33.761  1.00  0.00    -0.246 OA
HETATM    6  N4  UNL     1      62.455  29.330  34.869  1.00  0.00    -0.260 N
ATOM      7  H4  UNL     1      61.548  29.615  35.239  1.00  0.00     0.175 HD
HETATM    8  C4  UNL     1      63.578  30.005  35.185  1.00  0.00     0.342 A
HETATM    9  O3  UNL     1      63.505  31.005  35.949  1.00  0.00    -0.246 OA
HETATM   10  N5  UNL     1      64.761  29.610  34.688  1.00  0.00    -0.141 N
ATOM     11  H5  UNL     1      65.607  30.125  34.933  1.00  0.00     0.189 HD
ENDROOT
BRANCH   1  12
HETATM   12  N2  UNL     1      65.987  28.189  33.412  1.00  0.00    -0.143 N
HETATM   13  C1  UNL     1      67.163  28.774  33.928  1.00  0.00     0.346 C
HETATM   14  N1  UNL     1      67.779  28.327  35.120  1.00  0.00    -0.039 NA
HETATM   15  O1  UNL     1      67.686  29.728  33.313  1.00  0.00    -0.250 OA
ATOM     16  H2  UNL     1      66.042  27.484  32.676  1.00  0.00     0.188 HD
ENDBRANCH   1  12
TORSDOF 1
ENDMDL