MODEL 5
REMARK VINA RESULT: -5.650457893      1.902      5.189
REMARK  6 active torsions:
REMARK  status: ('A' for Active; 'I' for Inactive)
REMARK    1  A    between atoms: N1_1  and  N2_4
REMARK    2  A    between atoms: N2_4  and  C1_6
REMARK    3  A    between atoms: C1_6  and  O1_7
REMARK    4  A    between atoms: C1_6  and  N3_9
REMARK    5  A    between atoms: N3_9  and  N4_11
REMARK    6  A    between atoms: N4_11  and  C2_13
ROOT
HETATM    1  N4  UNL     1      63.921  29.782  33.861  1.00  0.00    -0.127 N
ATOM      2  H4  UNL     1      63.950  30.424  33.069  1.00  0.00     0.205 HD
ENDROOT
BRANCH   1   3
HETATM    3  N3  UNL     1      62.799  29.824  34.656  1.00  0.00    -0.250 N
ATOM      4  H3  UNL     1      62.608  30.632  35.249  1.00  0.00     0.191 HD
BRANCH   3   5
HETATM    5  C1  UNL     1      61.913  28.711  34.629  1.00  0.00     0.251 C
BRANCH   5   6
HETATM    6  N2  UNL     1      61.383  28.391  33.501  1.00  0.00    -0.271 N
ATOM      7  H2  UNL     1      62.005  28.155  32.727  1.00  0.00     0.190 HD
BRANCH   6   8
HETATM    8  N1  UNL     1      60.011  28.347  33.277  1.00  0.00    -0.342 N
ATOM      9  H12 UNL     1      59.439  29.037  33.764  1.00  0.00     0.176 HD
ATOM     10  H11 UNL     1      59.559  27.673  32.660  1.00  0.00     0.176 HD
ENDBRANCH   6   8
ENDBRANCH   5   6
BRANCH   5  11
HETATM   11  O1  UNL     1      61.583  27.948  35.737  1.00  0.00    -0.330 OA
ATOM     12  H1  UNL     1      61.769  27.017  35.704  1.00  0.00     0.221 HD
ENDBRANCH   5  11
ENDBRANCH   3   5
ENDBRANCH   1   3
BRANCH   1  13
HETATM   13  C2  UNL     1      64.927  29.017  34.018  1.00  0.00     0.715 A
HETATM   14  N5  UNL     1      65.880  28.842  33.078  1.00  0.00    -0.127 N
HETATM   15  N6  UNL     1      66.790  27.995  33.527  1.00  0.00    -0.237 N
ATOM     16  H5  UNL     1      65.896  29.293  32.164  1.00  0.00     0.206 HD
HETATM   17  C3  UNL     1      66.386  27.645  34.763  1.00  0.00     0.353 A
ATOM     18  H6  UNL     1      67.625  27.672  33.038  1.00  0.00     0.192 HD
HETATM   19  O2  UNL     1      67.034  26.830  35.501  1.00  0.00    -0.245 OA
HETATM   20  N7  UNL     1      65.238  28.266  35.083  1.00  0.00    -0.137 N
ATOM     21  H7  UNL     1      64.714  28.183  35.955  1.00  0.00     0.189 HD
ENDBRANCH   1  13
TORSDOF 6
ENDMDL