MODEL 5
REMARK VINA RESULT: -6.812594846      4.669      8.642
REMARK  15 active torsions:
REMARK  status: ('A' for Active; 'I' for Inactive)
REMARK    1  A    between atoms: C2_2  and  C4_4
REMARK    2  A    between atoms: N1_6  and  C6_7
REMARK    3  A    between atoms: C6_7  and  O1_8
REMARK    4  A    between atoms: C6_7  and  N2_10
REMARK    5  A    between atoms: C9_13  and  C11_15
REMARK    6  A    between atoms: C11_15  and  C12_16
REMARK    7  A    between atoms: C12_16  and  N3_17
REMARK    8  A    between atoms: N3_17  and  C13_19
REMARK    9  A    between atoms: C16_22  and  N4_23
REMARK   10  A    between atoms: N4_23  and  N5_25
REMARK   11  A    between atoms: N5_25  and  C17_26
REMARK   12  A    between atoms: C17_26  and  C18_27
REMARK   13  A    between atoms: C18_27  and  P1_28
REMARK   14  A    between atoms: P1_28  and  O2_29
REMARK   15  A    between atoms: P1_28  and  O3_31
ROOT
HETATM    1  C12 UNL     1      -6.522 -10.000 -10.541  1.00  0.00     0.126 C
ENDROOT
BRANCH   1   2
HETATM    2  C11 UNL     1      -7.115  -9.174 -11.664  1.00  0.00     0.081 C
BRANCH   2   3
HETATM    3  C9  UNL     1      -8.590  -9.392 -11.858  1.00  0.00     0.147 C
HETATM    4  N1  UNL     1      -9.237  -8.352 -12.687  1.00  0.00    -0.313 N
HETATM    5  C5  UNL     1      -9.745  -8.525 -14.015  1.00  0.00     0.155 C
HETATM    6  C4  UNL     1     -11.087  -9.219 -14.059  1.00  0.00     0.108 C
HETATM    7  N8  UNL     1     -10.867 -10.616 -13.749  1.00  0.00    -0.330 N
HETATM    8  C19 UNL     1      -9.742 -11.235 -13.193  1.00  0.00     0.363 C
ATOM      9  H8  UNL     1     -11.644 -11.239 -13.968  1.00  0.00     0.165 HD
HETATM   10  O4  UNL     1      -8.696 -10.652 -12.511  1.00  0.00    -0.272 OA
HETATM   11  O5  UNL     1      -9.684 -12.494 -13.341  1.00  0.00    -0.238 OA
HETATM   12  C10 UNL     1      -9.237  -9.530 -10.514  1.00  0.00     0.072 C
BRANCH   4  13
HETATM   13  C6  UNL     1      -9.356  -7.127 -12.078  1.00  0.00     0.218 C
BRANCH  13  14
HETATM   14  O1  UNL     1     -10.610  -6.690 -12.048  1.00  0.00    -0.332 OA
ATOM     15  H1  UNL     1     -11.071  -6.950 -11.258  1.00  0.00     0.220 HD
ENDBRANCH  13  14
BRANCH  13  16
HETATM   16  N2  UNL     1      -8.516  -6.202 -11.475  1.00  0.00    -0.356 N
HETATM   17  C7  UNL     1      -7.562  -5.418 -12.334  1.00  0.00     0.152 C
HETATM   18  C8  UNL     1      -8.422  -5.884 -10.099  1.00  0.00     0.152 C
ENDBRANCH  13  16
ENDBRANCH   4  13
BRANCH   6  19
HETATM   19  C2  UNL     1     -11.599  -9.073 -15.489  1.00  0.00     0.002 C
HETATM   20  C1  UNL     1     -12.596  -7.960 -15.569  1.00  0.00     0.011 C
HETATM   21  C3  UNL     1     -12.091 -10.375 -16.036  1.00  0.00     0.011 C
ENDBRANCH   6  19
ENDBRANCH   2   3
ENDBRANCH   1   2
BRANCH   1  22
HETATM   22  N3  UNL     1      -5.247  -9.531 -10.077  1.00  0.00    -0.375 N
ATOM     23  H3  UNL     1      -5.006  -8.556 -10.261  1.00  0.00     0.161 HD
BRANCH  22  24
HETATM   24  C13 UNL     1      -4.291 -10.329  -9.377  1.00  0.00     0.115 A
HETATM   25  C14 UNL     1      -3.233 -10.930 -10.019  1.00  0.00     0.053 A
HETATM   26  C15 UNL     1      -2.333 -11.671  -9.269  1.00  0.00     0.054 A
HETATM   27  C16 UNL     1      -2.497 -11.802  -7.920  1.00  0.00     0.131 A
HETATM   28  N6  UNL     1      -3.547 -11.195  -7.351  1.00  0.00    -0.283 N
HETATM   29  N7  UNL     1      -4.397 -10.495  -8.045  1.00  0.00    -0.284 N
ATOM     30  H6  UNL     1      -3.685 -11.283  -6.344  1.00  0.00     0.188 HD
ATOM     31  H7  UNL     1      -5.178 -10.054  -7.559  1.00  0.00     0.188 HD
BRANCH  27  32
HETATM   32  N4  UNL     1      -1.586 -12.560  -7.120  1.00  0.00    -0.288 N
ATOM     33  H4  UNL     1      -0.659 -12.786  -7.480  1.00  0.00     0.184 HD
BRANCH  32  34
HETATM   34  N5  UNL     1      -1.959 -12.987  -5.860  1.00  0.00    -0.139 NA
BRANCH  34  35
HETATM   35  C17 UNL     1      -0.889 -13.690  -5.172  1.00  0.00     0.144 C
BRANCH  35  36
HETATM   36  C18 UNL     1      -1.157 -15.170  -5.138  1.00  0.00     0.111 C
BRANCH  36  37
HETATM   37  P1  UNL     1      -2.821 -15.536  -5.867  1.00  0.00     0.164 P
BRANCH  37  38
HETATM   38  O2  UNL     1      -2.801 -15.401  -7.587  1.00  0.00    -0.350 OA
ATOM     39  H2  UNL     1      -3.143 -14.562  -7.874  1.00  0.00     0.217 HD
ENDBRANCH  37  38
BRANCH  37  40
HETATM   40  O3  UNL     1      -3.300 -17.152  -5.411  1.00  0.00    -0.350 OA
ATOM     41  H3  UNL     1      -2.865 -17.776  -5.979  1.00  0.00     0.217 HD
ENDBRANCH  37  40
ENDBRANCH  36  37
ENDBRANCH  35  36
ENDBRANCH  34  35
ENDBRANCH  32  34
ENDBRANCH  27  32
ENDBRANCH  22  24
ENDBRANCH   1  22
TORSDOF 15
ENDMDL