MODEL 2
REMARK VINA RESULT: -7.427149382      1.617      2.734
REMARK  16 active torsions:
REMARK  status: ('A' for Active; 'I' for Inactive)
REMARK    1  A    between atoms: C2_2  and  C3_3
REMARK    2  A    between atoms: C3_3  and  C4_4
REMARK    3  A    between atoms: C4_4  and  N1_5
REMARK    4  A    between atoms: N1_5  and  C5_7
REMARK    5  A    between atoms: C5_7  and  N2_8
REMARK    6  A    between atoms: N2_8  and  C6_10
REMARK    7  A    between atoms: C6_10  and  C7_11
REMARK    8  A    between atoms: C7_11  and  O1_12
REMARK    9  A    between atoms: C8_14  and  C10_16
REMARK   10  A    between atoms: C12_23  and  N6_24
REMARK   11  A    between atoms: N6_24  and  C13_26
REMARK   12  A    between atoms: C13_26  and  C16_34
REMARK   13  A    between atoms: C14_27  and  C15_28
REMARK   14  A    between atoms: C15_28  and  P1_29
REMARK   15  A    between atoms: P1_29  and  O2_30
REMARK   16  A    between atoms: P1_29  and  O3_32
ROOT
HETATM    1  C10 UNL     1      -3.239 -11.443  -7.947  1.00  0.00     0.060 A
HETATM    2  N3  UNL     1      -4.254 -10.725  -8.409  1.00  0.00    -0.278 N
ATOM      3  H3  UNL     1      -4.877 -10.389  -7.675  1.00  0.00     0.188 HD
HETATM    4  N4  UNL     1      -4.642 -10.338  -9.669  1.00  0.00    -0.080 N
HETATM    5  C11 UNL     1      -5.825  -9.556  -9.702  1.00  0.00     0.242 A
HETATM    6  N5  UNL     1      -6.307  -9.124 -10.815  1.00  0.00    -0.185 N
ATOM      7  H5  UNL     1      -7.160  -8.565 -10.791  1.00  0.00     0.185 HD
HETATM    8  C12 UNL     1      -5.707  -9.387 -12.070  1.00  0.00     0.698 A
HETATM    9  N7  UNL     1      -4.628 -10.094 -12.098  1.00  0.00    -0.020 N
ATOM     10  H7  UNL     1      -4.191 -10.289 -12.999  1.00  0.00     0.203 HD
HETATM   11  C17 UNL     1      -4.027 -10.612 -10.915  1.00  0.00     0.718 A
HETATM   12  N8  UNL     1      -2.952 -11.297 -11.123  1.00  0.00    -0.199 N
ATOM     13  H8  UNL     1      -2.668 -11.383 -12.100  1.00  0.00     0.183 HD
HETATM   14  C18 UNL     1      -2.114 -11.947 -10.182  1.00  0.00     0.108 A
HETATM   15  C19 UNL     1      -2.248 -11.999  -8.835  1.00  0.00     0.049 A
ENDROOT
BRANCH   1  16
HETATM   16  C8  UNL     1      -3.187 -11.624  -6.537  1.00  0.00     0.010 C
HETATM   17  C5  UNL     1      -2.572 -12.449  -5.782  1.00  0.00     0.105 C
HETATM   18  C9  UNL     1      -4.058 -10.615  -5.759  1.00  0.00     0.054 C
BRANCH  17  19
HETATM   19  N1  UNL     1      -2.795 -12.299  -4.337  1.00  0.00    -0.376 N
ATOM     20  H1  UNL     1      -3.736 -12.358  -3.946  1.00  0.00     0.161 HD
BRANCH  19  21
HETATM   21  C4  UNL     1      -1.676 -12.070  -3.495  1.00  0.00     0.121 C
BRANCH  21  22
HETATM   22  C3  UNL     1      -2.058 -11.322  -2.243  1.00  0.00     0.019 C
BRANCH  22  23
HETATM   23  C2  UNL     1      -1.985  -9.844  -2.538  1.00  0.00    -0.003 C
HETATM   24  C1  UNL     1      -3.301  -9.192  -2.189  1.00  0.00     0.005 C
ENDBRANCH  22  23
ENDBRANCH  21  22
ENDBRANCH  19  21
ENDBRANCH  17  19
BRANCH  17  25
HETATM   25  N2  UNL     1      -1.701 -13.494  -6.142  1.00  0.00    -0.374 N
ATOM     26  H2  UNL     1      -0.877 -13.293  -6.709  1.00  0.00     0.161 HD
BRANCH  25  27
HETATM   27  C6  UNL     1      -1.965 -14.864  -5.710  1.00  0.00     0.147 C
BRANCH  27  28
HETATM   28  C7  UNL     1      -3.016 -15.517  -6.561  1.00  0.00     0.183 C
BRANCH  28  29
HETATM   29  O1  UNL     1      -2.695 -15.496  -7.918  1.00  0.00    -0.399 OA
ATOM     30  H1  UNL     1      -2.576 -16.367  -8.278  1.00  0.00     0.209 HD
ENDBRANCH  28  29
ENDBRANCH  27  28
ENDBRANCH  25  27
ENDBRANCH  17  25
ENDBRANCH   1  16
BRANCH   8  31
HETATM   31  N6  UNL     1      -6.285  -8.880 -13.289  1.00  0.00    -0.185 N
ATOM     32  H6  UNL     1      -5.671  -8.633 -14.065  1.00  0.00     0.184 HD
BRANCH  31  33
HETATM   33  C13 UNL     1      -7.683  -8.715 -13.435  1.00  0.00     0.122 C
HETATM   34  C14 UNL     1      -8.171  -7.494 -13.480  1.00  0.00     0.019 C
BRANCH  34  35
HETATM   35  C15 UNL     1      -7.284  -6.320 -13.381  1.00  0.00     0.122 C
BRANCH  35  36
HETATM   36  P1  UNL     1      -7.644  -5.299 -11.873  1.00  0.00     0.166 P
BRANCH  36  37
HETATM   37  O2  UNL     1      -9.123  -4.412 -12.063  1.00  0.00    -0.349 OA
ATOM     38  H2  UNL     1      -9.348  -3.950 -11.264  1.00  0.00     0.217 HD
ENDBRANCH  36  37
BRANCH  36  39
HETATM   39  O3  UNL     1      -7.672  -6.284 -10.445  1.00  0.00    -0.349 OA
ATOM     40  H3  UNL     1      -7.202  -5.865  -9.733  1.00  0.00     0.217 HD
ENDBRANCH  36  39
ENDBRANCH  35  36
ENDBRANCH  34  35
BRANCH  33  41
HETATM   41  C16 UNL     1      -8.558  -9.891 -13.533  1.00  0.00     0.227 C
HETATM   42  O4  UNL     1      -9.294 -10.017 -14.525  1.00  0.00    -0.643 OA
HETATM   43  O5  UNL     1      -8.535 -10.824 -12.514  1.00  0.00    -0.643 OA
ENDBRANCH  33  41
ENDBRANCH  31  33
ENDBRANCH   8  31
TORSDOF 16
ENDMDL