MODEL 3
REMARK VINA RESULT: -6.592130000      1.781      2.737
REMARK  18 active torsions:
REMARK  status: ('A' for Active; 'I' for Inactive)
REMARK    1  A    between atoms: C2_2  and  N1_3
REMARK    2  A    between atoms: C3_6  and  N3_7
REMARK    3  A    between atoms: C5_11  and  C6_12
REMARK    4  A    between atoms: N6_18  and  C10_19
REMARK    5  A    between atoms: C10_19  and  C11_20
REMARK    6  A    between atoms: C11_20  and  O1_21
REMARK    7  A    between atoms: C11_20  and  C12_23
REMARK    8  A    between atoms: C12_23  and  O2_24
REMARK    9  A    between atoms: O2_24  and  C13_25
REMARK   10  A    between atoms: C13_25  and  C14_26
REMARK   11  A    between atoms: C14_26  and  C15_27
REMARK   12  A    between atoms: C17_29  and  N7_30
REMARK   13  A    between atoms: N7_30  and  C18_32
REMARK   14  A    between atoms: C18_32  and  C19_33
REMARK   15  A    between atoms: C19_33  and  O3_34
REMARK   16  A    between atoms: O3_34  and  P1_35
REMARK   17  A    between atoms: P1_35  and  O4_36
REMARK   18  A    between atoms: P1_35  and  O5_38
ROOT
HETATM    1  N1  UNL     1      -6.238  -9.595 -10.261  1.00  0.00    -0.206 N
HETATM    2  N2  UNL     1      -7.211  -9.909  -9.338  1.00  0.00    -0.264 N
ATOM      3  H2  UNL     1      -6.998 -10.616  -8.635  1.00  0.00     0.190 HD
HETATM    4  C3  UNL     1      -8.353  -9.371  -9.316  1.00  0.00     0.140 A
HETATM    5  C5  UNL     1      -8.772  -8.313 -10.308  1.00  0.00     0.099 A
HETATM    6  C17 UNL     1      -7.753  -8.027 -11.241  1.00  0.00     0.135 A
HETATM    7  N8  UNL     1      -6.558  -8.654 -11.183  1.00  0.00    -0.264 N
ATOM      8  H8  UNL     1      -5.853  -8.403 -11.877  1.00  0.00     0.190 HD
ENDROOT
BRANCH   5   9
HETATM    9  C6  UNL     1     -10.018  -7.975 -10.245  1.00  0.00     0.125 A
HETATM   10  N5  UNL     1     -10.243  -6.774  -9.408  1.00  0.00    -0.351 N
HETATM   11  C7  UNL     1     -11.312  -6.142  -9.268  1.00  0.00     0.091 A
ATOM     12  H5  UNL     1      -9.437  -6.425  -8.888  1.00  0.00     0.166 HD
HETATM   13  C8  UNL     1     -12.515  -6.545  -9.960  1.00  0.00     0.034 A
HETATM   14  C9  UNL     1     -12.402  -7.598 -10.732  1.00  0.00     0.094 A
HETATM   15  N6  UNL     1     -11.186  -8.348 -10.918  1.00  0.00    -0.340 N
BRANCH  15  16
HETATM   16  C10 UNL     1     -11.157  -9.286 -11.983  1.00  0.00     0.164 C
BRANCH  16  17
HETATM   17  C11 UNL     1     -10.783  -8.748 -13.345  1.00  0.00     0.160 C
BRANCH  17  18
HETATM   18  O1  UNL     1     -11.548  -7.763 -13.872  1.00  0.00    -0.392 OA
ATOM     19  H1  UNL     1     -11.260  -6.866 -13.758  1.00  0.00     0.210 HD
ENDBRANCH  17  18
BRANCH  17  20
HETATM   20  C12 UNL     1     -10.205  -9.795 -14.238  1.00  0.00     0.200 C
BRANCH  20  21
HETATM   21  O2  UNL     1      -8.844  -9.612 -14.233  1.00  0.00    -0.389 OA
BRANCH  21  22
HETATM   22  C13 UNL     1      -8.065 -10.673 -13.889  1.00  0.00     0.167 C
BRANCH  22  23
HETATM   23  C14 UNL     1      -8.812 -11.810 -13.232  1.00  0.00     0.026 C
BRANCH  23  24
HETATM   24  C15 UNL     1      -8.119 -12.275 -11.960  1.00  0.00    -0.002 C
HETATM   25  C16 UNL     1      -8.501 -13.753 -11.792  1.00  0.00     0.005 C
ENDBRANCH  23  24
ENDBRANCH  22  23
ENDBRANCH  21  22
ENDBRANCH  20  21
ENDBRANCH  17  20
ENDBRANCH  16  17
ENDBRANCH  15  16
ENDBRANCH   5   9
BRANCH   4  26
HETATM   26  N3  UNL     1      -9.246  -9.805  -8.295  1.00  0.00    -0.339 N
HETATM   27  C4  UNL     1      -9.209  -9.422  -7.087  1.00  0.00     0.191 C
HETATM   28  N4  UNL     1      -8.227  -8.493  -6.675  1.00  0.00    -0.097 NA
ATOM     29  H3  UNL     1      -9.970 -10.476  -8.555  1.00  0.00     0.167 HD
ENDBRANCH   4  26
BRANCH   6  30
HETATM   30  N7  UNL     1      -7.817  -7.335 -12.455  1.00  0.00    -0.372 N
ATOM     31  H7  UNL     1      -8.109  -7.856 -13.282  1.00  0.00     0.161 HD
BRANCH  30  32
HETATM   32  C18 UNL     1      -7.501  -5.938 -12.620  1.00  0.00     0.148 C
BRANCH  32  33
HETATM   33  C19 UNL     1      -7.887  -4.975 -11.582  1.00  0.00     0.197 C
BRANCH  33  34
HETATM   34  O3  UNL     1      -6.937  -4.740 -10.616  1.00  0.00    -0.316 OA
BRANCH  34  35
HETATM   35  P1  UNL     1      -7.667  -4.276  -9.110  1.00  0.00     0.329 P
BRANCH  35  36
HETATM   36  O4  UNL     1      -6.581  -3.162  -8.308  1.00  0.00    -0.328 OA
ATOM     37  H4  UNL     1      -7.083  -2.396  -8.056  1.00  0.00     0.219 HD
ENDBRANCH  35  36
BRANCH  35  38
HETATM   38  O5  UNL     1      -7.924  -5.676  -8.100  1.00  0.00    -0.328 OA
ATOM     39  H5  UNL     1      -8.759  -5.613  -7.653  1.00  0.00     0.219 HD
ENDBRANCH  35  38
ENDBRANCH  34  35
ENDBRANCH  33  34
ENDBRANCH  32  33
ENDBRANCH  30  32
ENDBRANCH   6  30
BRANCH   1  40
HETATM   40  C2  UNL     1      -4.953 -10.243 -10.240  1.00  0.00     0.126 C
HETATM   41  C1  UNL     1      -4.182 -10.263  -9.185  1.00  0.00     0.033 C
ENDBRANCH   1  40
TORSDOF 18
ENDMDL