MODEL 1
REMARK VINA RESULT: -8.443572352      0.000      0.000
REMARK  13 active torsions:
REMARK  status: ('A' for Active; 'I' for Inactive)
REMARK       I    between atoms: C1_4  and  N2_5
REMARK       I    between atoms: C1_4  and  N6_28
REMARK    1  A    between atoms: N2_5  and  C2_7
REMARK    2  A    between atoms: C2_7  and  C3_8
REMARK    3  A    between atoms: C2_7  and  N3_15
REMARK    4  A    between atoms: C3_8  and  C4_9
REMARK    5  A    between atoms: C4_9  and  P1_10
REMARK    6  A    between atoms: P1_10  and  O1_11
REMARK    7  A    between atoms: P1_10  and  O2_13
REMARK       I    between atoms: N3_15  and  C5_17
REMARK    8  A    between atoms: C5_17  and  C6_19
REMARK    9  A    between atoms: C13_36  and  C14_37
REMARK   10  A    between atoms: C14_37  and  C15_38
REMARK   11  A    between atoms: C15_38  and  C16_39
REMARK   12  A    between atoms: C17_40  and  C18_41
REMARK   13  A    between atoms: C19_42  and  O5_43
ROOT
HETATM    1  N1  UNL     1      -8.237 -10.330  -9.621  1.00  0.00    -0.234 N
ATOM      2  H11 UNL     1      -7.773 -11.098  -9.137  1.00  0.00     0.174 HD
ATOM      3  H12 UNL     1      -9.032  -9.924  -9.129  1.00  0.00     0.174 HD
HETATM    4  C1  UNL     1      -7.877  -9.958 -10.693  1.00  0.00     0.681 C
HETATM    5  N2  UNL     1      -8.518  -8.897 -11.362  1.00  0.00    -0.205 N
ATOM      6  H2  UNL     1      -8.075  -8.606 -12.233  1.00  0.00     0.179 HD
HETATM    7  N6  UNL     1      -6.719 -10.548 -11.409  1.00  0.00    -0.142 N
HETATM    8  C10 UNL     1      -7.006 -11.064 -12.700  1.00  0.00     0.223 A
HETATM    9  N7  UNL     1      -5.973 -11.414 -13.449  1.00  0.00    -0.295 N
ATOM     10  H7  UNL     1      -6.125 -11.787 -14.386  1.00  0.00     0.187 HD
HETATM   11  N8  UNL     1      -4.697 -11.275 -12.964  1.00  0.00    -0.309 N
ATOM     12  H8  UNL     1      -3.954 -11.562 -13.602  1.00  0.00     0.186 HD
HETATM   13  C11 UNL     1      -4.300 -10.837 -11.830  1.00  0.00     0.137 A
HETATM   14  C12 UNL     1      -5.423 -10.418 -10.910  1.00  0.00     0.075 A
HETATM   15  C13 UNL     1      -5.153 -10.146  -9.687  1.00  0.00     0.040 C
ENDROOT
BRANCH   5  16
HETATM   16  C2  UNL     1      -9.681  -8.174 -11.013  1.00  0.00     0.202 C
BRANCH  16  17
HETATM   17  C3  UNL     1     -10.416  -7.469 -12.124  1.00  0.00     0.056 C
BRANCH  17  18
HETATM   18  C4  UNL     1     -11.477  -8.316 -12.768  1.00  0.00     0.097 C
BRANCH  18  19
HETATM   19  P1  UNL     1     -11.035  -8.932 -14.433  1.00  0.00     0.163 P
BRANCH  19  20
HETATM   20  O1  UNL     1     -11.093  -7.758 -15.670  1.00  0.00    -0.350 OA
ATOM     21  H1  UNL     1     -10.293  -7.670 -16.174  1.00  0.00     0.217 HD
ENDBRANCH  19  20
BRANCH  19  22
HETATM   22  O2  UNL     1      -9.448  -9.652 -14.402  1.00  0.00    -0.350 OA
ATOM     23  H2  UNL     1      -8.790  -8.998 -14.609  1.00  0.00     0.217 HD
ENDBRANCH  19  22
ENDBRANCH  18  19
ENDBRANCH  17  18
ENDBRANCH  16  17
BRANCH  16  24
HETATM   24  N3  UNL     1      -9.468  -7.207  -9.913  1.00  0.00    -0.335 N
HETATM   25  C5  UNL     1      -8.383  -6.286 -10.000  1.00  0.00     0.256 C
HETATM   26  O3  UNL     1      -7.601  -6.279 -10.993  1.00  0.00    -0.268 OA
ATOM     27  H3  UNL     1     -10.088  -7.200  -9.103  1.00  0.00     0.164 HD
BRANCH  25  28
HETATM   28  C6  UNL     1      -8.157  -5.327  -8.938  1.00  0.00     0.063 A
HETATM   29  C7  UNL     1      -8.737  -5.460  -7.702  1.00  0.00     0.111 A
HETATM   30  N4  UNL     1      -8.435  -4.555  -6.748  1.00  0.00    -0.318 N
HETATM   31  C8  UNL     1      -7.584  -3.534  -6.963  1.00  0.00     0.324 A
ATOM     32  H4  UNL     1      -8.869  -4.647  -5.829  1.00  0.00     0.170 HD
HETATM   33  O4  UNL     1      -7.305  -2.714  -6.073  1.00  0.00    -0.247 OA
HETATM   34  N5  UNL     1      -7.015  -3.397  -8.168  1.00  0.00    -0.318 N
HETATM   35  C9  UNL     1      -7.276  -4.265  -9.170  1.00  0.00     0.111 A
ATOM     36  H5  UNL     1      -6.371  -2.623  -8.331  1.00  0.00     0.170 HD
ENDBRANCH  25  28
ENDBRANCH  16  24
ENDBRANCH   5  16
BRANCH  15  37
HETATM   37  C14 UNL     1      -3.747 -10.000  -9.209  1.00  0.00     0.058 C
BRANCH  37  38
HETATM   38  C15 UNL     1      -3.150 -10.949  -8.740  1.00  0.00    -0.128 C
BRANCH  38  39
HETATM   39  C16 UNL     1      -2.452 -12.047  -8.200  1.00  0.00     0.055 C
HETATM   40  C17 UNL     1      -2.462 -12.472  -6.966  1.00  0.00     0.010 C
BRANCH  40  41
HETATM   41  C18 UNL     1      -3.180 -11.946  -5.830  1.00  0.00     0.024 C
HETATM   42  C19 UNL     1      -2.499 -12.022  -4.627  1.00  0.00     0.131 C
BRANCH  42  43
HETATM   43  O5  UNL     1      -1.256 -12.581  -4.680  1.00  0.00    -0.373 OA
ATOM     44  H5  UNL     1      -0.861 -12.794  -3.843  1.00  0.00     0.216 HD
ENDBRANCH  42  43
ENDBRANCH  40  41
ENDBRANCH  38  39
ENDBRANCH  37  38
ENDBRANCH  15  37
TORSDOF 13
ENDMDL