MODEL 1
REMARK VINA RESULT: -7.145639380      0.000      0.000
REMARK  19 active torsions:
REMARK  status: ('A' for Active; 'I' for Inactive)
REMARK    1  A    between atoms: C2_2  and  C3_3
REMARK    2  A    between atoms: C2_2  and  C5_10
REMARK    3  A    between atoms: C3_3  and  C4_4
REMARK    4  A    between atoms: C4_4  and  P1_5
REMARK    5  A    between atoms: P1_5  and  O1_6
REMARK    6  A    between atoms: P1_5  and  O2_8
REMARK       I    between atoms: C5_10  and  N1_12
REMARK    7  A    between atoms: N1_12  and  C6_14
REMARK    8  A    between atoms: C6_14  and  C7_15
REMARK    9  A    between atoms: C6_14  and  N8_35
REMARK   10  A    between atoms: C7_15  and  C8_16
REMARK   11  A    between atoms: C8_16  and  N2_17
REMARK   12  A    between atoms: N2_17  and  C9_19
REMARK   13  A    between atoms: C9_19  and  N7_31
REMARK   14  A    between atoms: N7_31  and  C14_33
REMARK   15  A    between atoms: N8_35  and  C15_36
REMARK   16  A    between atoms: N8_35  and  C17_38
REMARK   17  A    between atoms: C17_38  and  C18_39
REMARK   18  A    between atoms: C18_39  and  C19_40
REMARK   19  A    between atoms: C19_40  and  O5_41
ROOT
HETATM    1  C6  UNL     1      -7.903  -9.409 -12.007  1.00  0.00     0.325 C
ENDROOT
BRANCH   1   2
HETATM    2  N1  UNL     1      -6.656  -9.918 -11.321  1.00  0.00    -0.326 N
HETATM    3  C5  UNL     1      -6.140  -9.576 -10.110  1.00  0.00     0.260 C
HETATM    4  O3  UNL     1      -6.684  -8.769  -9.327  1.00  0.00    -0.267 OA
ATOM      5  H1  UNL     1      -6.127 -10.618 -11.841  1.00  0.00     0.165 HD
BRANCH   3   6
HETATM    6  C2  UNL     1      -4.871 -10.144  -9.619  1.00  0.00     0.068 C
HETATM    7  C1  UNL     1      -4.700 -10.231  -8.246  1.00  0.00     0.038 C
BRANCH   6   8
HETATM    8  C3  UNL     1      -3.810 -10.611 -10.338  1.00  0.00    -0.107 C
BRANCH   8   9
HETATM    9  C4  UNL     1      -2.827 -11.080 -11.012  1.00  0.00     0.121 C
BRANCH   9  10
HETATM   10  P1  UNL     1      -3.186 -11.942 -12.636  1.00  0.00     0.197 P
BRANCH  10  11
HETATM   11  O1  UNL     1      -4.904 -12.053 -12.861  1.00  0.00    -0.346 OA
ATOM     12  H1  UNL     1      -5.337 -11.996 -12.017  1.00  0.00     0.217 HD
ENDBRANCH  10  11
BRANCH  10  13
HETATM   13  O2  UNL     1      -2.526 -13.524 -12.655  1.00  0.00    -0.346 OA
ATOM     14  H2  UNL     1      -2.793 -13.997 -13.434  1.00  0.00     0.217 HD
ENDBRANCH  10  13
ENDBRANCH   9  10
ENDBRANCH   8   9
ENDBRANCH   6   8
ENDBRANCH   3   6
ENDBRANCH   1   2
BRANCH   1  15
HETATM   15  C7  UNL     1      -7.570  -8.147 -12.650  1.00  0.00     0.077 C
BRANCH  15  16
HETATM   16  C8  UNL     1      -8.028  -6.834 -12.076  1.00  0.00     0.125 C
BRANCH  16  17
HETATM   17  N2  UNL     1      -9.225  -6.954 -11.305  1.00  0.00    -0.373 N
ATOM     18  H2  UNL     1      -9.820  -7.760 -11.494  1.00  0.00     0.161 HD
BRANCH  17  19
HETATM   19  C9  UNL     1      -9.671  -6.031 -10.276  1.00  0.00     0.151 C
HETATM   20  C10 UNL     1     -10.850  -5.428 -10.517  1.00  0.00     0.167 A
HETATM   21  N3  UNL     1     -11.403  -4.517  -9.612  1.00  0.00    -0.268 N
HETATM   22  N6  UNL     1     -11.636  -5.721 -11.673  1.00  0.00    -0.327 N
HETATM   23  N4  UNL     1     -12.559  -3.977  -9.817  1.00  0.00    -0.240 N
ATOM     24  H3  UNL     1     -10.882  -4.272  -8.770  1.00  0.00     0.190 HD
HETATM   25  N5  UNL     1     -13.304  -4.276 -10.942  1.00  0.00    -0.275 N
ATOM     26  H4  UNL     1     -12.928  -3.316  -9.135  1.00  0.00     0.208 HD
HETATM   27  C11 UNL     1     -12.924  -5.091 -11.858  1.00  0.00     0.094 A
ATOM     28  H5  UNL     1     -14.211  -3.822 -11.050  1.00  0.00     0.189 HD
HETATM   29  C12 UNL     1     -13.784  -5.355 -13.020  1.00  0.00     0.090 C
ATOM     30  H6  UNL     1     -11.287  -6.376 -12.372  1.00  0.00     0.169 HD
BRANCH  19  31
HETATM   31  N7  UNL     1      -8.924  -5.718  -9.155  1.00  0.00    -0.313 N
HETATM   32  C13 UNL     1      -9.081  -6.564  -7.940  1.00  0.00     0.160 C
BRANCH  31  33
HETATM   33  C14 UNL     1      -8.047  -4.641  -8.970  1.00  0.00     0.356 C
HETATM   34  O4  UNL     1      -6.785  -4.757  -9.256  1.00  0.00    -0.283 OA
ENDBRANCH  31  33
ENDBRANCH  19  31
ENDBRANCH  17  19
ENDBRANCH  16  17
ENDBRANCH  15  16
ENDBRANCH   1  15
BRANCH   1  35
HETATM   35  N8  UNL     1      -8.387 -10.528 -12.710  1.00  0.00     0.111 N
BRANCH  35  36
HETATM   36  C15 UNL     1      -8.871 -11.541 -11.758  1.00  0.00     0.270 C
HETATM   37  C16 UNL     1      -8.460 -12.924 -12.105  1.00  0.00     0.037 C
ENDBRANCH  35  36
BRANCH  35  38
HETATM   38  C17 UNL     1      -9.242 -10.407 -13.815  1.00  0.00     0.277 C
BRANCH  38  39
HETATM   39  C18 UNL     1     -10.684 -10.068 -13.464  1.00  0.00     0.056 C
BRANCH  39  40
HETATM   40  C19 UNL     1     -11.155  -8.956 -14.405  1.00  0.00     0.165 C
BRANCH  40  41
HETATM   41  O5  UNL     1     -11.017  -7.731 -13.703  1.00  0.00    -0.401 OA
ATOM     42  H5  UNL     1     -11.705  -7.706 -13.048  1.00  0.00     0.209 HD
ENDBRANCH  40  41
ENDBRANCH  39  40
ENDBRANCH  38  39
ENDBRANCH  35  38
ENDBRANCH   1  35
TORSDOF 19
ENDMDL