MODEL 3
REMARK VINA RESULT: -7.263886904      4.333      8.692
REMARK  15 active torsions:
REMARK  status: ('A' for Active; 'I' for Inactive)
REMARK    1  A    between atoms: C2_2  and  N1_3
REMARK    2  A    between atoms: C2_2  and  C3_7
REMARK    3  A    between atoms: C3_7  and  C4_8
REMARK       I    between atoms: C4_8  and  N2_10
REMARK    4  A    between atoms: N2_10  and  C5_12
REMARK    5  A    between atoms: C5_12  and  C6_13
REMARK    6  A    between atoms: C8_19  and  C9_20
REMARK    7  A    between atoms: C9_20  and  N6_34
REMARK    8  A    between atoms: N5_21  and  C10_23
REMARK    9  A    between atoms: C13_26  and  P1_27
REMARK   10  A    between atoms: P1_27  and  O2_28
REMARK   11  A    between atoms: P1_27  and  O3_30
REMARK       I    between atoms: N6_34  and  C16_36
REMARK       I    between atoms: C16_36  and  N7_38
REMARK   12  A    between atoms: N7_38  and  C17_40
REMARK   13  A    between atoms: C17_40  and  C18_41
REMARK   14  A    between atoms: C18_41  and  C19_42
REMARK   15  A    between atoms: C19_42  and  O5_43
ROOT
HETATM    1  C9  UNL     1     -10.262  -8.090 -12.663  1.00  0.00     0.138 C
HETATM    2  N5  UNL     1     -10.877  -7.017 -12.218  1.00  0.00    -0.340 N
ATOM      3  H5  UNL     1     -11.770  -6.715 -12.608  1.00  0.00     0.167 HD
ENDROOT
BRANCH   1   4
HETATM    4  C8  UNL     1     -10.914  -8.823 -13.733  1.00  0.00     0.095 A
HETATM    5  C7  UNL     1     -10.893 -10.185 -13.721  1.00  0.00     0.140 A
HETATM    6  N4  UNL     1     -11.506 -10.859 -14.715  1.00  0.00    -0.308 N
HETATM    7  N3  UNL     1     -12.106 -10.186 -15.665  1.00  0.00    -0.288 N
ATOM      8  H4  UNL     1     -11.501 -11.879 -14.727  1.00  0.00     0.186 HD
HETATM    9  C6  UNL     1     -12.140  -8.861 -15.698  1.00  0.00     0.114 A
ATOM     10  H3  UNL     1     -12.567 -10.704 -16.413  1.00  0.00     0.188 HD
HETATM   11  N8  UNL     1     -11.534  -8.162 -14.715  1.00  0.00    -0.339 N
ATOM     12  H8  UNL     1     -11.550  -7.142 -14.720  1.00  0.00     0.167 HD
BRANCH   9  13
HETATM   13  C5  UNL     1     -12.799  -8.076 -16.759  1.00  0.00     0.200 C
BRANCH  13  14
HETATM   14  N2  UNL     1     -13.911  -7.332 -16.186  1.00  0.00    -0.354 N
HETATM   15  C4  UNL     1     -14.807  -6.589 -16.992  1.00  0.00     0.219 C
HETATM   16  O1  UNL     1     -14.694  -6.529 -18.241  1.00  0.00    -0.274 OA
ATOM     17  H2  UNL     1     -14.049  -7.346 -15.175  1.00  0.00     0.162 HD
BRANCH  15  18
HETATM   18  C3  UNL     1     -15.915  -5.856 -16.343  1.00  0.00     0.135 C
BRANCH  18  19
HETATM   19  C2  UNL     1     -15.429  -4.506 -15.820  1.00  0.00     0.188 C
HETATM   20  C1  UNL     1     -16.565  -3.677 -15.336  1.00  0.00     0.040 C
BRANCH  19  21
HETATM   21  N1  UNL     1     -14.672  -3.859 -16.874  1.00  0.00    -0.075 N
ATOM     22  H13 UNL     1     -14.680  -4.417 -17.727  1.00  0.00     0.274 HD
ATOM     23  H12 UNL     1     -15.157  -3.029 -17.216  1.00  0.00     0.274 HD
ATOM     24  H11 UNL     1     -13.717  -3.634 -16.593  1.00  0.00     0.274 HD
ENDBRANCH  19  21
ENDBRANCH  18  19
ENDBRANCH  15  18
ENDBRANCH  13  14
ENDBRANCH   9  13
ENDBRANCH   1   4
BRANCH   1  25
HETATM   25  N6  UNL     1      -9.037  -8.491 -12.114  1.00  0.00    -0.293 N
HETATM   26  C16 UNL     1      -7.844  -8.499 -12.853  1.00  0.00     0.321 C
HETATM   27  O4  UNL     1      -7.837  -8.146 -14.043  1.00  0.00    -0.247 OA
HETATM   28  N7  UNL     1      -6.611  -8.910 -12.262  1.00  0.00    -0.343 N
ATOM     29  H7  UNL     1      -6.623  -9.207 -11.286  1.00  0.00     0.164 HD
ATOM     30  H6  UNL     1      -9.011  -8.789 -11.140  1.00  0.00     0.172 HD
BRANCH  28  31
HETATM   31  C17 UNL     1      -5.361  -8.929 -12.958  1.00  0.00     0.126 C
BRANCH  31  32
HETATM   32  C18 UNL     1      -4.492 -10.077 -12.529  1.00  0.00     0.046 C
BRANCH  32  33
HETATM   33  C19 UNL     1      -5.351 -11.341 -12.511  1.00  0.00     0.165 C
BRANCH  33  34
HETATM   34  O5  UNL     1      -6.141 -11.423 -13.650  1.00  0.00    -0.401 OA
ATOM     35  H5  UNL     1      -6.938 -11.910 -13.478  1.00  0.00     0.209 HD
ENDBRANCH  33  34
ENDBRANCH  32  33
ENDBRANCH  31  32
ENDBRANCH  28  31
ENDBRANCH   1  25
BRANCH   2  36
HETATM   36  C10 UNL     1     -10.241  -6.292 -11.167  1.00  0.00     0.033 A
HETATM   37  C11 UNL     1      -9.236  -5.382 -11.451  1.00  0.00     0.030 A
HETATM   38  C12 UNL     1      -8.616  -4.680 -10.444  1.00  0.00     0.019 A
HETATM   39  C13 UNL     1      -8.982  -4.869  -9.130  1.00  0.00     0.022 A
HETATM   40  C14 UNL     1      -9.987  -5.779  -8.839  1.00  0.00     0.019 A
HETATM   41  C15 UNL     1     -10.615  -6.487  -9.838  1.00  0.00     0.030 A
BRANCH  39  42
HETATM   42  P1  UNL     1      -8.155  -3.936  -7.805  1.00  0.00     0.200 P
BRANCH  42  43
HETATM   43  O2  UNL     1      -6.666  -3.307  -8.429  1.00  0.00    -0.346 OA
ATOM     44  H2  UNL     1      -6.508  -2.461  -8.028  1.00  0.00     0.217 HD
ENDBRANCH  42  43
BRANCH  42  45
HETATM   45  O3  UNL     1      -7.843  -5.011  -6.482  1.00  0.00    -0.346 OA
ATOM     46  H3  UNL     1      -8.341  -4.718  -5.728  1.00  0.00     0.217 HD
ENDBRANCH  42  45
ENDBRANCH  39  42
ENDBRANCH   2  36
TORSDOF 15
ENDMDL