MODEL 4
REMARK VINA RESULT: -7.165303441      1.712      2.495
REMARK  14 active torsions:
REMARK  status: ('A' for Active; 'I' for Inactive)
REMARK    1  A    between atoms: N1_1  and  C1_5
REMARK    2  A    between atoms: C1_5  and  C2_6
REMARK    3  A    between atoms: C2_6  and  O1_7
REMARK    4  A    between atoms: O1_7  and  C3_8
REMARK    5  A    between atoms: C3_8  and  C4_9
REMARK    6  A    between atoms: C4_9  and  N2_10
REMARK    7  A    between atoms: C6_16  and  N5_17
REMARK    8  A    between atoms: C11_26  and  C12_27
REMARK    9  A    between atoms: C12_27  and  N8_28
REMARK   10  A    between atoms: N8_28  and  C13_30
REMARK   11  A    between atoms: C16_33  and  P1_34
REMARK   12  A    between atoms: P1_34  and  O3_35
REMARK   13  A    between atoms: P1_34  and  O4_37
REMARK   14  A    between atoms: O4_37  and  O5_38
ROOT
HETATM    1  C3  UNL     1      -9.920  -7.662 -11.002  1.00  0.00     0.090 C
HETATM    2  C8  UNL     1      -9.729  -8.043 -12.448  1.00  0.00     0.067 C
HETATM    3  C9  UNL     1      -9.869  -9.495 -12.740  1.00  0.00     0.170 C
HETATM    4  O2  UNL     1      -9.298 -10.341 -11.786  1.00  0.00    -0.390 OA
HETATM    5  C10 UNL     1      -9.840 -10.118 -10.527  1.00  0.00     0.180 C
HETATM    6  C11 UNL     1      -9.354  -8.719 -10.132  1.00  0.00     0.084 C
ENDROOT
BRANCH   1   7
HETATM    7  O1  UNL     1      -9.206  -6.469 -10.795  1.00  0.00    -0.376 OA
BRANCH   7   8
HETATM    8  C2  UNL     1      -8.793  -5.841 -11.931  1.00  0.00     0.196 C
BRANCH   8   9
HETATM    9  C1  UNL     1      -7.541  -4.988 -11.679  1.00  0.00     0.255 C
BRANCH   9  10
HETATM   10  N1  UNL     1      -7.209  -4.875 -10.323  1.00  0.00    -0.077 N
ATOM     11  H13 UNL     1      -7.364  -3.923  -9.989  1.00  0.00     0.274 HD
ATOM     12  H12 UNL     1      -7.887  -5.369  -9.742  1.00  0.00     0.274 HD
ATOM     13  H11 UNL     1      -6.260  -5.183 -10.112  1.00  0.00     0.274 HD
ENDBRANCH   9  10
ENDBRANCH   8   9
ENDBRANCH   7   8
ENDBRANCH   1   7
BRANCH   1  14
HETATM   14  C4  UNL     1     -11.390  -7.453 -10.758  1.00  0.00     0.187 C
BRANCH  14  15
HETATM   15  N2  UNL     1     -11.859  -6.134 -10.560  1.00  0.00    -0.174 N
HETATM   16  C5  UNL     1     -12.577  -5.288 -11.356  1.00  0.00     0.218 A
HETATM   17  N3  UNL     1     -12.848  -4.133 -10.736  1.00  0.00    -0.281 N
HETATM   18  N4  UNL     1     -12.327  -4.196  -9.559  1.00  0.00    -0.131 N
ATOM     19  H3  UNL     1     -13.371  -3.347 -11.124  1.00  0.00     0.188 HD
HETATM   20  C6  UNL     1     -11.715  -5.390  -9.406  1.00  0.00     0.702 A
ATOM     21  H4  UNL     1     -12.369  -3.460  -8.854  1.00  0.00     0.205 HD
BRANCH  20  22
HETATM   22  N5  UNL     1     -10.987  -5.774  -8.254  1.00  0.00    -0.164 N
HETATM   23  C7  UNL     1      -9.970  -5.129  -7.845  1.00  0.00     0.215 C
HETATM   24  N6  UNL     1      -9.516  -3.984  -8.529  1.00  0.00    -0.066 NA
HETATM   25  N7  UNL     1      -9.260  -5.557  -6.667  1.00  0.00    -0.066 NA
ATOM     26  H5  UNL     1     -11.289  -6.598  -7.733  1.00  0.00     0.186 HD
ENDBRANCH  20  22
ENDBRANCH  14  15
ENDBRANCH   1  14
BRANCH   6  27
HETATM   27  C12 UNL     1      -7.923  -8.758  -9.866  1.00  0.00     0.071 C
BRANCH  27  28
HETATM   28  N8  UNL     1      -6.946  -8.454 -10.839  1.00  0.00    -0.369 N
ATOM     29  H8  UNL     1      -6.945  -7.535 -11.282  1.00  0.00     0.165 HD
BRANCH  28  30
HETATM   30  C13 UNL     1      -5.935  -9.441 -11.218  1.00  0.00     0.031 A
HETATM   31  C14 UNL     1      -5.057  -9.862 -10.254  1.00  0.00     0.030 A
HETATM   32  C15 UNL     1      -4.097 -10.795 -10.610  1.00  0.00     0.019 A
HETATM   33  C16 UNL     1      -4.029 -11.283 -11.898  1.00  0.00     0.025 A
HETATM   34  C17 UNL     1      -4.928 -10.841 -12.849  1.00  0.00     0.019 A
HETATM   35  C18 UNL     1      -5.871  -9.921 -12.487  1.00  0.00     0.030 A
BRANCH  33  36
HETATM   36  P1  UNL     1      -2.764 -12.511 -12.365  1.00  0.00     0.239 P
BRANCH  36  37
HETATM   37  O3  UNL     1      -2.143 -13.269 -10.909  1.00  0.00    -0.344 OA
ATOM     38  H3  UNL     1      -2.456 -12.787 -10.153  1.00  0.00     0.217 HD
ENDBRANCH  36  37
BRANCH  36  39
HETATM   39  O4  UNL     1      -1.494 -11.829 -13.288  1.00  0.00    -0.181 OA
BRANCH  39  40
HETATM   40  O5  UNL     1      -1.713 -11.878 -14.584  1.00  0.00    -0.244 OA
ATOM     41  H5  UNL     1      -1.692 -12.761 -14.932  1.00  0.00     0.254 HD
ENDBRANCH  39  40
ENDBRANCH  36  39
ENDBRANCH  33  36
ENDBRANCH  28  30
ENDBRANCH  27  28
ENDBRANCH   6  27
TORSDOF 14
ENDMDL