MODEL 2
REMARK VINA RESULT: -7.244375193      0.845      1.168
REMARK  15 active torsions:
REMARK  status: ('A' for Active; 'I' for Inactive)
REMARK    1  A    between atoms: C2_2  and  C3_3
REMARK    2  A    between atoms: C2_2  and  N8_31
REMARK    3  A    between atoms: C3_3  and  C4_4
REMARK    4  A    between atoms: C4_4  and  N1_5
REMARK       I    between atoms: N1_5  and  C5_7
REMARK    5  A    between atoms: C5_7  and  C6_9
REMARK    6  A    between atoms: C6_9  and  O2_10
REMARK    7  A    between atoms: C6_9  and  C7_12
REMARK    8  A    between atoms: C7_12  and  N2_13
REMARK    9  A    between atoms: C10_18  and  N4_19
REMARK   10  A    between atoms: N8_31  and  C16_33
REMARK   11  A    between atoms: C16_33  and  C17_34
REMARK   12  A    between atoms: C17_34  and  C18_35
REMARK   13  A    between atoms: C18_35  and  P1_36
REMARK   14  A    between atoms: P1_36  and  O4_37
REMARK   15  A    between atoms: P1_36  and  O5_39
ROOT
HETATM    1  C6  UNL     1      -8.950 -11.564 -13.224  1.00  0.00     0.228 C
ENDROOT
BRANCH   1   2
HETATM    2  C5  UNL     1     -10.354 -11.370 -12.820  1.00  0.00     0.248 C
HETATM    3  N1  UNL     1     -10.662 -10.748 -11.594  1.00  0.00    -0.359 N
ATOM      4  H1  UNL     1      -9.914 -10.425 -10.981  1.00  0.00     0.162 HD
HETATM    5  O1  UNL     1     -11.270 -11.762 -13.572  1.00  0.00    -0.271 OA
BRANCH   3   6
HETATM    6  C4  UNL     1     -12.045 -10.570 -11.212  1.00  0.00     0.124 C
BRANCH   6   7
HETATM    7  C3  UNL     1     -12.207 -10.518  -9.717  1.00  0.00     0.044 C
BRANCH   7   8
HETATM    8  C2  UNL     1     -12.602  -9.134  -9.204  1.00  0.00     0.078 C
HETATM    9  C1  UNL     1     -13.609  -8.460 -10.060  1.00  0.00     0.032 C
BRANCH   8  10
HETATM   10  N8  UNL     1     -11.427  -8.382  -8.998  1.00  0.00    -0.398 N
ATOM     11  H8  UNL     1     -10.731  -8.729  -8.338  1.00  0.00     0.159 HD
BRANCH  10  12
HETATM   12  C16 UNL     1     -11.185  -7.182  -9.662  1.00  0.00     0.056 C
BRANCH  12  13
HETATM   13  C17 UNL     1     -10.198  -7.096 -10.760  1.00  0.00     0.053 C
BRANCH  13  14
HETATM   14  C18 UNL     1      -9.820  -5.670 -11.155  1.00  0.00     0.098 C
BRANCH  14  15
HETATM   15  P1  UNL     1      -8.060  -5.438 -10.542  1.00  0.00     0.163 P
BRANCH  15  16
HETATM   16  O4  UNL     1      -7.510  -6.953  -9.882  1.00  0.00    -0.350 OA
ATOM     17  H4  UNL     1      -6.714  -6.791  -9.389  1.00  0.00     0.217 HD
ENDBRANCH  15  16
BRANCH  15  18
HETATM   18  O5  UNL     1      -7.010  -5.019 -11.840  1.00  0.00    -0.350 OA
ATOM     19  H5  UNL     1      -6.206  -4.635 -11.513  1.00  0.00     0.217 HD
ENDBRANCH  15  18
ENDBRANCH  14  15
ENDBRANCH  13  14
ENDBRANCH  12  13
ENDBRANCH  10  12
ENDBRANCH   8  10
ENDBRANCH   7   8
ENDBRANCH   6   7
ENDBRANCH   3   6
ENDBRANCH   1   2
BRANCH   1  20
HETATM   20  O2  UNL     1      -8.712 -12.955 -13.291  1.00  0.00    -0.384 OA
ATOM     21  H2  UNL     1      -8.425 -13.156 -14.175  1.00  0.00     0.210 HD
ENDBRANCH   1  20
BRANCH   1  22
HETATM   22  C7  UNL     1      -7.999 -11.055 -12.160  1.00  0.00     0.172 C
BRANCH  22  23
HETATM   23  N2  UNL     1      -7.463  -9.781 -12.613  1.00  0.00    -0.325 N
HETATM   24  C8  UNL     1      -8.109  -8.787 -13.241  1.00  0.00     0.184 A
HETATM   25  N3  UNL     1      -7.272  -7.761 -13.493  1.00  0.00    -0.358 N
HETATM   26  C9  UNL     1      -6.072  -8.085 -13.030  1.00  0.00     0.138 A
ATOM     27  H3  UNL     1      -7.517  -6.888 -13.960  1.00  0.00     0.166 HD
HETATM   28  C10 UNL     1      -6.187  -9.343 -12.479  1.00  0.00     0.135 A
BRANCH  28  29
HETATM   29  N4  UNL     1      -5.134 -10.087 -11.864  1.00  0.00    -0.242 N
HETATM   30  C11 UNL     1      -4.385 -10.898 -12.663  1.00  0.00     0.212 A
HETATM   31  N5  UNL     1      -3.379 -11.617 -12.120  1.00  0.00    -0.186 N
HETATM   32  C12 UNL     1      -3.092 -11.557 -10.809  1.00  0.00     0.693 A
ATOM     33  H5  UNL     1      -2.821 -12.223 -12.723  1.00  0.00     0.185 HD
HETATM   34  N6  UNL     1      -2.170 -12.149 -10.018  1.00  0.00    -0.200 N
HETATM   35  N7  UNL     1      -3.833 -10.751  -9.999  1.00  0.00    -0.105 N
HETATM   36  C13 UNL     1      -2.307 -11.741  -8.739  1.00  0.00     0.124 A
ATOM     37  H6  UNL     1      -1.468 -12.813 -10.343  1.00  0.00     0.183 HD
HETATM   38  C14 UNL     1      -3.359 -10.862  -8.749  1.00  0.00     0.137 A
HETATM   39  C15 UNL     1      -4.838 -10.038 -10.565  1.00  0.00     0.354 A
HETATM   40  O3  UNL     1      -5.538  -9.279  -9.819  1.00  0.00    -0.245 OA
ENDBRANCH  28  29
ENDBRANCH  22  23
ENDBRANCH   1  22
TORSDOF 15
ENDMDL