MODEL 2
REMARK VINA RESULT: -7.330401185      3.998      6.497
REMARK  16 active torsions:
REMARK  status: ('A' for Active; 'I' for Inactive)
REMARK    1  A    between atoms: C2_2  and  O1_3
REMARK    2  A    between atoms: O1_3  and  P1_4
REMARK    3  A    between atoms: P1_4  and  O2_5
REMARK    4  A    between atoms: P1_4  and  O3_8
REMARK    5  A    between atoms: O2_5  and  C3_6
REMARK    6  A    between atoms: O3_8  and  C5_9
REMARK    7  A    between atoms: C5_9  and  C6_10
REMARK    8  A    between atoms: C6_10  and  N1_11
REMARK    9  A    between atoms: N1_11  and  C7_13
REMARK   10  A    between atoms: C9_17  and  C10_18
REMARK   11  A    between atoms: N3_19  and  N4_21
REMARK   12  A    between atoms: C11_24  and  C13_26
REMARK       I    between atoms: C13_26  and  N5_28
REMARK   13  A    between atoms: N5_28  and  C14_30
REMARK   14  A    between atoms: C14_30  and  C15_31
REMARK   15  A    between atoms: C15_31  and  O5_32
REMARK   16  A    between atoms: C17_35  and  C18_36
ROOT
HETATM    1  C7  UNL     1      -9.236 -10.350  -9.870  1.00  0.00     0.119 C
HETATM    2  N2  UNL     1      -8.629  -9.848 -10.945  1.00  0.00    -0.344 N
ATOM      3  H2  UNL     1      -7.969  -9.070 -10.954  1.00  0.00     0.167 HD
HETATM    4  C8  UNL     1      -9.091 -10.639 -12.154  1.00  0.00     0.033 C
HETATM    5  C9  UNL     1      -8.359 -11.567 -12.713  1.00  0.00     0.045 C
HETATM    6  C11 UNL     1     -10.478 -10.322 -12.440  1.00  0.00     0.098 C
HETATM    7  C12 UNL     1     -10.718  -8.798 -12.224  1.00  0.00     0.037 C
HETATM    8  C16 UNL     1     -11.155 -10.997 -11.229  1.00  0.00     0.017 C
HETATM    9  C17 UNL     1     -10.560 -10.988 -10.047  1.00  0.00     0.051 C
ENDROOT
BRANCH   1  10
HETATM   10  N1  UNL     1      -9.002  -9.879  -8.538  1.00  0.00    -0.353 N
ATOM     11  H1  UNL     1      -9.292 -10.514  -7.794  1.00  0.00     0.166 HD
BRANCH  10  12
HETATM   12  C6  UNL     1      -8.438  -8.688  -8.111  1.00  0.00     0.089 C
BRANCH  12  13
HETATM   13  C5  UNL     1      -8.862  -7.320  -8.484  1.00  0.00     0.222 C
BRANCH  13  14
HETATM   14  O3  UNL     1      -7.868  -6.988  -9.493  1.00  0.00    -0.312 OA
BRANCH  14  15
HETATM   15  P1  UNL     1      -8.537  -5.649 -10.429  1.00  0.00     0.334 P
BRANCH  15  16
HETATM   16  O1  UNL     1      -6.958  -5.111 -11.354  1.00  0.00    -0.318 OA
BRANCH  16  17
HETATM   17  C2  UNL     1      -7.337  -5.335 -12.671  1.00  0.00     0.173 C
HETATM   18  C1  UNL     1      -6.999  -6.740 -13.071  1.00  0.00     0.034 C
ENDBRANCH  16  17
ENDBRANCH  15  16
BRANCH  15  19
HETATM   19  O2  UNL     1      -8.540  -4.150  -9.466  1.00  0.00    -0.318 OA
BRANCH  19  20
HETATM   20  C3  UNL     1      -7.357  -4.022  -8.797  1.00  0.00     0.173 C
HETATM   21  C4  UNL     1      -7.674  -3.847  -7.312  1.00  0.00     0.034 C
ENDBRANCH  19  20
ENDBRANCH  15  19
ENDBRANCH  14  15
ENDBRANCH  13  14
ENDBRANCH  12  13
ENDBRANCH  10  12
ENDBRANCH   1  10
BRANCH   9  22
HETATM   22  C18 UNL     1     -11.142 -11.813  -8.940  1.00  0.00     0.134 A
HETATM   23  N6  UNL     1     -12.137 -11.407  -8.096  1.00  0.00    -0.336 N
HETATM   24  C19 UNL     1     -12.378 -12.395  -7.190  1.00  0.00     0.199 A
ATOM     25  H6  UNL     1     -12.620 -10.510  -8.137  1.00  0.00     0.168 HD
HETATM   26  N7  UNL     1     -11.536 -13.392  -7.502  1.00  0.00    -0.295 N
HETATM   27  N8  UNL     1     -10.788 -13.012  -8.570  1.00  0.00    -0.284 N
ATOM     28  H7  UNL     1     -11.469 -14.288  -7.018  1.00  0.00     0.187 HD
ATOM     29  H8  UNL     1     -10.063 -13.576  -9.014  1.00  0.00     0.188 HD
ENDBRANCH   9  22
BRANCH   5  30
HETATM   30  C10 UNL     1      -7.025 -11.977 -12.257  1.00  0.00     0.108 C
HETATM   31  N3  UNL     1      -5.972 -11.445 -12.783  1.00  0.00    -0.318 N
ATOM     32  H3  UNL     1      -5.051 -11.734 -12.454  1.00  0.00     0.185 HD
BRANCH  31  33
HETATM   33  N4  UNL     1      -6.067 -10.470 -13.806  1.00  0.00    -0.345 N
ATOM     34  H42 UNL     1      -6.763 -10.607 -14.539  1.00  0.00     0.176 HD
ATOM     35  H41 UNL     1      -5.461  -9.650 -13.818  1.00  0.00     0.176 HD
ENDBRANCH  31  33
ENDBRANCH   5  30
BRANCH   6  36
HETATM   36  C13 UNL     1     -11.091 -10.643 -13.698  1.00  0.00     0.235 C
HETATM   37  O4  UNL     1     -11.483 -11.785 -14.109  1.00  0.00    -0.272 OA
HETATM   38  N5  UNL     1     -11.305  -9.570 -14.626  1.00  0.00    -0.358 N
ATOM     39  H5  UNL     1     -11.020  -8.621 -14.386  1.00  0.00     0.162 HD
BRANCH  38  40
HETATM   40  C14 UNL     1     -11.938  -9.844 -15.926  1.00  0.00     0.148 C
BRANCH  40  41
HETATM   41  C15 UNL     1     -12.069  -8.553 -16.718  1.00  0.00     0.183 C
BRANCH  41  42
HETATM   42  O5  UNL     1     -11.161  -7.639 -16.078  1.00  0.00    -0.399 OA
ATOM     43  H5  UNL     1     -11.708  -6.916 -15.795  1.00  0.00     0.209 HD
ENDBRANCH  41  42
ENDBRANCH  40  41
ENDBRANCH  38  40
ENDBRANCH   6  36
TORSDOF 16
ENDMDL