MODEL 2
REMARK VINA RESULT: -6.771014236      2.822      6.066
REMARK  15 active torsions:
REMARK  status: ('A' for Active; 'I' for Inactive)
REMARK    1  A    between atoms: C2_2  and  C3_3
REMARK    2  A    between atoms: C3_3  and  C4_4
REMARK    3  A    between atoms: C4_4  and  C5_5
REMARK    4  A    between atoms: C5_5  and  O1_6
REMARK    5  A    between atoms: O1_6  and  C6_7
REMARK    6  A    between atoms: C6_7  and  C7_8
REMARK    7  A    between atoms: C7_8  and  C8_9
REMARK    8  A    between atoms: C9_10  and  N1_11
REMARK    9  A    between atoms: N1_11  and  C10_13
REMARK   10  A    between atoms: C10_13  and  O2_14
REMARK       I    between atoms: N5_26  and  C16_27
REMARK   11  A    between atoms: C16_27  and  C17_29
REMARK   12  A    between atoms: C17_29  and  N6_30
REMARK       I    between atoms: N6_30  and  C19_32
REMARK       I    between atoms: C19_32  and  N8_36
REMARK   13  A    between atoms: N8_36  and  P1_38
REMARK   14  A    between atoms: P1_38  and  O4_39
REMARK   15  A    between atoms: P1_38  and  O5_41
ROOT
HETATM    1  C8  UNL     1      -8.640  -9.204 -11.394  1.00  0.00     0.146 C
HETATM    2  C9  UNL     1      -9.386 -10.030 -12.310  1.00  0.00     0.061 C
HETATM    3  C11 UNL     1     -10.430  -9.479 -13.022  1.00  0.00     0.102 A
HETATM    4  C12 UNL     1     -10.759  -8.070 -12.776  1.00  0.00     0.079 A
HETATM    5  N2  UNL     1     -11.588  -7.409 -13.477  1.00  0.00    -0.348 N
ATOM      6  H2  UNL     1     -11.782  -6.428 -13.272  1.00  0.00     0.167 HD
HETATM    7  C13 UNL     1     -12.227  -8.055 -14.533  1.00  0.00     0.198 A
HETATM    8  N3  UNL     1     -12.037  -9.264 -14.838  1.00  0.00    -0.294 N
ATOM      9  H3  UNL     1     -12.546  -9.669 -15.623  1.00  0.00     0.188 HD
HETATM   10  N4  UNL     1     -11.078 -10.115 -14.066  1.00  0.00    -0.292 N
HETATM   11  C14 UNL     1     -11.048 -11.459 -14.432  1.00  0.00     0.178 C
HETATM   12  C15 UNL     1     -10.355  -7.381 -11.521  1.00  0.00     0.127 C
HETATM   13  N5  UNL     1      -9.328  -7.993 -10.859  1.00  0.00    -0.314 N
HETATM   14  C16 UNL     1      -8.792  -7.420  -9.666  1.00  0.00     0.242 C
HETATM   15  O3  UNL     1      -7.931  -8.019  -8.934  1.00  0.00    -0.271 OA
ENDROOT
BRANCH   1  16
HETATM   16  C7  UNL     1      -7.625  -8.314 -12.277  1.00  0.00     0.058 C
BRANCH  16  17
HETATM   17  C6  UNL     1      -6.400  -9.059 -12.688  1.00  0.00     0.170 C
BRANCH  17  18
HETATM   18  O1  UNL     1      -5.666  -9.177 -11.598  1.00  0.00    -0.391 OA
BRANCH  18  19
HETATM   19  C5  UNL     1      -5.163 -10.096 -10.883  1.00  0.00     0.167 C
BRANCH  19  20
HETATM   20  C4  UNL     1      -5.321 -10.151  -9.419  1.00  0.00     0.026 C
BRANCH  20  21
HETATM   21  C3  UNL     1      -4.030 -10.191  -8.647  1.00  0.00     0.002 C
BRANCH  21  22
HETATM   22  C2  UNL     1      -3.057 -10.843  -9.640  1.00  0.00    -0.004 C
HETATM   23  C1  UNL     1      -2.168 -11.816  -8.967  1.00  0.00     0.005 C
ENDBRANCH  21  22
ENDBRANCH  20  21
ENDBRANCH  19  20
ENDBRANCH  18  19
ENDBRANCH  17  18
ENDBRANCH  16  17
ENDBRANCH   1  16
BRANCH  14  24
HETATM   24  C17 UNL     1      -9.186  -6.085  -9.233  1.00  0.00     0.228 C
BRANCH  24  25
HETATM   25  N6  UNL     1      -8.266  -5.007  -9.573  1.00  0.00    -0.349 N
HETATM   26  C18 UNL     1      -7.713  -4.823 -10.884  1.00  0.00     0.153 C
HETATM   27  C19 UNL     1      -7.902  -4.120  -8.535  1.00  0.00     0.177 C
HETATM   28  N7  UNL     1      -6.711  -3.586  -8.374  1.00  0.00    -0.371 N
HETATM   29  N8  UNL     1      -8.874  -3.736  -7.478  1.00  0.00    -0.292 N
ATOM     30  H72 UNL     1      -6.043  -3.849  -9.099  1.00  0.00     0.159 HD
ATOM     31  H71 UNL     1      -6.448  -2.945  -7.625  1.00  0.00     0.159 HD
ATOM     32  H8  UNL     1      -9.626  -3.060  -7.610  1.00  0.00     0.171 HD
BRANCH  29  33
HETATM   33  P1  UNL     1      -8.562  -4.609  -5.946  1.00  0.00     0.286 P
BRANCH  33  34
HETATM   34  O4  UNL     1      -8.300  -6.275  -6.322  1.00  0.00    -0.333 OA
ATOM     35  H4  UNL     1      -7.507  -6.556  -5.880  1.00  0.00     0.219 HD
ENDBRANCH  33  34
BRANCH  33  36
HETATM   36  O5  UNL     1      -7.231  -3.957  -5.089  1.00  0.00    -0.333 OA
ATOM     37  H5  UNL     1      -6.955  -4.517  -4.373  1.00  0.00     0.219 HD
ENDBRANCH  33  36
ENDBRANCH  29  33
ENDBRANCH  24  25
ENDBRANCH  14  24
BRANCH   2  38
HETATM   38  N1  UNL     1      -9.175 -11.399 -12.596  1.00  0.00    -0.368 N
ATOM     39  H1  UNL     1      -9.843 -11.840 -13.228  1.00  0.00     0.161 HD
BRANCH  38  40
HETATM   40  C10 UNL     1      -8.105 -12.244 -12.086  1.00  0.00     0.287 C
BRANCH  40  41
HETATM   41  O2  UNL     1      -8.329 -13.481 -12.717  1.00  0.00    -0.382 OA
ATOM     42  H2  UNL     1      -9.004 -13.885 -12.185  1.00  0.00     0.211 HD
ENDBRANCH  40  41
ENDBRANCH  38  40
ENDBRANCH   2  38
TORSDOF 15
ENDMDL