MODEL 3
REMARK VINA RESULT: -5.855323222      2.260      5.193
REMARK  6 active torsions:
REMARK  status: ('A' for Active; 'I' for Inactive)
REMARK    1  A    between atoms: N1_1  and  O1_4
REMARK    2  A    between atoms: O1_4  and  C1_5
REMARK    3  A    between atoms: C1_5  and  C2_7
REMARK    4  A    between atoms: C3_8  and  S1_9
REMARK    5  A    between atoms: S1_9  and  N2_12
REMARK    6  A    between atoms: N2_12  and  N3_14
ROOT
HETATM    1  C2  UNL     1       3.406 -12.383   7.622  1.00  0.00     0.149 A
HETATM    2  C3  UNL     1       4.506 -11.816   8.217  1.00  0.00     0.176 A
HETATM    3  N6  UNL     1       4.595 -11.687   9.570  1.00  0.00    -0.296 N
ATOM      4  H6  UNL     1       5.424 -11.261   9.985  1.00  0.00     0.171 HD
HETATM    5  C5  UNL     1       3.598 -12.116  10.361  1.00  0.00     0.328 A
HETATM    6  O5  UNL     1       3.679 -11.995  11.629  1.00  0.00    -0.247 OA
HETATM    7  N7  UNL     1       2.516 -12.673   9.793  1.00  0.00    -0.275 N
ATOM      8  H7  UNL     1       1.759 -12.999  10.394  1.00  0.00     0.173 HD
HETATM    9  C6  UNL     1       2.391 -12.818   8.445  1.00  0.00     0.268 A
HETATM   10  O6  UNL     1       1.392 -13.334   7.916  1.00  0.00    -0.267 OA
ENDROOT
BRANCH   2  11
HETATM   11  S1  UNL     1       5.815 -11.249   7.232  1.00  0.00     0.293 S
HETATM   12  O3  UNL     1       6.571 -10.213   8.035  1.00  0.00    -0.197 OA
HETATM   13  O4  UNL     1       6.735 -12.363   6.797  1.00  0.00    -0.197 OA
BRANCH  11  14
HETATM   14  N2  UNL     1       5.198 -10.441   5.816  1.00  0.00    -0.220 N
ATOM     15  H2  UNL     1       4.442  -9.762   5.907  1.00  0.00     0.200 HD
BRANCH  14  16
HETATM   16  N3  UNL     1       5.727 -10.714   4.577  1.00  0.00    -0.266 N
HETATM   17  C4  UNL     1       5.326 -10.203   3.462  1.00  0.00     0.216 C
HETATM   18  N4  UNL     1       4.264  -9.275   3.368  1.00  0.00    -0.065 NA
HETATM   19  N5  UNL     1       6.040 -10.646   2.289  1.00  0.00    -0.065 NA
ATOM     20  H3  UNL     1       6.501 -11.377   4.536  1.00  0.00     0.190 HD
ENDBRANCH  14  16
ENDBRANCH  11  14
ENDBRANCH   2  11
BRANCH   1  21
HETATM   21  C1  UNL     1       3.397 -12.480   6.174  1.00  0.00     0.323 C
HETATM   22  O2  UNL     1       4.079 -13.415   5.644  1.00  0.00    -0.257 OA
BRANCH  21  23
HETATM   23  O1  UNL     1       2.714 -11.642   5.338  1.00  0.00    -0.202 OA
BRANCH  23  24
HETATM   24  N1  UNL     1       2.426 -12.037   4.056  1.00  0.00    -0.302 N
ATOM     25  H12 UNL     1       1.593 -11.667   3.600  1.00  0.00     0.184 HD
ATOM     26  H11 UNL     1       3.042 -12.692   3.574  1.00  0.00     0.184 HD
ENDBRANCH  23  24
ENDBRANCH  21  23
ENDBRANCH   1  21
TORSDOF 6
ENDMDL