MODEL 1
REMARK VINA RESULT: -7.205335790      0.000      0.000
REMARK  4 active torsions:
REMARK  status: ('A' for Active; 'I' for Inactive)
REMARK    1  A    between atoms: N5_10  and  C3_12
REMARK    2  A    between atoms: C3_12  and  C4_13
REMARK    3  A    between atoms: C7_22  and  N8_23
REMARK    4  A    between atoms: N8_23  and  S1_25
ROOT
HETATM    1  C4  UNL     1       4.429 -12.037  13.024  1.00  0.00     0.085 A
HETATM    2  N6  UNL     1       3.969 -12.265  14.251  1.00  0.00    -0.305 N
ATOM      3  H6  UNL     1       3.018 -11.979  14.488  1.00  0.00     0.171 HD
HETATM    4  C5  UNL     1       4.740 -12.874  15.201  1.00  0.00     0.327 A
HETATM    5  O2  UNL     1       4.244 -13.064  16.353  1.00  0.00    -0.247 OA
HETATM    6  N7  UNL     1       5.997 -13.276  14.959  1.00  0.00    -0.273 N
ATOM      7  H7  UNL     1       6.546 -13.728  15.691  1.00  0.00     0.173 HD
HETATM    8  C6  UNL     1       6.522 -13.074  13.739  1.00  0.00     0.279 A
HETATM    9  O3  UNL     1       7.705 -13.440  13.472  1.00  0.00    -0.265 OA
HETATM   10  C7  UNL     1       5.735 -12.451  12.766  1.00  0.00     0.139 A
ENDROOT
BRANCH   1  11
HETATM   11  C3  UNL     1       3.648 -11.384  11.934  1.00  0.00     0.122 C
BRANCH  11  12
HETATM   12  N5  UNL     1       2.483 -12.124  11.656  1.00  0.00    -0.345 N
HETATM   13  C2  UNL     1       2.190 -12.775  10.639  1.00  0.00     0.188 C
HETATM   14  C1  UNL     1       3.028 -12.918   9.463  1.00  0.00     0.303 C
HETATM   15  N4  UNL     1       0.920 -13.481  10.528  1.00  0.00    -0.267 N
HETATM   16  O1  UNL     1       4.157 -12.398   9.344  1.00  0.00    -0.263 OA
HETATM   17  N1  UNL     1       2.467 -13.724   8.398  1.00  0.00    -0.249 N
HETATM   18  N2  UNL     1       1.099 -13.637   8.247  1.00  0.00    -0.006 NA
ATOM     19  H1  UNL     1       3.045 -14.315   7.800  1.00  0.00     0.187 HD
HETATM   20  N3  UNL     1       0.380 -13.957   9.374  1.00  0.00    -0.007 NA
ATOM     21  H4  UNL     1       0.392 -13.630  11.388  1.00  0.00     0.185 HD
ATOM     22  H5  UNL     1       1.780 -12.127  12.395  1.00  0.00     0.167 HD
ENDBRANCH  11  12
ENDBRANCH   1  11
BRANCH  10  23
HETATM   23  N8  UNL     1       6.277 -12.248  11.476  1.00  0.00    -0.263 N
ATOM     24  H8  UNL     1       6.179 -12.969  10.761  1.00  0.00     0.180 HD
BRANCH  23  25
HETATM   25  S1  UNL     1       7.096 -10.791  11.122  1.00  0.00     0.359 S
HETATM   26  O4  UNL     1       7.478 -10.013  12.375  1.00  0.00    -0.187 OA
HETATM   27  O5  UNL     1       6.384  -9.918  10.156  1.00  0.00    -0.187 OA
ENDBRANCH  23  25
ENDBRANCH  10  23
TORSDOF 4
ENDMDL