MODEL 2
REMARK VINA RESULT: -5.793172670      1.180      1.436
REMARK  8 active torsions:
REMARK  status: ('A' for Active; 'I' for Inactive)
REMARK    1  A    between atoms: N1_1  and  C1_4
REMARK    2  A    between atoms: C2_7  and  N3_8
REMARK    3  A    between atoms: N5_14  and  C4_16
REMARK    4  A    between atoms: C4_16  and  N6_17
REMARK    5  A    between atoms: C4_16  and  C5_21
REMARK    6  A    between atoms: C6_24  and  N7_25
REMARK       I    between atoms: N7_25  and  C7_27
REMARK    7  A    between atoms: C7_27  and  C8_29
REMARK    8  A    between atoms: C8_29  and  N8_30
ROOT
HETATM    1  C1  UNL     1       2.929 -11.586   4.647  1.00  0.00     0.692 C
HETATM    2  N2  UNL     1       3.877 -10.813   4.080  1.00  0.00    -0.023 N
ATOM      3  H2  UNL     1       3.789 -10.640   3.079  1.00  0.00     0.203 HD
HETATM    4  C2  UNL     1       4.931 -10.243   4.703  1.00  0.00     0.692 C
HETATM    5  N4  UNL     1       5.467 -10.468   5.929  1.00  0.00    -0.173 N
ATOM      6  H4  UNL     1       6.279  -9.901   6.173  1.00  0.00     0.186 HD
HETATM    7  C3  UNL     1       5.058 -11.351   6.864  1.00  0.00     0.164 C
HETATM    8  N5  UNL     1       5.862 -11.678   7.808  1.00  0.00    -0.337 N
ATOM      9  H5  UNL     1       5.521 -12.346   8.500  1.00  0.00     0.163 HD
HETATM   10  C6  UNL     1       3.812 -11.944   6.888  1.00  0.00     0.168 C
HETATM   11  N9  UNL     1       2.814 -11.918   5.958  1.00  0.00    -0.172 N
ATOM     12  H9  UNL     1       1.882 -12.177   6.283  1.00  0.00     0.186 HD
ENDROOT
BRANCH   8  13
HETATM   13  C4  UNL     1       7.190 -11.189   7.976  1.00  0.00     0.385 C
BRANCH  13  14
HETATM   14  N6  UNL     1       7.607 -11.094   9.364  1.00  0.00    -0.048 N
ATOM     15  H63 UNL     1       6.890 -11.474   9.982  1.00  0.00     0.277 HD
ATOM     16  H62 UNL     1       8.365 -11.749   9.557  1.00  0.00     0.277 HD
ATOM     17  H61 UNL     1       7.865 -10.150   9.651  1.00  0.00     0.277 HD
ENDBRANCH  13  14
BRANCH  13  18
HETATM   18  C5  UNL     1       8.121 -12.085   7.221  1.00  0.00     0.225 C
HETATM   19  O1  UNL     1       8.908 -12.875   7.769  1.00  0.00    -0.645 OA
HETATM   20  O2  UNL     1       8.088 -12.015   5.842  1.00  0.00    -0.645 OA
ENDBRANCH  13  18
ENDBRANCH   8  13
BRANCH  10  21
HETATM   21  N7  UNL     1       3.603 -12.613   7.970  1.00  0.00    -0.308 N
HETATM   22  C7  UNL     1       2.778 -13.785   8.010  1.00  0.00     0.247 C
HETATM   23  O3  UNL     1       3.130 -14.834   7.436  1.00  0.00    -0.271 OA
ATOM     24  H7  UNL     1       4.043 -12.295   8.834  1.00  0.00     0.170 HD
BRANCH  22  25
HETATM   25  C8  UNL     1       1.506 -13.665   8.764  1.00  0.00     0.304 C
BRANCH  25  26
HETATM   26  N8  UNL     1       1.722 -13.413  10.164  1.00  0.00    -0.147 N
HETATM   27  O4  UNL     1       2.864 -13.257  10.649  1.00  0.00    -0.536 OA
HETATM   28  O5  UNL     1       0.616 -13.348  10.974  1.00  0.00    -0.536 OA
ENDBRANCH  25  26
ENDBRANCH  22  25
ENDBRANCH  10  21
BRANCH   4  29
HETATM   29  N3  UNL     1       5.505  -9.338   3.986  1.00  0.00    -0.234 N
ATOM     30  H32 UNL     1       6.193  -8.753   4.460  1.00  0.00     0.174 HD
ATOM     31  H31 UNL     1       5.179  -9.337   3.019  1.00  0.00     0.174 HD
ENDBRANCH   4  29
BRANCH   1  32
HETATM   32  N1  UNL     1       2.008 -12.089   3.911  1.00  0.00    -0.234 N
ATOM     33  H12 UNL     1       2.238 -12.091   2.917  1.00  0.00     0.174 HD
ATOM     34  H11 UNL     1       1.153 -12.436   4.348  1.00  0.00     0.174 HD
ENDBRANCH   1  32
TORSDOF 8
ENDMDL