MODEL 1
REMARK VINA RESULT: -7.540440242      0.000      0.000
REMARK  4 active torsions:
REMARK  status: ('A' for Active; 'I' for Inactive)
REMARK    1  A    between atoms: N1_1  and  N2_4
REMARK    2  A    between atoms: N2_4  and  C1_5
REMARK    3  A    between atoms: C1_5  and  C2_6
REMARK       I    between atoms: C2_6  and  N3_8
REMARK       I    between atoms: N3_8  and  C3_10
REMARK       I    between atoms: C3_10  and  N4_11
REMARK       I    between atoms: C3_10  and  N5_15
REMARK    4  A    between atoms: N5_15  and  C4_17
ROOT
HETATM    1  C4  UNL     1       3.147 -12.757   8.245  1.00  0.00     0.124 A
HETATM    2  N6  UNL     1       1.964 -13.379   8.130  1.00  0.00    -0.338 N
ATOM      3  H6  UNL     1       1.640 -13.680   7.211  1.00  0.00     0.168 HD
HETATM    4  C5  UNL     1       1.197 -13.612   9.218  1.00  0.00     0.183 A
HETATM    5  N7  UNL     1       1.589 -13.231  10.448  1.00  0.00    -0.338 N
ATOM      6  H7  UNL     1       0.990 -13.420  11.251  1.00  0.00     0.168 HD
HETATM    7  C6  UNL     1       2.769 -12.601  10.627  1.00  0.00     0.128 A
HETATM    8  N8  UNL     1       2.962 -12.311  11.924  1.00  0.00    -0.304 N
ATOM      9  H8  UNL     1       2.186 -12.508  12.556  1.00  0.00     0.171 HD
HETATM   10  C7  UNL     1       4.078 -11.783  12.482  1.00  0.00     0.315 C
HETATM   11  O2  UNL     1       4.109 -11.725  13.724  1.00  0.00    -0.262 OA
HETATM   12  C8  UNL     1       5.185 -11.302  11.799  1.00  0.00     0.316 C
HETATM   13  O3  UNL     1       5.994 -10.639  12.518  1.00  0.00    -0.262 OA
HETATM   14  N9  UNL     1       5.546 -11.419  10.519  1.00  0.00    -0.285 N
ATOM     15  H9  UNL     1       6.528 -11.237  10.307  1.00  0.00     0.172 HD
HETATM   16  C9  UNL     1       4.762 -11.748   9.475  1.00  0.00     0.266 C
HETATM   17  O4  UNL     1       5.190 -11.456   8.311  1.00  0.00    -0.267 OA
HETATM   18  C10 UNL     1       3.538 -12.372   9.505  1.00  0.00     0.120 A
ENDROOT
BRANCH   1  19
HETATM   19  N5  UNL     1       3.949 -12.487   7.283  1.00  0.00    -0.332 N
HETATM   20  C3  UNL     1       3.417 -12.146   6.006  1.00  0.00     0.390 C
HETATM   21  N3  UNL     1       4.388 -12.165   4.938  1.00  0.00    -0.316 N
HETATM   22  N4  UNL     1       2.818 -10.805   5.984  1.00  0.00    -0.041 N
HETATM   23  C2  UNL     1       4.258 -12.940   3.767  1.00  0.00     0.236 C
ATOM     24  H3  UNL     1       5.220 -11.582   5.036  1.00  0.00     0.166 HD
HETATM   25  O1  UNL     1       3.285 -13.690   3.536  1.00  0.00    -0.272 OA
ATOM     26  H43 UNL     1       3.504 -10.052   6.045  1.00  0.00     0.279 HD
ATOM     27  H42 UNL     1       2.431 -10.546   5.077  1.00  0.00     0.279 HD
ATOM     28  H41 UNL     1       2.132 -10.792   6.738  1.00  0.00     0.279 HD
ATOM     29  H5  UNL     1       4.958 -12.516   7.429  1.00  0.00     0.165 HD
BRANCH  23  30
HETATM   30  C1  UNL     1       5.322 -12.883   2.731  1.00  0.00     0.237 C
BRANCH  30  31
HETATM   31  N2  UNL     1       5.409 -14.134   1.997  1.00  0.00    -0.139 NA
BRANCH  31  32
HETATM   32  N1  UNL     1       4.680 -14.093   0.824  1.00  0.00    -0.348 N
ATOM     33  H12 UNL     1       4.310 -13.231   0.426  1.00  0.00     0.172 HD
ATOM     34  H11 UNL     1       4.564 -15.021   0.417  1.00  0.00     0.172 HD
ENDBRANCH  31  32
ENDBRANCH  30  31
ENDBRANCH  23  30
ENDBRANCH   1  19
TORSDOF 4
ENDMDL