MODEL 1
REMARK VINA RESULT: -7.043720644      0.000      0.000
REMARK  7 active torsions:
REMARK  status: ('A' for Active; 'I' for Inactive)
REMARK       I    between atoms: C1_2  and  N2_4
REMARK       I    between atoms: N2_4  and  C2_6
REMARK    1  A    between atoms: C2_6  and  C3_8
REMARK    2  A    between atoms: C3_8  and  N3_9
REMARK    3  A    between atoms: C3_8  and  C5_14
REMARK    4  A    between atoms: C5_14  and  O3_15
REMARK    5  A    between atoms: C5_14  and  C6_17
REMARK    6  A    between atoms: C6_17  and  O4_18
REMARK    7  A    between atoms: C6_17  and  N6_20
ROOT
HETATM    1  C5  UNL     1       3.550 -11.386   6.002  1.00  0.00     0.199 C
ENDROOT
BRANCH   1   2
HETATM    2  C3  UNL     1       4.188 -12.560   6.664  1.00  0.00     0.209 C
BRANCH   2   3
HETATM    3  C2  UNL     1       3.426 -12.814   7.917  1.00  0.00     0.250 C
HETATM    4  N2  UNL     1       2.181 -13.455   7.991  1.00  0.00    -0.280 N
HETATM    5  C1  UNL     1       1.539 -13.648   9.231  1.00  0.00     0.335 C
ATOM      6  H2  UNL     1       1.734 -13.786   7.137  1.00  0.00     0.173 HD
HETATM    7  N1  UNL     1       0.279 -14.291   9.369  1.00  0.00    -0.040 NA
HETATM    8  O1  UNL     1       2.088 -13.240  10.300  1.00  0.00    -0.251 OA
HETATM    9  O2  UNL     1       3.960 -12.414   8.979  1.00  0.00    -0.271 OA
ENDBRANCH   2   3
BRANCH   2  10
HETATM   10  N3  UNL     1       5.549 -12.329   7.071  1.00  0.00    -0.351 N
HETATM   11  C4  UNL     1       6.597 -12.765   6.550  1.00  0.00     0.197 C
HETATM   12  N4  UNL     1       7.853 -12.431   7.093  1.00  0.00    -0.067 NA
HETATM   13  N5  UNL     1       6.555 -13.595   5.414  1.00  0.00    -0.067 NA
ATOM     14  H3  UNL     1       5.674 -11.734   7.890  1.00  0.00     0.162 HD
ENDBRANCH   2  10
ENDBRANCH   1   2
BRANCH   1  15
HETATM   15  O3  UNL     1       2.525 -10.926   6.830  1.00  0.00    -0.389 OA
ATOM     16  H3  UNL     1       2.484  -9.980   6.751  1.00  0.00     0.210 HD
ENDBRANCH   1  15
BRANCH   1  17
HETATM   17  C6  UNL     1       2.940 -11.691   4.660  1.00  0.00     0.260 C
BRANCH  17  18
HETATM   18  O4  UNL     1       2.239 -10.598   4.159  1.00  0.00    -0.373 OA
ATOM     19  H4  UNL     1       1.539 -10.336   4.744  1.00  0.00     0.212 HD
ENDBRANCH  17  18
BRANCH  17  20
HETATM   20  N6  UNL     1       4.021 -11.984   3.752  1.00  0.00    -0.280 N
HETATM   21  C7  UNL     1       4.864 -10.999   3.412  1.00  0.00     0.104 A
HETATM   22  C8  UNL     1       5.931 -11.231   2.532  1.00  0.00     0.092 A
HETATM   23  C9  UNL     1       6.051 -12.511   2.053  1.00  0.00     0.250 A
HETATM   24  O5  UNL     1       6.998 -12.762   1.259  1.00  0.00    -0.268 OA
HETATM   25  N7  UNL     1       5.206 -13.504   2.393  1.00  0.00    -0.275 N
HETATM   26  C10 UNL     1       4.185 -13.216   3.254  1.00  0.00     0.331 A
ATOM     27  H7  UNL     1       5.325 -14.445   2.018  1.00  0.00     0.173 HD
HETATM   28  O6  UNL     1       3.390 -14.144   3.576  1.00  0.00    -0.246 OA
ENDBRANCH  17  20
ENDBRANCH   1  17
TORSDOF 7
ENDMDL