MODEL 3
REMARK VINA RESULT: -6.606089963      6.227      8.974
REMARK  7 active torsions:
REMARK  status: ('A' for Active; 'I' for Inactive)
REMARK       I    between atoms: C1_4  and  N3_6
REMARK    1  A    between atoms: C3_11  and  C4_12
REMARK    2  A    between atoms: C4_12  and  O1_13
REMARK    3  A    between atoms: C4_12  and  N5_15
REMARK    4  A    between atoms: N5_15  and  N6_16
REMARK    5  A    between atoms: C7_22  and  C8_23
REMARK    6  A    between atoms: C8_23  and  C9_24
REMARK    7  A    between atoms: C9_24  and  C10_26
ROOT
HETATM    1  N1  UNL     1       1.269 -13.240   8.231  1.00  0.00    -0.373 N
ATOM      2  H11 UNL     1       0.538 -12.928   7.593  1.00  0.00     0.158 HD
ATOM      3  H12 UNL     1       1.083 -14.068   8.798  1.00  0.00     0.158 HD
HETATM    4  C1  UNL     1       2.383 -12.624   8.325  1.00  0.00     0.200 C
HETATM    5  N2  UNL     1       3.409 -13.061   9.218  1.00  0.00    -0.063 NA
HETATM    6  N3  UNL     1       2.640 -11.485   7.545  1.00  0.00    -0.164 N
ATOM      7  H3  UNL     1       2.338 -10.586   7.919  1.00  0.00     0.187 HD
HETATM    8  C2  UNL     1       3.217 -11.482   6.411  1.00  0.00     0.685 A
HETATM    9  N4  UNL     1       3.681 -12.660   5.782  1.00  0.00    -0.187 N
ATOM     10  H4  UNL     1       3.544 -13.546   6.268  1.00  0.00     0.184 HD
HETATM   11  C3  UNL     1       4.260 -12.685   4.651  1.00  0.00     0.124 A
HETATM   12  C5  UNL     1       4.466 -11.449   3.947  1.00  0.00     0.225 A
HETATM   13  O2  UNL     1       5.035 -11.449   2.827  1.00  0.00    -0.284 OA
HETATM   14  C6  UNL     1       4.028 -10.139   4.489  1.00  0.00     0.098 A
HETATM   15  C7  UNL     1       4.240  -9.037   3.808  1.00  0.00     0.015 C
HETATM   16  N8  UNL     1       3.394 -10.210   5.754  1.00  0.00    -0.188 N
ATOM     17  H8  UNL     1       3.061  -9.357   6.202  1.00  0.00     0.184 HD
ENDROOT
BRANCH  11  18
HETATM   18  C4  UNL     1       4.705 -13.997   4.091  1.00  0.00     0.285 C
BRANCH  18  19
HETATM   19  O1  UNL     1       4.323 -14.058   2.757  1.00  0.00    -0.372 OA
ATOM     20  H1  UNL     1       4.067 -13.187   2.478  1.00  0.00     0.212 HD
ENDBRANCH  18  19
BRANCH  18  21
HETATM   21  N5  UNL     1       6.141 -14.166   4.265  1.00  0.00    -0.110 NA
BRANCH  21  22
HETATM   22  N6  UNL     1       6.797 -13.958   3.065  1.00  0.00    -0.346 N
ATOM     23  H62 UNL     1       7.282 -14.689   2.545  1.00  0.00     0.172 HD
ATOM     24  H61 UNL     1       6.722 -12.980   2.785  1.00  0.00     0.172 HD
ENDBRANCH  21  22
ENDBRANCH  18  21
ENDBRANCH  11  18
BRANCH  15  25
HETATM   25  C8  UNL     1       3.847  -7.698   4.257  1.00  0.00     0.118 C
BRANCH  25  26
HETATM   26  C9  UNL     1       4.849  -6.659   3.837  1.00  0.00     0.217 C
HETATM   27  O3  UNL     1       4.399  -5.556   3.468  1.00  0.00    -0.287 OA
BRANCH  26  28
HETATM   28  C10 UNL     1       6.264  -6.950   3.867  1.00  0.00     0.300 C
HETATM   29  N7  UNL     1       7.004  -7.045   2.667  1.00  0.00    -0.054 NA
HETATM   30  O4  UNL     1       6.844  -7.121   4.956  1.00  0.00    -0.268 OA
ENDBRANCH  26  28
ENDBRANCH  25  26
ENDBRANCH  15  25
TORSDOF 7
ENDMDL