MODEL 1
REMARK VINA RESULT: -7.507111122      0.000      0.000
REMARK  3 active torsions:
REMARK  status: ('A' for Active; 'I' for Inactive)
REMARK       I    between atoms: C1_2  and  N2_4
REMARK       I    between atoms: N2_4  and  C2_6
REMARK    1  A    between atoms: C2_6  and  C3_8
REMARK    2  A    between atoms: N5_17  and  N6_19
REMARK       I    between atoms: C5_21  and  N8_23
REMARK    3  A    between atoms: N8_23  and  N9_25
ROOT
HETATM    1  C3  UNL     1       5.118 -11.865   5.263  1.00  0.00     0.256 C
HETATM    2  N3  UNL     1       5.984 -10.669   5.487  1.00  0.00    -0.281 N
ATOM      3  H3  UNL     1       6.060  -9.773   5.007  1.00  0.00     0.175 HD
HETATM    4  S1  UNL     1       6.831 -11.353   6.881  1.00  0.00     0.321 S
HETATM    5  O3  UNL     1       7.361 -10.294   7.761  1.00  0.00    -0.182 OA
HETATM    6  O4  UNL     1       7.858 -12.267   6.327  1.00  0.00    -0.182 OA
HETATM    7  N4  UNL     1       5.474 -12.183   7.549  1.00  0.00    -0.253 N
ATOM      8  H4  UNL     1       5.428 -12.709   8.421  1.00  0.00     0.181 HD
HETATM    9  C4  UNL     1       4.440 -11.965   6.610  1.00  0.00     0.140 C
HETATM   10  N5  UNL     1       3.162 -11.854   6.840  1.00  0.00    -0.284 N
ATOM     11  H5  UNL     1       2.524 -11.683   6.063  1.00  0.00     0.188 HD
ENDROOT
BRANCH   1  12
HETATM   12  C2  UNL     1       4.196 -11.659   4.178  1.00  0.00     0.256 C
HETATM   13  N2  UNL     1       4.146 -12.504   3.054  1.00  0.00    -0.280 N
HETATM   14  C1  UNL     1       4.999 -13.586   2.767  1.00  0.00     0.335 C
ATOM     15  H2  UNL     1       3.411 -12.312   2.373  1.00  0.00     0.173 HD
HETATM   16  N1  UNL     1       4.821 -14.342   1.577  1.00  0.00    -0.040 NA
HETATM   17  O1  UNL     1       5.935 -13.932   3.520  1.00  0.00    -0.251 OA
HETATM   18  O2  UNL     1       3.394 -10.683   4.226  1.00  0.00    -0.270 OA
ENDBRANCH   1  12
BRANCH  10  19
HETATM   19  N6  UNL     1       2.655 -11.967   8.133  1.00  0.00    -0.271 N
HETATM   20  C5  UNL     1       2.511 -13.110   8.680  1.00  0.00     0.226 C
HETATM   21  N7  UNL     1       2.878 -14.283   7.947  1.00  0.00    -0.060 NA
HETATM   22  N8  UNL     1       1.988 -13.214  10.009  1.00  0.00    -0.212 N
ATOM     23  H8  UNL     1       2.596 -13.016  10.804  1.00  0.00     0.196 HD
ATOM     24  H6  UNL     1       2.397 -11.125   8.648  1.00  0.00     0.189 HD
BRANCH  22  25
HETATM   25  N9  UNL     1       0.663 -13.579  10.232  1.00  0.00    -0.036 N
HETATM   26  O5  UNL     1       0.139 -13.256  11.314  1.00  0.00    -0.516 OA
HETATM   27  O6  UNL     1      -0.023 -14.273   9.279  1.00  0.00    -0.516 OA
ENDBRANCH  22  25
ENDBRANCH  10  19
TORSDOF 3
ENDMDL