MODEL 3
REMARK VINA RESULT: -6.270320280      2.573      3.788
REMARK  8 active torsions:
REMARK  status: ('A' for Active; 'I' for Inactive)
REMARK    1  A    between atoms: C3_3  and  N1_4
REMARK    2  A    between atoms: C6_11  and  N3_12
REMARK       I    between atoms: N3_12  and  C7_14
REMARK       I    between atoms: C7_14  and  N8_31
REMARK    3  A    between atoms: N4_15  and  N5_17
REMARK       I    between atoms: N5_17  and  C8_19
REMARK    4  A    between atoms: C8_19  and  C9_21
REMARK    5  A    between atoms: C9_21  and  N6_22
REMARK    6  A    between atoms: C9_21  and  C10_26
REMARK    7  A    between atoms: C10_26  and  N7_27
REMARK    8  A    between atoms: N8_31  and  N9_33
ROOT
HETATM    1  C1  UNL     1       6.462 -12.324   1.351  1.00  0.00     0.014 C
HETATM    2  C2  UNL     1       6.759 -11.737   2.367  1.00  0.00    -0.097 C
HETATM    3  C3  UNL     1       7.143 -11.024   3.591  1.00  0.00     0.244 C
ENDROOT
BRANCH   3   4
HETATM    4  N1  UNL     1       6.238  -9.909   3.830  1.00  0.00    -0.131 N
HETATM    5  C4  UNL     1       6.317  -8.623   3.215  1.00  0.00     0.331 A
HETATM    6  O1  UNL     1       7.186  -8.242   2.364  1.00  0.00    -0.261 OA
HETATM    7  C5  UNL     1       5.207  -7.858   3.768  1.00  0.00     0.328 A
HETATM    8  O2  UNL     1       4.916  -6.676   3.491  1.00  0.00    -0.261 OA
HETATM    9  N2  UNL     1       4.540  -8.736   4.674  1.00  0.00    -0.150 N
HETATM   10  C6  UNL     1       5.131  -9.887   4.699  1.00  0.00     0.706 A
ATOM     11  H2  UNL     1       3.716  -8.492   5.222  1.00  0.00     0.188 HD
BRANCH  10  12
HETATM   12  N3  UNL     1       4.728 -11.001   5.497  1.00  0.00    -0.019 N
HETATM   13  C7  UNL     1       3.642 -11.775   5.039  1.00  0.00     0.725 C
HETATM   14  N4  UNL     1       2.689 -12.077   5.842  1.00  0.00    -0.128 N
HETATM   15  N8  UNL     1       3.576 -12.236   3.690  1.00  0.00    -0.137 N
ATOM     16  H4  UNL     1       1.896 -12.636   5.529  1.00  0.00     0.205 HD
ATOM     17  H8  UNL     1       3.839 -11.611   2.928  1.00  0.00     0.205 HD
ATOM     18  H3  UNL     1       5.209 -11.228   6.367  1.00  0.00     0.203 HD
BRANCH  14  19
HETATM   19  N5  UNL     1       2.770 -11.617   7.158  1.00  0.00    -0.254 N
HETATM   20  C8  UNL     1       2.940 -12.561   8.192  1.00  0.00     0.268 C
HETATM   21  O3  UNL     1       3.021 -13.780   7.910  1.00  0.00    -0.269 OA
ATOM     22  H5  UNL     1       2.707 -10.621   7.367  1.00  0.00     0.190 HD
BRANCH  20  23
HETATM   23  C9  UNL     1       3.026 -12.107   9.591  1.00  0.00     0.301 C
BRANCH  23  24
HETATM   24  N6  UNL     1       4.442 -12.108   9.952  1.00  0.00    -0.065 N
ATOM     25  H63 UNL     1       4.748 -12.985  10.372  1.00  0.00     0.275 HD
ATOM     26  H62 UNL     1       5.062 -12.128   9.143  1.00  0.00     0.275 HD
ATOM     27  H61 UNL     1       4.595 -11.300  10.555  1.00  0.00     0.275 HD
ENDBRANCH  23  24
BRANCH  23  28
HETATM   28  C10 UNL     1       2.249 -12.978  10.564  1.00  0.00     0.272 C
BRANCH  28  29
HETATM   29  N7  UNL     1       1.009 -13.416  10.033  1.00  0.00    -0.077 N
ATOM     30  H73 UNL     1       0.335 -12.652   9.997  1.00  0.00     0.274 HD
ATOM     31  H72 UNL     1       1.088 -13.613   9.035  1.00  0.00     0.274 HD
ATOM     32  H71 UNL     1       0.628 -14.218  10.536  1.00  0.00     0.274 HD
ENDBRANCH  28  29
ENDBRANCH  23  28
ENDBRANCH  20  23
ENDBRANCH  14  19
BRANCH  15  33
HETATM   33  N9  UNL     1       3.149 -13.546   3.403  1.00  0.00    -0.331 N
ATOM     34  H92 UNL     1       3.269 -13.904   2.456  1.00  0.00     0.177 HD
ATOM     35  H91 UNL     1       2.728 -14.124   4.130  1.00  0.00     0.177 HD
ENDBRANCH  15  33
ENDBRANCH  10  12
ENDBRANCH   3   4
TORSDOF 8
ENDMDL