MODEL 5
REMARK VINA RESULT: -6.266089478      1.260      1.538
REMARK  5 active torsions:
REMARK  status: ('A' for Active; 'I' for Inactive)
REMARK    1  A    between atoms: C1_2  and  C2_4
REMARK    2  A    between atoms: C2_4  and  N2_5
REMARK    3  A    between atoms: C4_8  and  C5_9
REMARK    4  A    between atoms: C6_10  and  C7_11
REMARK       I    between atoms: C7_11  and  N4_13
REMARK    5  A    between atoms: N4_13  and  N5_15
REMARK       I    between atoms: N5_15  and  C8_16
REMARK       I    between atoms: C8_16  and  N6_17
REMARK       I    between atoms: C8_16  and  N7_21
ROOT
HETATM    1  C5  UNL     1       4.029 -12.144   6.809  1.00  0.00    -0.048 C
HETATM    2  C6  UNL     1       3.750 -12.332   7.966  1.00  0.00     0.002 C
ENDROOT
BRANCH   1   3
HETATM    3  C4  UNL     1       4.377 -11.903   5.445  1.00  0.00     0.127 A
HETATM    4  C3  UNL     1       5.123 -12.852   4.782  1.00  0.00     0.147 A
HETATM    5  N2  UNL     1       5.476 -12.658   3.473  1.00  0.00    -0.278 N
HETATM    6  N3  UNL     1       5.572 -14.062   5.375  1.00  0.00    -0.081 NA
HETATM    7  C10 UNL     1       5.089 -11.536   2.842  1.00  0.00     0.331 A
HETATM    8  N8  UNL     1       4.351 -10.574   3.461  1.00  0.00    -0.274 N
HETATM    9  O4  UNL     1       5.388 -11.305   1.629  1.00  0.00    -0.246 OA
HETATM   10  C9  UNL     1       4.008 -10.771   4.748  1.00  0.00     0.271 A
ATOM     11  H8  UNL     1       4.067  -9.730   2.964  1.00  0.00     0.173 HD
HETATM   12  O3  UNL     1       3.325  -9.876   5.313  1.00  0.00    -0.266 OA
BRANCH   5  13
HETATM   13  C2  UNL     1       6.256 -13.647   2.774  1.00  0.00     0.234 C
BRANCH  13  14
HETATM   14  C1  UNL     1       5.480 -14.276   1.679  1.00  0.00     0.249 C
HETATM   15  N1  UNL     1       6.003 -14.398   0.366  1.00  0.00    -0.061 NA
HETATM   16  O1  UNL     1       4.332 -14.713   1.905  1.00  0.00    -0.275 OA
ENDBRANCH  13  14
ENDBRANCH   5  13
ENDBRANCH   1   3
BRANCH   2  17
HETATM   17  C7  UNL     1       3.415 -12.531   9.348  1.00  0.00     0.312 C
HETATM   18  O2  UNL     1       3.097 -13.701   9.681  1.00  0.00    -0.257 OA
HETATM   19  N4  UNL     1       3.424 -11.513  10.317  1.00  0.00    -0.259 N
ATOM     20  H4  UNL     1       3.681 -10.562  10.049  1.00  0.00     0.186 HD
BRANCH  19  21
HETATM   21  N5  UNL     1       3.089 -11.785  11.630  1.00  0.00    -0.077 NA
HETATM   22  C8  UNL     1       4.254 -11.751  12.493  1.00  0.00     0.490 C
HETATM   23  N6  UNL     1       5.180 -12.764  12.018  1.00  0.00    -0.035 N
HETATM   24  N7  UNL     1       3.907 -11.979  13.876  1.00  0.00    -0.035 N
ATOM     25  H63 UNL     1       4.758 -13.691  11.956  1.00  0.00     0.278 HD
ATOM     26  H62 UNL     1       5.414 -12.658  11.031  1.00  0.00     0.278 HD
ATOM     27  H61 UNL     1       6.000 -12.740  12.625  1.00  0.00     0.278 HD
ATOM     28  H73 UNL     1       3.193 -11.322  14.191  1.00  0.00     0.278 HD
ATOM     29  H72 UNL     1       3.387 -12.849  13.989  1.00  0.00     0.278 HD
ATOM     30  H71 UNL     1       4.726 -11.955  14.483  1.00  0.00     0.278 HD
ENDBRANCH  19  21
ENDBRANCH   2  17
TORSDOF 5
ENDMDL