MODEL 5
REMARK VINA RESULT: -7.314047848      1.151      1.235
REMARK  6 active torsions:
REMARK  status: ('A' for Active; 'I' for Inactive)
REMARK    1  A    between atoms: N1_1  and  N2_4
REMARK       I    between atoms: N2_4  and  C1_6
REMARK    2  A    between atoms: C1_6  and  C2_8
REMARK    3  A    between atoms: C2_8  and  N3_9
REMARK       I    between atoms: N3_9  and  C3_11
REMARK    4  A    between atoms: C3_11  and  C4_13
REMARK    5  A    between atoms: C5_16  and  C6_17
REMARK       I    between atoms: C6_17  and  N5_19
REMARK    6  A    between atoms: N5_19  and  N6_21
REMARK       I    between atoms: N6_21  and  C7_23
ROOT
HETATM    1  C4  UNL     1       3.319 -12.621   8.816  1.00  0.00     0.172 A
HETATM    2  N4  UNL     1       4.011 -12.153   9.855  1.00  0.00    -0.328 N
ATOM      3  H4  UNL     1       4.944 -11.771   9.706  1.00  0.00     0.168 HD
HETATM    4  C5  UNL     1       3.488 -12.178  11.113  1.00  0.00     0.191 A
HETATM    5  N8  UNL     1       2.258 -12.689  11.258  1.00  0.00    -0.278 N
ATOM      6  H8  UNL     1       1.858 -12.713  12.195  1.00  0.00     0.189 HD
HETATM    7  N9  UNL     1       1.535 -13.162  10.264  1.00  0.00    -0.263 N
ATOM      8  H9  UNL     1       0.602 -13.540  10.430  1.00  0.00     0.190 HD
HETATM    9  C8  UNL     1       2.062 -13.133   9.018  1.00  0.00     0.292 A
HETATM   10  O5  UNL     1       1.334 -13.594   8.093  1.00  0.00    -0.264 OA
ENDROOT
BRANCH   1  11
HETATM   11  C3  UNL     1       3.903 -12.633   7.496  1.00  0.00     0.274 C
HETATM   12  N3  UNL     1       3.135 -12.397   6.313  1.00  0.00    -0.347 N
ATOM     13  H3  UNL     1       2.135 -12.205   6.371  1.00  0.00     0.163 HD
HETATM   14  O2  UNL     1       5.146 -12.861   7.395  1.00  0.00    -0.266 OA
BRANCH  12  15
HETATM   15  C2  UNL     1       3.800 -12.436   5.045  1.00  0.00     0.227 C
BRANCH  15  16
HETATM   16  C1  UNL     1       4.038 -11.137   4.406  1.00  0.00     0.253 C
HETATM   17  N2  UNL     1       3.103 -10.179   4.049  1.00  0.00    -0.275 N
ATOM     18  H2  UNL     1       2.111 -10.343   4.220  1.00  0.00     0.189 HD
HETATM   19  O1  UNL     1       5.286 -10.888   4.163  1.00  0.00    -0.270 OA
BRANCH  17  20
HETATM   20  N1  UNL     1       3.527  -8.968   3.443  1.00  0.00    -0.343 N
ATOM     21  H12 UNL     1       2.826  -8.301   3.124  1.00  0.00     0.176 HD
ATOM     22  H11 UNL     1       4.523  -8.776   3.334  1.00  0.00     0.176 HD
ENDBRANCH  17  20
ENDBRANCH  15  16
ENDBRANCH  12  15
ENDBRANCH   1  11
BRANCH   4  23
HETATM   23  C6  UNL     1       4.246 -11.635  12.254  1.00  0.00     0.305 C
HETATM   24  O3  UNL     1       5.365 -11.081  11.991  1.00  0.00    -0.263 OA
HETATM   25  N5  UNL     1       3.790 -11.703  13.584  1.00  0.00    -0.260 N
ATOM     26  H5  UNL     1       2.893 -12.150  13.774  1.00  0.00     0.190 HD
BRANCH  25  27
HETATM   27  N6  UNL     1       4.524 -11.178  14.661  1.00  0.00    -0.251 N
HETATM   28  C7  UNL     1       4.945 -12.002  15.733  1.00  0.00     0.347 C
HETATM   29  N7  UNL     1       5.672 -11.441  16.809  1.00  0.00    -0.038 NA
HETATM   30  O4  UNL     1       4.700 -13.233  15.781  1.00  0.00    -0.249 OA
ATOM     31  H6  UNL     1       4.758 -10.185  14.671  1.00  0.00     0.191 HD
ENDBRANCH  25  27
ENDBRANCH   4  23
TORSDOF 6
ENDMDL