MODEL 5
REMARK VINA RESULT: -4.183266897      1.630      2.137
REMARK  9 active torsions:
REMARK  status: ('A' for Active; 'I' for Inactive)
REMARK    1  A    between atoms: N1_1  and  C1_4
REMARK    2  A    between atoms: C2_7  and  N3_8
REMARK    3  A    between atoms: N5_14  and  C6_16
REMARK    4  A    between atoms: C6_16  and  C7_17
REMARK    5  A    between atoms: C7_17  and  O1_18
REMARK    6  A    between atoms: O1_18  and  C8_19
REMARK    7  A    between atoms: C8_19  and  C9_20
REMARK    8  A    between atoms: C9_20  and  N6_21
REMARK    9  A    between atoms: C11_30  and  N9_31
ROOT
HETATM    1  N3  UNL     1      41.966  20.421  36.727  1.00  0.00    -0.121 N
HETATM    2  C3  UNL     1      42.457  19.114  37.165  1.00  0.00     0.187 C
HETATM    3  C4  UNL     1      42.553  18.253  35.955  1.00  0.00     0.143 C
HETATM    4  N4  UNL     1      43.601  18.673  35.052  1.00  0.00    -0.374 N
ATOM      5  H4  UNL     1      44.376  18.026  34.906  1.00  0.00     0.161 HD
HETATM    6  C5  UNL     1      43.648  19.896  34.358  1.00  0.00     0.114 C
HETATM    7  N5  UNL     1      44.316  19.903  33.280  1.00  0.00    -0.373 N
ATOM      8  H5  UNL     1      44.394  20.754  32.721  1.00  0.00     0.161 HD
HETATM    9  C10 UNL     1      43.025  21.154  34.717  1.00  0.00     0.155 C
HETATM   10  N7  UNL     1      42.708  21.371  36.071  1.00  0.00    -0.292 N
ATOM     11  H7  UNL     1      43.022  22.213  36.553  1.00  0.00     0.186 HD
ENDROOT
BRANCH   1  12
HETATM   12  C2  UNL     1      40.601  20.718  37.021  1.00  0.00     0.728 A
HETATM   13  N2  UNL     1      39.756  20.740  35.980  1.00  0.00    -0.020 N
HETATM   14  C1  UNL     1      38.462  21.012  36.222  1.00  0.00     0.705 A
ATOM     15  H2  UNL     1      40.085  20.557  35.033  1.00  0.00     0.203 HD
HETATM   16  N10 UNL     1      38.056  21.250  37.489  1.00  0.00    -0.022 N
HETATM   17  C11 UNL     1      38.914  21.224  38.524  1.00  0.00     0.705 A
ATOM     18  H10 UNL     1      37.072  21.455  37.665  1.00  0.00     0.203 HD
HETATM   19  N8  UNL     1      40.226  20.949  38.277  1.00  0.00    -0.020 N
ATOM     20  H8  UNL     1      40.906  20.920  39.038  1.00  0.00     0.203 HD
BRANCH  14  21
HETATM   21  N1  UNL     1      37.606  21.050  35.255  1.00  0.00    -0.234 N
ATOM     22  H12 UNL     1      37.583  20.296  34.568  1.00  0.00     0.174 HD
ATOM     23  H11 UNL     1      36.950  21.827  35.174  1.00  0.00     0.174 HD
ENDBRANCH  14  21
BRANCH  17  24
HETATM   24  N9  UNL     1      38.489  21.452  39.724  1.00  0.00    -0.234 N
ATOM     25  H92 UNL     1      38.013  20.716  40.246  1.00  0.00     0.174 HD
ATOM     26  H91 UNL     1      38.622  22.360  40.171  1.00  0.00     0.174 HD
ENDBRANCH  17  24
ENDBRANCH   1  12
BRANCH   7  27
HETATM   27  C6  UNL     1      44.976  18.658  32.851  1.00  0.00     0.147 C
BRANCH  27  28
HETATM   28  C7  UNL     1      46.409  18.911  32.528  1.00  0.00     0.187 C
BRANCH  28  29
HETATM   29  O1  UNL     1      47.166  17.783  32.632  1.00  0.00    -0.388 OA
BRANCH  29  30
HETATM   30  C8  UNL     1      46.621  16.813  33.430  1.00  0.00     0.195 C
BRANCH  30  31
HETATM   31  C9  UNL     1      46.763  15.425  32.760  1.00  0.00     0.255 C
BRANCH  31  32
HETATM   32  N6  UNL     1      45.487  15.090  32.193  1.00  0.00    -0.077 N
ATOM     33  H63 UNL     1      44.717  15.623  32.600  1.00  0.00     0.274 HD
ATOM     34  H62 UNL     1      45.380  15.416  31.232  1.00  0.00     0.274 HD
ATOM     35  H61 UNL     1      45.366  14.082  32.288  1.00  0.00     0.274 HD
ENDBRANCH  31  32
ENDBRANCH  30  31
ENDBRANCH  29  30
ENDBRANCH  28  29
ENDBRANCH  27  28
ENDBRANCH   7  27
TORSDOF 9
ENDMDL