MODEL 5
REMARK VINA RESULT: -4.645989096      1.378      2.526
REMARK  9 active torsions:
REMARK  status: ('A' for Active; 'I' for Inactive)
REMARK    1  A    between atoms: N1_1  and  C1_4
REMARK    2  A    between atoms: C3_10  and  N4_11
REMARK    3  A    between atoms: N4_11  and  C4_13
REMARK    4  A    between atoms: C4_13  and  C5_14
REMARK       I    between atoms: C5_14  and  N5_16
REMARK    5  A    between atoms: N5_16  and  C6_18
REMARK    6  A    between atoms: C6_18  and  C7_19
REMARK    7  A    between atoms: N7_24  and  N8_25
REMARK    8  A    between atoms: C9_28  and  C10_29
REMARK    9  A    between atoms: C10_29  and  N9_30
ROOT
HETATM    1  C5  UNL     1      42.167  12.186  31.884  1.00  0.00     0.236 C
HETATM    2  O1  UNL     1      42.816  11.217  32.342  1.00  0.00    -0.272 OA
HETATM    3  N5  UNL     1      42.385  13.463  32.461  1.00  0.00    -0.354 N
ATOM      4  H5  UNL     1      41.861  14.253  32.084  1.00  0.00     0.162 HD
ENDROOT
BRANCH   3   5
HETATM    5  C6  UNL     1      43.293  13.714  33.535  1.00  0.00     0.181 C
BRANCH   5   6
HETATM    6  C7  UNL     1      44.464  14.545  33.196  1.00  0.00     0.058 A
HETATM    7  N6  UNL     1      44.537  15.885  33.202  1.00  0.00    -0.307 N
HETATM    8  C8  UNL     1      45.799  16.188  32.803  1.00  0.00     0.345 A
ATOM      9  H6  UNL     1      43.798  16.541  33.454  1.00  0.00     0.170 HD
HETATM   10  O2  UNL     1      46.266  17.354  32.680  1.00  0.00    -0.245 OA
HETATM   11  N7  UNL     1      46.493  15.053  32.555  1.00  0.00    -0.213 N
HETATM   12  C9  UNL     1      45.682  14.006  32.792  1.00  0.00     0.088 A
BRANCH  11  13
HETATM   13  N8  UNL     1      47.823  15.015  32.127  1.00  0.00    -0.334 N
ATOM     14  H82 UNL     1      48.168  15.108  31.171  1.00  0.00     0.177 HD
ATOM     15  H81 UNL     1      48.625  14.887  32.743  1.00  0.00     0.177 HD
ENDBRANCH  11  13
BRANCH  12  16
HETATM   16  C10 UNL     1      46.024  12.565  32.650  1.00  0.00     0.290 C
BRANCH  16  17
HETATM   17  N9  UNL     1      45.730  12.073  31.323  1.00  0.00    -0.074 N
ATOM     18  H93 UNL     1      45.997  11.094  31.222  1.00  0.00     0.274 HD
ATOM     19  H92 UNL     1      44.725  11.980  31.175  1.00  0.00     0.274 HD
ATOM     20  H91 UNL     1      46.160  12.652  30.601  1.00  0.00     0.274 HD
ENDBRANCH  16  17
ENDBRANCH  12  16
ENDBRANCH   5   6
ENDBRANCH   3   5
BRANCH   1  21
HETATM   21  C4  UNL     1      41.216  11.948  30.777  1.00  0.00     0.240 C
BRANCH  21  22
HETATM   22  N4  UNL     1      41.707  12.538  29.565  1.00  0.00    -0.217 N
ATOM     23  H4  UNL     1      42.014  13.510  29.586  1.00  0.00     0.178 HD
BRANCH  22  24
HETATM   24  C3  UNL     1      41.777  11.901  28.461  1.00  0.00     0.693 A
HETATM   25  N3  UNL     1      41.833  10.569  28.473  1.00  0.00    -0.187 N
HETATM   26  C2  UNL     1      41.908   9.833  27.362  1.00  0.00     0.215 A
ATOM     27  H3  UNL     1      41.817  10.091  29.374  1.00  0.00     0.185 HD
HETATM   28  N2  UNL     1      41.929  10.478  26.186  1.00  0.00    -0.187 N
HETATM   29  C1  UNL     1      41.875  11.819  26.140  1.00  0.00     0.691 A
ATOM     30  H2  UNL     1      41.987   9.944  25.318  1.00  0.00     0.185 HD
HETATM   31  N10 UNL     1      41.799  12.534  27.278  1.00  0.00    -0.023 N
ATOM     32  H10 UNL     1      41.759  13.553  27.242  1.00  0.00     0.203 HD
BRANCH  29  33
HETATM   33  N1  UNL     1      41.897  12.398  24.989  1.00  0.00    -0.234 N
ATOM     34  H12 UNL     1      42.708  12.321  24.375  1.00  0.00     0.174 HD
ATOM     35  H11 UNL     1      41.083  12.939  24.699  1.00  0.00     0.174 HD
ENDBRANCH  29  33
ENDBRANCH  22  24
ENDBRANCH  21  22
ENDBRANCH   1  21
TORSDOF 9
ENDMDL