MODEL 4
REMARK VINA RESULT: -4.368967477      8.386     11.959
REMARK  10 active torsions:
REMARK  status: ('A' for Active; 'I' for Inactive)
REMARK    1  A    between atoms: N1_1  and  C1_4
REMARK    2  A    between atoms: C4_12  and  N4_13
REMARK    3  A    between atoms: N4_13  and  C5_15
REMARK    4  A    between atoms: C5_15  and  C6_16
REMARK    5  A    between atoms: C6_16  and  O2_17
REMARK    6  A    between atoms: C7_21  and  N6_22
REMARK    7  A    between atoms: N6_22  and  N7_24
REMARK    8  A    between atoms: N7_24  and  C8_26
REMARK    9  A    between atoms: C8_26  and  C9_27
REMARK   10  A    between atoms: C9_27  and  O3_28
ROOT
HETATM    1  C1  UNL     1      41.829   8.395  25.895  1.00  0.00     0.692 C
HETATM    2  N2  UNL     1      40.627   8.231  25.274  1.00  0.00    -0.130 N
ATOM      3  H2  UNL     1      40.379   7.283  24.990  1.00  0.00     0.205 HD
HETATM    4  N3  UNL     1      39.755   9.184  25.005  1.00  0.00    -0.251 N
ATOM      5  H3  UNL     1      39.180   9.032  24.177  1.00  0.00     0.191 HD
HETATM    6  C2  UNL     1      39.518  10.331  25.673  1.00  0.00     0.278 C
HETATM    7  O1  UNL     1      38.558  11.061  25.323  1.00  0.00    -0.266 OA
HETATM    8  C3  UNL     1      40.254  10.789  26.736  1.00  0.00     0.122 A
HETATM    9  C4  UNL     1      39.568  11.824  27.384  1.00  0.00     0.136 A
HETATM   10  N5  UNL     1      40.170  12.364  28.437  1.00  0.00    -0.174 N
ATOM     11  H5  UNL     1      39.694  13.121  28.929  1.00  0.00     0.186 HD
HETATM   12  C7  UNL     1      41.380  11.966  28.895  1.00  0.00     0.699 A
HETATM   13  N8  UNL     1      42.048  10.976  28.284  1.00  0.00    -0.173 N
ATOM     14  H8  UNL     1      42.960  10.675  28.628  1.00  0.00     0.186 HD
HETATM   15  C10 UNL     1      41.493  10.386  27.210  1.00  0.00     0.156 A
HETATM   16  N9  UNL     1      42.256   9.407  26.682  1.00  0.00    -0.174 N
ATOM     17  H9  UNL     1      43.253   9.433  26.898  1.00  0.00     0.186 HD
ENDROOT
BRANCH  12  18
HETATM   18  N6  UNL     1      41.939  12.510  29.920  1.00  0.00    -0.136 N
ATOM     19  H6  UNL     1      42.914  12.276  30.104  1.00  0.00     0.205 HD
BRANCH  18  20
HETATM   20  N7  UNL     1      41.318  13.385  30.788  1.00  0.00    -0.320 N
ATOM     21  H7  UNL     1      41.360  14.387  30.604  1.00  0.00     0.180 HD
BRANCH  20  22
HETATM   22  C8  UNL     1      40.616  12.915  31.941  1.00  0.00     0.166 C
BRANCH  22  23
HETATM   23  C9  UNL     1      39.114  13.185  31.838  1.00  0.00     0.185 C
BRANCH  23  24
HETATM   24  O3  UNL     1      38.818  13.865  30.664  1.00  0.00    -0.399 OA
ATOM     25  H3  UNL     1      37.891  13.801  30.465  1.00  0.00     0.209 HD
ENDBRANCH  23  24
ENDBRANCH  22  23
ENDBRANCH  20  22
ENDBRANCH  18  20
ENDBRANCH  12  18
BRANCH   9  26
HETATM   26  N4  UNL     1      38.432  12.144  26.894  1.00  0.00    -0.373 N
ATOM     27  H4  UNL     1      38.122  11.695  26.032  1.00  0.00     0.161 HD
BRANCH  26  28
HETATM   28  C5  UNL     1      37.580  13.111  27.513  1.00  0.00     0.147 C
BRANCH  28  29
HETATM   29  C6  UNL     1      36.183  13.073  26.918  1.00  0.00     0.183 C
BRANCH  29  30
HETATM   30  O2  UNL     1      36.043  12.013  26.053  1.00  0.00    -0.399 OA
ATOM     31  H2  UNL     1      36.889  11.654  25.813  1.00  0.00     0.209 HD
ENDBRANCH  29  30
ENDBRANCH  28  29
ENDBRANCH  26  28
ENDBRANCH   9  26
BRANCH   1  32
HETATM   32  N1  UNL     1      42.713   7.472  25.731  1.00  0.00    -0.233 N
ATOM     33  H12 UNL     1      42.588   6.944  24.867  1.00  0.00     0.174 HD
ATOM     34  H11 UNL     1      43.422   7.367  26.457  1.00  0.00     0.174 HD
ENDBRANCH   1  32
TORSDOF 10
ENDMDL