MODEL 5
REMARK VINA RESULT: -4.639322306      2.639      3.337
REMARK  8 active torsions:
REMARK  status: ('A' for Active; 'I' for Inactive)
REMARK    1  A    between atoms: N1_1  and  C1_4
REMARK    2  A    between atoms: C3_11  and  N4_12
REMARK    3  A    between atoms: N4_12  and  C4_14
REMARK    4  A    between atoms: C4_14  and  C5_15
REMARK    5  A    between atoms: C5_15  and  C6_16
REMARK    6  A    between atoms: C6_16  and  S1_17
REMARK    7  A    between atoms: S1_17  and  C7_18
REMARK    8  A    between atoms: N8_27  and  N9_28
ROOT
HETATM    1  C4  UNL     1      45.413  15.486  33.559  1.00  0.00     0.139 C
ENDROOT
BRANCH   1   2
HETATM    2  N4  UNL     1      44.824  16.579  32.843  1.00  0.00    -0.225 N
ATOM      3  H4  UNL     1      43.992  16.391  32.283  1.00  0.00     0.177 HD
BRANCH   2   4
HETATM    4  C3  UNL     1      45.283  17.790  32.862  1.00  0.00     0.696 A
HETATM    5  N3  UNL     1      46.585  17.996  32.601  1.00  0.00    -0.140 N
HETATM    6  C2  UNL     1      47.104  19.247  32.611  1.00  0.00     0.352 A
ATOM      7  H3  UNL     1      47.190  17.201  32.393  1.00  0.00     0.189 HD
HETATM    8  N2  UNL     1      46.318  20.291  32.882  1.00  0.00    -0.141 N
HETATM    9  O1  UNL     1      48.328  19.412  32.363  1.00  0.00    -0.246 OA
HETATM   10  C1  UNL     1      44.997  20.127  33.151  1.00  0.00     0.694 A
ATOM     11  H2  UNL     1      46.717  21.230  32.887  1.00  0.00     0.189 HD
HETATM   12  N10 UNL     1      44.524  18.865  33.130  1.00  0.00    -0.022 N
ATOM     13  H10 UNL     1      43.534  18.718  33.328  1.00  0.00     0.203 HD
BRANCH  10  14
HETATM   14  N1  UNL     1      44.249  21.153  33.412  1.00  0.00    -0.234 N
ATOM     15  H12 UNL     1      43.230  21.110  33.405  1.00  0.00     0.174 HD
ATOM     16  H11 UNL     1      44.671  22.054  33.638  1.00  0.00     0.174 HD
ENDBRANCH  10  14
ENDBRANCH   2   4
ENDBRANCH   1   2
BRANCH   1  17
HETATM   17  C5  UNL     1      45.945  14.506  32.509  1.00  0.00     0.031 C
BRANCH  17  18
HETATM   18  C6  UNL     1      45.487  13.101  32.924  1.00  0.00     0.084 C
BRANCH  18  19
HETATM   19  S1  UNL     1      44.027  13.169  33.941  1.00  0.00    -0.090 SA
BRANCH  19  20
HETATM   20  C7  UNL     1      42.556  13.262  32.971  1.00  0.00     0.185 A
HETATM   21  N5  UNL     1      42.677  13.184  31.650  1.00  0.00    -0.264 N
HETATM   22  N6  UNL     1      41.613  13.242  30.776  1.00  0.00    -0.237 N
ATOM     23  H5  UNL     1      43.612  13.074  31.259  1.00  0.00     0.190 HD
HETATM   24  N7  UNL     1      40.332  13.393  31.296  1.00  0.00    -0.235 N
ATOM     25  H6  UNL     1      41.761  13.177  29.769  1.00  0.00     0.208 HD
HETATM   26  C8  UNL     1      40.120  13.485  32.694  1.00  0.00     0.363 A
ATOM     27  H7  UNL     1      39.534  13.438  30.662  1.00  0.00     0.193 HD
HETATM   28  O2  UNL     1      39.010  13.622  33.243  1.00  0.00    -0.243 OA
HETATM   29  N8  UNL     1      41.283  13.415  33.543  1.00  0.00    -0.186 N
BRANCH  29  30
HETATM   30  N9  UNL     1      41.088  13.501  34.907  1.00  0.00    -0.332 N
ATOM     31  H92 UNL     1      40.228  13.107  35.288  1.00  0.00     0.177 HD
ATOM     32  H91 UNL     1      41.766  13.936  35.532  1.00  0.00     0.177 HD
ENDBRANCH  29  30
ENDBRANCH  19  20
ENDBRANCH  18  19
ENDBRANCH  17  18
ENDBRANCH   1  17
TORSDOF 8
ENDMDL