MODEL 1
REMARK VINA RESULT: -4.295432589      0.000      0.000
REMARK  8 active torsions:
REMARK  status: ('A' for Active; 'I' for Inactive)
REMARK    1  A    between atoms: N1_1  and  C1_4
REMARK    2  A    between atoms: C2_7  and  N3_8
REMARK    3  A    between atoms: C3_13  and  N5_14
REMARK    4  A    between atoms: N5_14  and  C4_16
REMARK    5  A    between atoms: C4_16  and  C5_17
REMARK    6  A    between atoms: C5_17  and  N6_18
REMARK    7  A    between atoms: N6_18  and  C6_20
REMARK    8  A    between atoms: C6_20  and  C7_21
ROOT
HETATM    1  N5  UNL     1      38.418  12.789  28.582  1.00  0.00    -0.224 N
ATOM      2  H5  UNL     1      38.667  13.778  28.560  1.00  0.00     0.177 HD
ENDROOT
BRANCH   1   3
HETATM    3  C3  UNL     1      38.247  12.190  27.464  1.00  0.00     0.707 A
HETATM    4  N4  UNL     1      36.983  12.061  26.990  1.00  0.00    -0.022 N
HETATM    5  C2  UNL     1      36.811  11.438  25.817  1.00  0.00     0.705 A
ATOM      6  H4  UNL     1      36.187  12.427  27.511  1.00  0.00     0.203 HD
HETATM    7  N2  UNL     1      37.852  10.944  25.110  1.00  0.00    -0.022 N
HETATM    8  C1  UNL     1      39.095  11.086  25.602  1.00  0.00     0.705 A
ATOM      9  H2  UNL     1      37.698  10.473  24.220  1.00  0.00     0.203 HD
HETATM   10  N8  UNL     1      39.295  11.709  26.780  1.00  0.00    -0.022 N
ATOM     11  H8  UNL     1      40.240  11.814  27.149  1.00  0.00     0.203 HD
BRANCH   5  12
HETATM   12  N3  UNL     1      35.619  11.286  25.306  1.00  0.00    -0.234 N
ATOM     13  H32 UNL     1      35.385  10.458  24.758  1.00  0.00     0.174 HD
ATOM     14  H31 UNL     1      34.940  12.026  25.482  1.00  0.00     0.174 HD
ENDBRANCH   5  12
BRANCH   8  15
HETATM   15  N1  UNL     1      40.142  10.649  24.982  1.00  0.00    -0.234 N
ATOM     16  H12 UNL     1      40.167   9.655  24.754  1.00  0.00     0.174 HD
ATOM     17  H11 UNL     1      40.922  11.256  24.729  1.00  0.00     0.174 HD
ENDBRANCH   8  15
ENDBRANCH   1   3
BRANCH   1  18
HETATM   18  C4  UNL     1      38.281  12.161  29.855  1.00  0.00     0.157 C
BRANCH  18  19
HETATM   19  C5  UNL     1      38.337  13.213  30.979  1.00  0.00     0.139 C
BRANCH  19  20
HETATM   20  N6  UNL     1      39.680  13.631  31.106  1.00  0.00    -0.397 N
ATOM     21  H6  UNL     1      40.061  14.355  30.496  1.00  0.00     0.158 HD
BRANCH  20  22
HETATM   22  C6  UNL     1      40.473  13.034  32.080  1.00  0.00     0.109 C
BRANCH  22  23
HETATM   23  C7  UNL     1      41.516  12.103  31.481  1.00  0.00     0.268 C
HETATM   24  N7  UNL     1      41.918  12.586  30.175  1.00  0.00    -0.323 N
HETATM   25  C8  UNL     1      41.870  11.919  28.923  1.00  0.00     0.293 C
ATOM     26  H7  UNL     1      42.286  13.538  30.153  1.00  0.00     0.165 HD
HETATM   27  O1  UNL     1      41.759  12.646  27.900  1.00  0.00    -0.264 OA
HETATM   28  C9  UNL     1      41.931  10.486  28.656  1.00  0.00     0.240 C
HETATM   29  O2  UNL     1      41.950  10.075  27.471  1.00  0.00    -0.282 OA
HETATM   30  C10 UNL     1      41.977   9.457  29.709  1.00  0.00     0.085 C
HETATM   31  C11 UNL     1      41.650   9.592  30.974  1.00  0.00     0.142 C
HETATM   32  O3  UNL     1      41.189  10.763  31.556  1.00  0.00    -0.333 OA
ENDBRANCH  22  23
ENDBRANCH  20  22
ENDBRANCH  19  20
ENDBRANCH  18  19
ENDBRANCH   1  18
TORSDOF 8
ENDMDL