MODEL 4
REMARK VINA RESULT: -4.010111733      1.399      3.079
REMARK  9 active torsions:
REMARK  status: ('A' for Active; 'I' for Inactive)
REMARK    1  A    between atoms: N1_1  and  C1_4
REMARK    2  A    between atoms: N4_14  and  C5_15
REMARK    3  A    between atoms: C5_15  and  C6_16
REMARK    4  A    between atoms: C6_16  and  C7_17
REMARK    5  A    between atoms: C6_16  and  C8_20
REMARK    6  A    between atoms: C6_16  and  C9_23
REMARK    7  A    between atoms: C7_17  and  O3_18
REMARK    8  A    between atoms: C8_20  and  O4_21
REMARK    9  A    between atoms: C9_23  and  O5_24
ROOT
HETATM    1  C1  UNL     1      46.524  13.913  32.021  1.00  0.00     0.171 C
HETATM    2  N2  UNL     1      45.343  13.586  32.584  1.00  0.00    -0.303 N
ATOM      3  H2  UNL     1      45.012  12.653  32.343  1.00  0.00     0.171 HD
HETATM    4  C2  UNL     1      44.519  14.268  33.409  1.00  0.00     0.277 C
HETATM    5  O1  UNL     1      43.475  13.722  33.830  1.00  0.00    -0.265 OA
HETATM    6  C3  UNL     1      44.671  15.568  33.887  1.00  0.00     0.150 A
HETATM    7  N3  UNL     1      43.771  16.320  34.505  1.00  0.00    -0.301 N
ATOM      8  H3  UNL     1      42.819  16.019  34.714  1.00  0.00     0.171 HD
HETATM    9  C4  UNL     1      44.267  17.529  34.822  1.00  0.00     0.328 A
HETATM   10  O2  UNL     1      43.582  18.419  35.425  1.00  0.00    -0.246 OA
HETATM   11  N4  UNL     1      45.540  17.556  34.389  1.00  0.00    -0.282 N
HETATM   12  C10 UNL     1      45.809  16.353  33.810  1.00  0.00     0.147 A
HETATM   13  N5  UNL     1      46.990  15.986  33.272  1.00  0.00    -0.304 N
ATOM     14  H5  UNL     1      47.789  16.540  33.584  1.00  0.00     0.171 HD
HETATM   15  C11 UNL     1      47.294  15.015  32.396  1.00  0.00     0.290 C
HETATM   16  O6  UNL     1      48.400  15.038  31.801  1.00  0.00    -0.264 OA
ENDROOT
BRANCH  11  17
HETATM   17  C5  UNL     1      46.442  18.637  34.513  1.00  0.00     0.151 C
BRANCH  17  18
HETATM   18  C6  UNL     1      46.372  19.768  33.569  1.00  0.00     0.040 C
BRANCH  18  19
HETATM   19  C7  UNL     1      45.327  19.639  32.484  1.00  0.00     0.179 C
BRANCH  19  20
HETATM   20  O3  UNL     1      44.165  20.364  32.833  1.00  0.00    -0.400 OA
ATOM     21  H3  UNL     1      43.460  19.770  33.061  1.00  0.00     0.209 HD
ENDBRANCH  19  20
ENDBRANCH  18  19
BRANCH  18  22
HETATM   22  C8  UNL     1      47.702  19.880  32.798  1.00  0.00     0.179 C
BRANCH  22  23
HETATM   23  O4  UNL     1      47.829  18.725  32.027  1.00  0.00    -0.400 OA
ATOM     24  H4  UNL     1      48.303  18.090  32.551  1.00  0.00     0.209 HD
ENDBRANCH  22  23
ENDBRANCH  18  22
BRANCH  18  25
HETATM   25  C9  UNL     1      46.241  21.077  34.304  1.00  0.00     0.179 C
BRANCH  25  26
HETATM   26  O5  UNL     1      45.358  20.931  35.407  1.00  0.00    -0.400 OA
ATOM     27  H5  UNL     1      44.890  21.743  35.559  1.00  0.00     0.209 HD
ENDBRANCH  25  26
ENDBRANCH  18  25
ENDBRANCH  17  18
ENDBRANCH  11  17
BRANCH   1  28
HETATM   28  N1  UNL     1      46.984  13.169  31.072  1.00  0.00    -0.381 N
ATOM     29  H12 UNL     1      46.847  13.496  30.116  1.00  0.00     0.157 HD
ATOM     30  H11 UNL     1      47.459  12.300  31.317  1.00  0.00     0.157 HD
ENDBRANCH   1  28
TORSDOF 9
ENDMDL