MODEL 4
REMARK VINA RESULT: -4.349458522      3.735      6.067
REMARK  10 active torsions:
REMARK  status: ('A' for Active; 'I' for Inactive)
REMARK    1  A    between atoms: N1_1  and  C1_4
REMARK    2  A    between atoms: C2_7  and  O1_8
REMARK    3  A    between atoms: C3_10  and  C4_11
REMARK    4  A    between atoms: C4_11  and  N3_12
REMARK    5  A    between atoms: N3_12  and  C5_14
REMARK    6  A    between atoms: C6_19  and  C7_20
REMARK    7  A    between atoms: C7_20  and  N6_21
REMARK    8  A    between atoms: C7_20  and  O2_25
REMARK    9  A    between atoms: N8_30  and  N9_32
REMARK   10  A    between atoms: N9_32  and  C9_34
ROOT
HETATM    1  C1  UNL     1      45.310  16.323  33.064  1.00  0.00     0.679 A
HETATM    2  N2  UNL     1      44.381  16.486  34.017  1.00  0.00    -0.170 N
ATOM      3  H2  UNL     1      44.293  17.393  34.476  1.00  0.00     0.186 HD
HETATM    4  C2  UNL     1      43.557  15.476  34.387  1.00  0.00     0.167 A
HETATM    5  C3  UNL     1      43.678  14.264  33.770  1.00  0.00     0.057 A
HETATM    6  C8  UNL     1      44.637  14.089  32.797  1.00  0.00     0.147 A
HETATM    7  N8  UNL     1      44.788  12.919  32.348  1.00  0.00    -0.282 N
ATOM      8  H8  UNL     1      44.158  12.237  32.770  1.00  0.00     0.188 HD
HETATM    9  N10 UNL     1      45.447  15.140  32.455  1.00  0.00    -0.175 N
ATOM     10  H10 UNL     1      46.157  15.020  31.732  1.00  0.00     0.186 HD
ENDROOT
BRANCH   5  11
HETATM   11  C4  UNL     1      42.697  13.167  34.149  1.00  0.00     0.185 C
BRANCH  11  12
HETATM   12  N3  UNL     1      41.448  13.579  33.608  1.00  0.00    -0.220 N
ATOM     13  H3  UNL     1      40.927  14.232  34.194  1.00  0.00     0.178 HD
BRANCH  12  14
HETATM   14  C5  UNL     1      40.884  13.280  32.545  1.00  0.00     0.694 A
HETATM   15  N4  UNL     1      39.619  13.696  32.156  1.00  0.00    -0.131 N
HETATM   16  N5  UNL     1      39.411  13.242  30.948  1.00  0.00    -0.271 N
ATOM     17  H4  UNL     1      38.970  14.254  32.712  1.00  0.00     0.205 HD
HETATM   18  C6  UNL     1      40.514  12.555  30.574  1.00  0.00     0.169 A
ATOM     19  H5  UNL     1      38.569  13.381  30.389  1.00  0.00     0.189 HD
HETATM   20  N7  UNL     1      41.436  12.561  31.546  1.00  0.00    -0.174 N
ATOM     21  H7  UNL     1      42.355  12.119  31.533  1.00  0.00     0.185 HD
BRANCH  18  22
HETATM   22  C7  UNL     1      40.748  11.904  29.239  1.00  0.00     0.386 C
BRANCH  22  23
HETATM   23  N6  UNL     1      39.637  12.240  28.369  1.00  0.00    -0.046 N
ATOM     24  H63 UNL     1      39.125  13.063  28.685  1.00  0.00     0.277 HD
ATOM     25  H62 UNL     1      39.942  12.604  27.466  1.00  0.00     0.277 HD
ATOM     26  H61 UNL     1      39.041  11.417  28.279  1.00  0.00     0.277 HD
ENDBRANCH  22  23
BRANCH  22  27
HETATM   27  O2  UNL     1      41.937  12.501  28.779  1.00  0.00    -0.364 OA
ATOM     28  H2  UNL     1      42.012  12.195  27.883  1.00  0.00     0.212 HD
ENDBRANCH  22  27
ENDBRANCH  18  22
ENDBRANCH  12  14
ENDBRANCH  11  12
ENDBRANCH   5  11
BRANCH   4  29
HETATM   29  O1  UNL     1      42.576  15.617  35.379  1.00  0.00    -0.345 OA
ATOM     30  H1  UNL     1      41.648  15.668  35.183  1.00  0.00     0.219 HD
ENDBRANCH   4  29
BRANCH   7  31
HETATM   31  N9  UNL     1      45.624  12.379  31.409  1.00  0.00    -0.276 N
ATOM     32  H9  UNL     1      45.249  11.817  30.645  1.00  0.00     0.189 HD
BRANCH  31  33
HETATM   33  C9  UNL     1      47.049  12.616  31.515  1.00  0.00     0.368 C
HETATM   34  O3  UNL     1      47.649  13.524  30.903  1.00  0.00    -0.282 OA
ENDBRANCH  31  33
ENDBRANCH   7  31
BRANCH   1  35
HETATM   35  N1  UNL     1      46.029  17.342  32.699  1.00  0.00    -0.234 N
ATOM     36  H12 UNL     1      47.046  17.313  32.776  1.00  0.00     0.174 HD
ATOM     37  H11 UNL     1      45.569  18.154  32.290  1.00  0.00     0.174 HD
ENDBRANCH   1  35
TORSDOF 10
ENDMDL