MODEL 4
REMARK VINA RESULT: -4.016974192      2.910      4.950
REMARK  8 active torsions:
REMARK  status: ('A' for Active; 'I' for Inactive)
REMARK    1  A    between atoms: N1_1  and  C1_4
REMARK    2  A    between atoms: C2_7  and  N3_8
REMARK    3  A    between atoms: N3_8  and  C3_10
REMARK    4  A    between atoms: C3_10  and  C4_11
REMARK    5  A    between atoms: C4_11  and  N4_12
REMARK    6  A    between atoms: N4_12  and  N5_13
REMARK    7  A    between atoms: C6_19  and  S1_20
REMARK    8  A    between atoms: S1_20  and  N7_21
ROOT
HETATM    1  C1  UNL     1      46.781  13.554  32.144  1.00  0.00     0.678 A
HETATM    2  N2  UNL     1      45.478  13.664  32.488  1.00  0.00    -0.175 N
ATOM      3  H2  UNL     1      44.889  12.831  32.481  1.00  0.00     0.186 HD
HETATM    4  C2  UNL     1      44.939  14.846  32.840  1.00  0.00     0.146 A
HETATM    5  C5  UNL     1      45.718  15.999  32.859  1.00  0.00     0.112 A
HETATM    6  N6  UNL     1      45.206  17.175  33.203  1.00  0.00    -0.326 N
ATOM      7  H6  UNL     1      44.221  17.238  33.459  1.00  0.00     0.168 HD
HETATM    8  C6  UNL     1      45.970  18.291  33.218  1.00  0.00     0.227 A
HETATM    9  N8  UNL     1      47.261  18.184  32.876  1.00  0.00    -0.296 N
ATOM     10  H8  UNL     1      47.842  19.022  32.886  1.00  0.00     0.171 HD
HETATM   11  C7  UNL     1      47.821  17.012  32.521  1.00  0.00     0.277 A
HETATM   12  O3  UNL     1      49.026  16.905  32.200  1.00  0.00    -0.266 OA
HETATM   13  C8  UNL     1      47.056  15.868  32.501  1.00  0.00     0.147 A
HETATM   14  N9  UNL     1      47.550  14.666  32.156  1.00  0.00    -0.184 N
ATOM     15  H9  UNL     1      48.533  14.591  31.896  1.00  0.00     0.184 HD
ENDROOT
BRANCH   4  16
HETATM   16  N3  UNL     1      43.704  14.996  33.177  1.00  0.00    -0.373 N
ATOM     17  H3  UNL     1      43.207  15.838  32.886  1.00  0.00     0.161 HD
BRANCH  16  18
HETATM   18  C3  UNL     1      43.012  14.007  33.949  1.00  0.00     0.139 C
BRANCH  18  19
HETATM   19  C4  UNL     1      41.839  13.407  33.184  1.00  0.00     0.153 C
BRANCH  19  20
HETATM   20  N4  UNL     1      42.314  12.717  31.995  1.00  0.00    -0.147 NA
BRANCH  20  21
HETATM   21  N5  UNL     1      41.734  13.203  30.841  1.00  0.00    -0.348 N
ATOM     22  H52 UNL     1      41.331  14.137  30.771  1.00  0.00     0.172 HD
ATOM     23  H51 UNL     1      41.758  12.524  30.080  1.00  0.00     0.172 HD
ENDBRANCH  20  21
ENDBRANCH  19  20
ENDBRANCH  18  19
ENDBRANCH  16  18
ENDBRANCH   4  16
BRANCH   1  24
HETATM   24  N1  UNL     1      47.274  12.405  31.809  1.00  0.00    -0.234 N
ATOM     25  H12 UNL     1      46.717  11.554  31.877  1.00  0.00     0.174 HD
ATOM     26  H11 UNL     1      48.233  12.334  31.469  1.00  0.00     0.174 HD
ENDBRANCH   1  24
BRANCH   8  27
HETATM   27  S1  UNL     1      45.269  19.824  33.675  1.00  0.00     0.289 S
HETATM   28  O1  UNL     1      44.060  20.091  32.839  1.00  0.00    -0.198 OA
HETATM   29  O2  UNL     1      44.819  19.795  35.116  1.00  0.00    -0.198 OA
BRANCH  27  30
HETATM   30  N7  UNL     1      46.456  21.060  33.519  1.00  0.00    -0.322 N
ATOM     31  H72 UNL     1      47.322  20.967  32.987  1.00  0.00     0.169 HD
ATOM     32  H71 UNL     1      46.154  21.885  34.038  1.00  0.00     0.169 HD
ENDBRANCH  27  30
ENDBRANCH   8  27
TORSDOF 8
ENDMDL