MODEL 2
REMARK VINA RESULT: -4.540959967      1.297      1.361
REMARK  9 active torsions:
REMARK  status: ('A' for Active; 'I' for Inactive)
REMARK    1  A    between atoms: C2_5  and  N2_6
REMARK    2  A    between atoms: N2_6  and  C3_8
REMARK    3  A    between atoms: C3_8  and  C4_9
REMARK    4  A    between atoms: C4_9  and  O2_10
REMARK    5  A    between atoms: C5_14  and  N4_15
REMARK    6  A    between atoms: N4_15  and  C6_17
REMARK    7  A    between atoms: C6_17  and  C7_18
REMARK    8  A    between atoms: C7_18  and  N5_19
REMARK    9  A    between atoms: C9_21  and  O3_22
ROOT
HETATM    1  O1  UNL     1      48.255  13.197  31.152  1.00  0.00    -0.246 OA
HETATM    2  C1  UNL     1      47.562  14.098  31.697  1.00  0.00     0.352 A
HETATM    3  N1  UNL     1      46.240  13.886  31.808  1.00  0.00    -0.140 N
ATOM      4  H1  UNL     1      45.820  13.024  31.461  1.00  0.00     0.189 HD
HETATM    5  C2  UNL     1      45.483  14.837  32.387  1.00  0.00     0.696 A
HETATM    6  N3  UNL     1      46.044  15.972  32.842  1.00  0.00    -0.022 N
ATOM      7  H3  UNL     1      45.451  16.678  33.277  1.00  0.00     0.203 HD
HETATM    8  C5  UNL     1      47.365  16.202  32.741  1.00  0.00     0.696 A
HETATM    9  N7  UNL     1      48.121  15.252  32.162  1.00  0.00    -0.140 N
ATOM     10  H7  UNL     1      49.127  15.396  32.071  1.00  0.00     0.189 HD
ENDROOT
BRANCH   8  11
HETATM   11  N4  UNL     1      47.869  17.319  33.197  1.00  0.00    -0.224 N
ATOM     12  H4  UNL     1      48.504  17.287  33.994  1.00  0.00     0.177 HD
BRANCH  11  13
HETATM   13  C6  UNL     1      47.553  18.590  32.607  1.00  0.00     0.158 C
BRANCH  13  14
HETATM   14  C7  UNL     1      47.279  19.554  33.767  1.00  0.00     0.153 C
BRANCH  14  15
HETATM   15  N5  UNL     1      45.889  19.621  34.098  1.00  0.00    -0.304 N
HETATM   16  C8  UNL     1      45.046  20.589  33.688  1.00  0.00     0.151 A
HETATM   17  C9  UNL     1      43.778  20.348  34.187  1.00  0.00     0.160 A
HETATM   18  N6  UNL     1      43.886  19.220  34.900  1.00  0.00    -0.288 N
HETATM   19  C10 UNL     1      45.152  18.791  34.842  1.00  0.00     0.328 A
ATOM     20  H6  UNL     1      43.128  18.763  35.405  1.00  0.00     0.172 HD
HETATM   21  O4  UNL     1      45.607  17.751  35.405  1.00  0.00    -0.246 OA
BRANCH  17  22
HETATM   22  O3  UNL     1      42.648  21.120  33.983  1.00  0.00    -0.345 OA
ATOM     23  H3  UNL     1      41.745  20.853  34.114  1.00  0.00     0.219 HD
ENDBRANCH  17  22
ENDBRANCH  14  15
ENDBRANCH  13  14
ENDBRANCH  11  13
ENDBRANCH   8  11
BRANCH   5  24
HETATM   24  N2  UNL     1      44.218  14.704  32.527  1.00  0.00    -0.223 N
ATOM     25  H2  UNL     1      43.621  15.185  31.855  1.00  0.00     0.177 HD
BRANCH  24  26
HETATM   26  C3  UNL     1      43.569  13.937  33.545  1.00  0.00     0.164 C
BRANCH  26  27
HETATM   27  C4  UNL     1      42.721  14.810  34.455  1.00  0.00     0.184 C
BRANCH  27  28
HETATM   28  O2  UNL     1      43.338  16.023  34.716  1.00  0.00    -0.399 OA
ATOM     29  H2  UNL     1      42.703  16.701  34.917  1.00  0.00     0.209 HD
ENDBRANCH  27  28
ENDBRANCH  26  27
ENDBRANCH  24  26
ENDBRANCH   5  24
TORSDOF 9
ENDMDL