MODEL 5
REMARK VINA RESULT: -4.073077948      1.449      2.963
REMARK  7 active torsions:
REMARK  status: ('A' for Active; 'I' for Inactive)
REMARK    1  A    between atoms: C3_5  and  N2_6
REMARK    2  A    between atoms: N2_6  and  C4_8
REMARK    3  A    between atoms: N6_20  and  C8_22
REMARK    4  A    between atoms: C8_22  and  C9_23
REMARK    5  A    between atoms: C9_23  and  C10_24
REMARK    6  A    between atoms: C10_24  and  N7_25
REMARK    7  A    between atoms: N7_25  and  N8_26
ROOT
HETATM    1  C1  UNL     1      43.018  19.159  35.717  1.00  0.00     0.088 C
HETATM    2  C2  UNL     1      44.027  18.668  34.715  1.00  0.00     0.070 C
HETATM    3  N1  UNL     1      44.424  17.451  34.710  1.00  0.00    -0.354 N
ATOM      4  H1  UNL     1      44.027  16.827  35.414  1.00  0.00     0.163 HD
HETATM    5  C3  UNL     1      45.389  16.885  33.789  1.00  0.00     0.248 C
HETATM    6  C7  UNL     1      46.018  17.991  33.018  1.00  0.00     0.043 C
HETATM    7  N6  UNL     1      47.258  17.950  32.785  1.00  0.00    -0.392 N
ATOM      8  H6  UNL     1      47.829  17.172  33.118  1.00  0.00     0.159 HD
HETATM    9  C11 UNL     1      45.111  19.091  32.566  1.00  0.00     0.177 C
HETATM   10  N9  UNL     1      44.517  19.618  33.779  1.00  0.00    -0.375 N
ATOM     11  H9  UNL     1      44.454  20.622  33.951  1.00  0.00     0.161 HD
ENDROOT
BRANCH   5  12
HETATM   12  N2  UNL     1      44.726  16.001  32.869  1.00  0.00    -0.199 N
ATOM     13  H2  UNL     1      43.852  16.330  32.460  1.00  0.00     0.180 HD
BRANCH  12  14
HETATM   14  C4  UNL     1      45.127  14.852  32.520  1.00  0.00     0.688 A
HETATM   15  N3  UNL     1      44.328  13.789  32.758  1.00  0.00    -0.141 N
HETATM   16  C5  UNL     1      44.721  12.551  32.400  1.00  0.00     0.342 A
ATOM     17  H3  UNL     1      43.424  13.925  33.209  1.00  0.00     0.189 HD
HETATM   18  O1  UNL     1      44.030  11.519  32.590  1.00  0.00    -0.246 OA
HETATM   19  N4  UNL     1      45.916  12.385  31.806  1.00  0.00    -0.260 N
HETATM   20  C6  UNL     1      46.727  13.444  31.563  1.00  0.00     0.342 A
ATOM     21  H4  UNL     1      46.216  11.449  31.533  1.00  0.00     0.175 HD
HETATM   22  O2  UNL     1      47.834  13.278  31.009  1.00  0.00    -0.246 OA
HETATM   23  N5  UNL     1      46.322  14.679  31.925  1.00  0.00    -0.141 N
ATOM     24  H5  UNL     1      46.922  15.484  31.747  1.00  0.00     0.189 HD
ENDBRANCH  12  14
ENDBRANCH   5  12
BRANCH   7  25
HETATM   25  C8  UNL     1      47.842  19.031  32.038  1.00  0.00     0.120 C
BRANCH  25  26
HETATM   26  C9  UNL     1      49.074  19.567  32.697  1.00  0.00     0.037 C
BRANCH  26  27
HETATM   27  C10 UNL     1      48.816  20.994  33.111  1.00  0.00     0.136 C
BRANCH  27  28
HETATM   28  N7  UNL     1      47.528  21.144  33.759  1.00  0.00    -0.148 NA
BRANCH  28  29
HETATM   29  N8  UNL     1      47.663  20.898  35.155  1.00  0.00    -0.348 N
ATOM     30  H82 UNL     1      48.150  20.096  35.554  1.00  0.00     0.172 HD
ATOM     31  H81 UNL     1      47.200  21.641  35.680  1.00  0.00     0.172 HD
ENDBRANCH  28  29
ENDBRANCH  27  28
ENDBRANCH  26  27
ENDBRANCH  25  26
ENDBRANCH   7  25
TORSDOF 7
ENDMDL