MODEL 4
REMARK VINA RESULT: -6.618858936      1.902      2.663
REMARK  10 active torsions:
REMARK  status: ('A' for Active; 'I' for Inactive)
REMARK    1  A    between atoms: O1_2  and  C2_3
REMARK    2  A    between atoms: C2_3  and  C3_5
REMARK    3  A    between atoms: C9_12  and  N2_13
REMARK    4  A    between atoms: N2_13  and  N3_14
REMARK    5  A    between atoms: N3_14  and  C10_16
REMARK    6  A    between atoms: C11_17  and  C12_18
REMARK       I    between atoms: C12_18  and  N4_20
REMARK    7  A    between atoms: N4_20  and  N5_22
REMARK       I    between atoms: N7_27  and  C13_28
REMARK    8  A    between atoms: C13_28  and  C14_30
REMARK    9  A    between atoms: C14_30  and  N8_31
REMARK   10  A    between atoms: C14_30  and  C15_35
ROOT
HETATM    1  C10 UNL     1     -18.993 -21.073  -2.297  1.00  0.00     0.164 A
HETATM    2  C11 UNL     1     -19.141 -21.924  -1.215  1.00  0.00     0.153 A
HETATM    3  N6  UNL     1     -18.857 -21.211  -0.119  1.00  0.00    -0.281 N
ATOM      4  H6  UNL     1     -18.880 -21.572   0.834  1.00  0.00     0.188 HD
HETATM    5  N7  UNL     1     -18.540 -19.958  -0.457  1.00  0.00    -0.182 N
HETATM    6  C13 UNL     1     -18.215 -18.938   0.478  1.00  0.00     0.287 C
HETATM    7  O4  UNL     1     -18.254 -19.241   1.720  1.00  0.00    -0.268 OA
HETATM    8  C16 UNL     1     -18.616 -19.848  -1.784  1.00  0.00     0.301 A
HETATM    9  O7  UNL     1     -18.398 -18.828  -2.531  1.00  0.00    -0.263 OA
ENDROOT
BRANCH   1  10
HETATM   10  N3  UNL     1     -19.200 -21.459  -3.628  1.00  0.00    -0.227 N
ATOM     11  H3  UNL     1     -18.330 -21.847  -3.994  1.00  0.00     0.202 HD
BRANCH  10  12
HETATM   12  N2  UNL     1     -19.988 -21.495  -4.451  1.00  0.00    -0.324 NA
BRANCH  12  13
HETATM   13  C9  UNL     1     -21.112 -21.236  -5.152  1.00  0.00     0.155 A
HETATM   14  C3  UNL     1     -22.346 -21.618  -4.609  1.00  0.00     0.106 A
HETATM   15  C4  UNL     1     -23.548 -21.395  -5.276  1.00  0.00     0.066 A
HETATM   16  N1  UNL     1     -24.759 -21.814  -4.670  1.00  0.00    -0.101 NA
HETATM   17  C5  UNL     1     -23.521 -20.779  -6.509  1.00  0.00     0.028 A
HETATM   18  C6  UNL     1     -22.337 -20.385  -7.083  1.00  0.00     0.012 A
HETATM   19  C7  UNL     1     -21.158 -20.614  -6.409  1.00  0.00    -0.018 A
HETATM   20  C8  UNL     1     -19.888 -20.183  -7.051  1.00  0.00     0.052 C
BRANCH  14  21
HETATM   21  C2  UNL     1     -22.374 -22.255  -3.313  1.00  0.00     0.298 C
HETATM   22  O2  UNL     1     -22.329 -21.594  -2.264  1.00  0.00    -0.259 OA
BRANCH  21  23
HETATM   23  O1  UNL     1     -22.455 -23.638  -3.233  1.00  0.00    -0.322 OA
HETATM   24  C1  UNL     1     -21.824 -24.507  -4.163  1.00  0.00     0.213 C
ENDBRANCH  21  23
ENDBRANCH  14  21
ENDBRANCH  12  13
ENDBRANCH  10  12
ENDBRANCH   1  10
BRANCH   2  25
HETATM   25  C12 UNL     1     -19.522 -23.344  -1.252  1.00  0.00     0.290 C
HETATM   26  O3  UNL     1     -18.786 -24.169  -1.841  1.00  0.00    -0.264 OA
HETATM   27  N4  UNL     1     -20.707 -23.802  -0.633  1.00  0.00    -0.271 N
ATOM     28  H4  UNL     1     -21.297 -23.119  -0.157  1.00  0.00     0.189 HD
BRANCH  27  29
HETATM   29  N5  UNL     1     -21.109 -25.118  -0.637  1.00  0.00    -0.342 N
ATOM     30  H52 UNL     1     -21.813 -25.392   0.048  1.00  0.00     0.176 HD
ATOM     31  H51 UNL     1     -20.743 -25.818  -1.282  1.00  0.00     0.176 HD
ENDBRANCH  27  29
ENDBRANCH   2  25
BRANCH   6  32
HETATM   32  C14 UNL     1     -17.837 -17.557   0.170  1.00  0.00     0.376 C
BRANCH  32  33
HETATM   33  N8  UNL     1     -18.953 -16.646   0.548  1.00  0.00    -0.056 N
ATOM     34  H83 UNL     1     -19.861 -17.005   0.255  1.00  0.00     0.275 HD
ATOM     35  H82 UNL     1     -19.119 -16.636   1.554  1.00  0.00     0.275 HD
ATOM     36  H81 UNL     1     -18.768 -15.714   0.178  1.00  0.00     0.275 HD
ENDBRANCH  32  33
BRANCH  32  37
HETATM   37  C15 UNL     1     -16.659 -17.104   1.006  1.00  0.00     0.214 C
HETATM   38  O5  UNL     1     -16.711 -16.120   1.775  1.00  0.00    -0.646 OA
HETATM   39  O6  UNL     1     -15.437 -17.792   0.948  1.00  0.00    -0.646 OA
ENDBRANCH  32  37
ENDBRANCH   6  32
TORSDOF 10
ENDMDL