MODEL 4
REMARK VINA RESULT: -6.394487501      1.399      1.423
REMARK  6 active torsions:
REMARK  status: ('A' for Active; 'I' for Inactive)
REMARK       I    between atoms: N1_2  and  C2_4
REMARK    1  A    between atoms: C2_4  and  C3_6
REMARK    2  A    between atoms: C4_9  and  C5_10
REMARK    3  A    between atoms: N6_21  and  O4_23
REMARK    4  A    between atoms: C9_25  and  C10_26
REMARK    5  A    between atoms: C10_26  and  C12_31
REMARK    6  A    between atoms: N7_27  and  O5_29
ROOT
HETATM    1  C3  UNL     1     -20.464 -22.469  -0.683  1.00  0.00     0.118 A
HETATM    2  N2  UNL     1     -21.171 -23.438   0.005  1.00  0.00    -0.334 N
ATOM      3  H2  UNL     1     -21.517 -23.230   0.941  1.00  0.00     0.168 HD
HETATM    4  C4  UNL     1     -21.411 -24.636  -0.525  1.00  0.00     0.154 A
HETATM    5  N5  UNL     1     -20.935 -24.847  -1.753  1.00  0.00    -0.323 N
ATOM      6  H5  UNL     1     -21.113 -25.756  -2.181  1.00  0.00     0.169 HD
HETATM    7  C7  UNL     1     -20.243 -23.952  -2.460  1.00  0.00     0.142 A
HETATM    8  N6  UNL     1     -19.812 -24.213  -3.647  1.00  0.00    -0.250 N
ATOM      9  H6  UNL     1     -19.284 -23.526  -4.184  1.00  0.00     0.196 HD
HETATM   10  C9  UNL     1     -19.957 -22.651  -1.920  1.00  0.00     0.073 A
ENDROOT
BRANCH  10  11
HETATM   11  C10 UNL     1     -18.956 -21.932  -2.623  1.00  0.00     0.106 C
HETATM   12  N7  UNL     1     -17.705 -22.169  -2.239  1.00  0.00    -0.264 N
ATOM     13  H7  UNL     1     -17.523 -22.832  -1.485  1.00  0.00     0.194 HD
BRANCH  12  14
HETATM   14  O5  UNL     1     -16.683 -21.546  -2.836  1.00  0.00    -0.285 OA
HETATM   15  C11 UNL     1     -15.431 -21.249  -2.262  1.00  0.00     0.237 C
ENDBRANCH  12  14
BRANCH  11  16
HETATM   16  C12 UNL     1     -19.015 -20.859  -3.605  1.00  0.00     0.122 A
HETATM   17  N8  UNL     1     -18.834 -19.563  -3.447  1.00  0.00    -0.290 N
HETATM   18  N9  UNL     1     -19.056 -18.731  -4.362  1.00  0.00    -0.279 N
ATOM     19  H8  UNL     1     -18.500 -19.221  -2.545  1.00  0.00     0.188 HD
HETATM   20  C13 UNL     1     -19.495 -19.176  -5.543  1.00  0.00     0.159 A
ATOM     21  H9  UNL     1     -18.904 -17.734  -4.207  1.00  0.00     0.189 HD
HETATM   22  N10 UNL     1     -19.779 -18.471  -6.602  1.00  0.00    -0.379 N
HETATM   23  S1  UNL     1     -19.563 -20.850  -5.249  1.00  0.00    -0.032 SA
ATOM     24 2H10 UNL     1     -19.738 -17.467  -6.779  1.00  0.00     0.158 HD
ATOM     25 1H10 UNL     1     -20.114 -18.811  -7.504  1.00  0.00     0.158 HD
ENDBRANCH  11  16
ENDBRANCH  10  11
BRANCH   1  26
HETATM   26  C2  UNL     1     -20.463 -21.142  -0.087  1.00  0.00     0.268 C
HETATM   27  N1  UNL     1     -19.336 -20.673   0.603  1.00  0.00    -0.360 N
HETATM   28  C1  UNL     1     -19.283 -19.340   1.213  1.00  0.00     0.149 C
ATOM     29  H1  UNL     1     -18.522 -21.282   0.683  1.00  0.00     0.162 HD
HETATM   30  O1  UNL     1     -21.467 -20.421  -0.210  1.00  0.00    -0.266 OA
ENDBRANCH   1  26
BRANCH   8  31
HETATM   31  O4  UNL     1     -20.094 -25.454  -4.155  1.00  0.00    -0.284 OA
HETATM   32  C8  UNL     1     -20.887 -25.667  -5.302  1.00  0.00     0.237 C
ENDBRANCH   8  31
BRANCH   4  33
HETATM   33  C5  UNL     1     -22.160 -25.656   0.215  1.00  0.00     0.175 A
HETATM   34  N3  UNL     1     -22.175 -26.972  -0.031  1.00  0.00    -0.236 N
HETATM   35  O2  UNL     1     -22.939 -27.593   0.809  1.00  0.00    -0.179 OA
ATOM     36  H3  UNL     1     -21.652 -27.426  -0.780  1.00  0.00     0.197 HD
HETATM   37  C6  UNL     1     -23.427 -26.663   1.608  1.00  0.00     0.388 A
HETATM   38  O3  UNL     1     -24.221 -26.920   2.559  1.00  0.00    -0.236 OA
HETATM   39  N4  UNL     1     -22.957 -25.455   1.259  1.00  0.00    -0.282 N
ATOM     40  H4  UNL     1     -23.170 -24.562   1.705  1.00  0.00     0.172 HD
ENDBRANCH   4  33
TORSDOF 6
ENDMDL