MODEL 5
REMARK VINA RESULT: -7.028977834      1.595      2.354
REMARK  10 active torsions:
REMARK  status: ('A' for Active; 'I' for Inactive)
REMARK    1  A    between atoms: C2_2  and  O2_4
REMARK    2  A    between atoms: O2_4  and  C3_5
REMARK    3  A    between atoms: C3_5  and  C4_6
REMARK    4  A    between atoms: C4_6  and  N1_7
REMARK    5  A    between atoms: C5_9  and  C6_10
REMARK    6  A    between atoms: C8_12  and  O3_13
REMARK    7  A    between atoms: C10_17  and  O4_18
REMARK    8  A    between atoms: C14_27  and  O5_28
REMARK    9  A    between atoms: C17_32  and  C18_33
REMARK   10  A    between atoms: N5_34  and  N6_36
ROOT
HETATM    1  C6  UNL     1     -20.345 -22.496  -0.168  1.00  0.00     0.024 A
HETATM    2  C7  UNL     1     -19.783 -21.397   0.262  1.00  0.00     0.043 A
HETATM    3  C8  UNL     1     -19.289 -20.178   0.963  1.00  0.00     0.104 C
HETATM    4  C9  UNL     1     -18.489 -19.179   0.509  1.00  0.00     0.114 C
HETATM    5  N2  UNL     1     -18.185 -18.142   1.396  1.00  0.00    -0.096 NA
HETATM    6  C10 UNL     1     -17.905 -19.036  -0.842  1.00  0.00     0.108 C
HETATM    7  C11 UNL     1     -17.338 -19.976  -1.599  1.00  0.00     0.065 C
HETATM    8  C12 UNL     1     -17.045 -21.396  -1.467  1.00  0.00     0.104 C
HETATM    9  N3  UNL     1     -18.035 -22.317  -1.152  1.00  0.00    -0.364 N
ATOM     10  H3  UNL     1     -17.787 -23.286  -0.952  1.00  0.00     0.162 HD
HETATM   11  C13 UNL     1     -19.382 -21.909  -1.110  1.00  0.00     0.168 A
HETATM   12  N4  UNL     1     -19.772 -21.088  -2.227  1.00  0.00    -0.336 N
ATOM     13  H4  UNL     1     -20.426 -20.350  -1.964  1.00  0.00     0.164 HD
HETATM   14  C14 UNL     1     -19.463 -21.072  -3.569  1.00  0.00     0.145 C
HETATM   15  C15 UNL     1     -18.321 -20.776  -4.402  1.00  0.00     0.004 C
HETATM   16  C16 UNL     1     -18.291 -21.510  -5.734  1.00  0.00     0.054 C
HETATM   17  C17 UNL     1     -17.283 -19.979  -4.184  1.00  0.00     0.042 C
HETATM   18  C19 UNL     1     -17.137 -19.260  -2.901  1.00  0.00     0.198 C
HETATM   19  O6  UNL     1     -16.848 -18.051  -2.853  1.00  0.00    -0.286 OA
ENDROOT
BRANCH   1  20
HETATM   20  C5  UNL     1     -21.301 -23.561   0.138  1.00  0.00     0.095 C
HETATM   21  N1  UNL     1     -21.066 -24.497   0.967  1.00  0.00    -0.396 N
ATOM     22  H1  UNL     1     -20.164 -24.507   1.444  1.00  0.00     0.158 HD
BRANCH  21  23
HETATM   23  C4  UNL     1     -21.997 -25.528   1.260  1.00  0.00     0.146 C
BRANCH  23  24
HETATM   24  C3  UNL     1     -21.974 -26.753   0.432  1.00  0.00     0.198 C
BRANCH  24  25
HETATM   25  O2  UNL     1     -22.606 -26.779  -0.776  1.00  0.00    -0.320 OA
BRANCH  25  26
HETATM   26  C2  UNL     1     -22.120 -26.755  -2.040  1.00  0.00     0.254 C
HETATM   27  C1  UNL     1     -22.101 -25.488  -2.871  1.00  0.00     0.126 C
HETATM   28  O1  UNL     1     -21.672 -27.815  -2.536  1.00  0.00    -0.266 OA
ENDBRANCH  25  26
ENDBRANCH  24  25
ENDBRANCH  23  24
ENDBRANCH  21  23
ENDBRANCH   1  20
BRANCH   3  29
HETATM   29  O3  UNL     1     -19.685 -20.021   2.245  1.00  0.00    -0.358 OA
ATOM     30  H3  UNL     1     -19.213 -19.373   2.755  1.00  0.00     0.217 HD
ENDBRANCH   3  29
BRANCH  14  31
HETATM   31  O5  UNL     1     -20.547 -21.431  -4.296  1.00  0.00    -0.346 OA
ATOM     32  H5  UNL     1     -20.576 -22.377  -4.388  1.00  0.00     0.219 HD
ENDBRANCH  14  31
BRANCH   6  33
HETATM   33  O4  UNL     1     -17.948 -17.764  -1.384  1.00  0.00    -0.358 OA
ATOM     34  H4  UNL     1     -18.534 -17.650  -2.123  1.00  0.00     0.217 HD
ENDBRANCH   6  33
BRANCH  17  35
HETATM   35  C18 UNL     1     -16.176 -19.753  -5.130  1.00  0.00     0.122 C
HETATM   36  N5  UNL     1     -15.008 -19.327  -4.839  1.00  0.00    -0.318 N
ATOM     37  H5  UNL     1     -14.785 -19.114  -3.868  1.00  0.00     0.185 HD
BRANCH  36  38
HETATM   38  N6  UNL     1     -14.036 -19.148  -5.813  1.00  0.00    -0.345 N
ATOM     39  H62 UNL     1     -13.116 -19.560  -5.657  1.00  0.00     0.176 HD
ATOM     40  H61 UNL     1     -14.224 -18.622  -6.666  1.00  0.00     0.176 HD
ENDBRANCH  36  38
ENDBRANCH  17  35
TORSDOF 10
ENDMDL