MODEL 4
REMARK VINA RESULT: -6.498126865      2.436      7.152
REMARK  8 active torsions:
REMARK  status: ('A' for Active; 'I' for Inactive)
REMARK    1  A    between atoms: O1_2  and  C2_3
REMARK    2  A    between atoms: C4_5  and  O2_6
REMARK    3  A    between atoms: C6_8  and  O3_9
REMARK    4  A    between atoms: C10_15  and  N2_16
REMARK    5  A    between atoms: N2_16  and  N3_18
REMARK    6  A    between atoms: N4_21  and  C11_22
REMARK    7  A    between atoms: C12_25  and  N6_26
REMARK    8  A    between atoms: N9_36  and  O7_37
ROOT
HETATM    1  C11 UNL     1     -19.854 -22.147  -1.178  1.00  0.00     0.170 A
HETATM    2  N5  UNL     1     -20.150 -22.945  -0.104  1.00  0.00    -0.173 N
ATOM      3  H5  UNL     1     -19.581 -22.890   0.741  1.00  0.00     0.186 HD
HETATM    4  C12 UNL     1     -21.191 -23.802  -0.158  1.00  0.00     0.680 A
HETATM    5  N7  UNL     1     -21.950 -23.887  -1.262  1.00  0.00    -0.155 N
ATOM      6  H7  UNL     1     -22.734 -24.539  -1.294  1.00  0.00     0.187 HD
HETATM    7  C13 UNL     1     -21.676 -23.113  -2.326  1.00  0.00     0.284 A
HETATM    8  O6  UNL     1     -22.369 -23.180  -3.353  1.00  0.00    -0.266 OA
HETATM    9  C14 UNL     1     -20.604 -22.208  -2.311  1.00  0.00     0.159 A
HETATM   10  C15 UNL     1     -20.332 -21.385  -3.435  1.00  0.00     0.109 C
HETATM   11  N8  UNL     1     -20.135 -20.724  -4.342  1.00  0.00    -0.191 NA
ENDROOT
BRANCH   1  12
HETATM   12  N4  UNL     1     -18.765 -21.276  -1.033  1.00  0.00    -0.204 N
HETATM   13  C10 UNL     1     -18.996 -19.859  -0.990  1.00  0.00     0.337 C
HETATM   14  N1  UNL     1     -17.819 -19.103  -1.364  1.00  0.00    -0.345 N
HETATM   15  C9  UNL     1     -16.519 -19.619  -1.327  1.00  0.00     0.099 A
ATOM     16  H1  UNL     1     -17.945 -18.139  -1.671  1.00  0.00     0.163 HD
HETATM   17  C2  UNL     1     -15.408 -18.788  -1.508  1.00  0.00     0.100 A
HETATM   18  C8  UNL     1     -16.317 -20.964  -1.099  1.00  0.00     0.146 A
HETATM   19  C3  UNL     1     -14.133 -19.303  -1.459  1.00  0.00     0.078 A
HETATM   20  C4  UNL     1     -13.897 -20.639  -1.231  1.00  0.00     0.106 A
HETATM   21  C6  UNL     1     -15.013 -21.446  -1.055  1.00  0.00     0.135 A
HETATM   22  N9  UNL     1     -17.453 -21.814  -0.949  1.00  0.00    -0.151 N
BRANCH  13  23
HETATM   23  N2  UNL     1     -19.592 -19.374   0.210  1.00  0.00    -0.234 N
ATOM     24  H2  UNL     1     -20.508 -18.928   0.147  1.00  0.00     0.190 HD
BRANCH  23  25
HETATM   25  N3  UNL     1     -19.000 -19.474   1.452  1.00  0.00    -0.040 N
HETATM   26  O4  UNL     1     -17.885 -19.022   1.765  1.00  0.00    -0.517 OA
HETATM   27  O5  UNL     1     -19.667 -20.123   2.494  1.00  0.00    -0.517 OA
ENDBRANCH  23  25
ENDBRANCH  13  23
BRANCH  17  28
HETATM   28  O1  UNL     1     -15.661 -17.428  -1.738  1.00  0.00    -0.353 OA
HETATM   29  C1  UNL     1     -14.822 -16.711  -2.595  1.00  0.00     0.210 C
ENDBRANCH  17  28
BRANCH  20  30
HETATM   30  O2  UNL     1     -12.654 -21.186  -1.175  1.00  0.00    -0.353 OA
HETATM   31  C5  UNL     1     -11.872 -21.588  -2.253  1.00  0.00     0.210 C
ENDBRANCH  20  30
BRANCH  21  32
HETATM   32  O3  UNL     1     -14.803 -22.809  -0.821  1.00  0.00    -0.351 OA
HETATM   33  C7  UNL     1     -14.380 -23.133   0.521  1.00  0.00     0.210 C
ENDBRANCH  21  32
BRANCH  22  34
HETATM   34  O7  UNL     1     -17.257 -23.123  -0.751  1.00  0.00    -0.267 OA
ATOM     35  H7  UNL     1     -17.403 -23.482   0.116  1.00  0.00     0.247 HD
ENDBRANCH  22  34
ENDBRANCH   1  12
BRANCH   4  36
HETATM   36  N6  UNL     1     -21.434 -24.543   0.886  1.00  0.00    -0.234 N
ATOM     37  H62 UNL     1     -21.975 -25.405   0.807  1.00  0.00     0.174 HD
ATOM     38  H61 UNL     1     -21.068 -24.240   1.788  1.00  0.00     0.174 HD
ENDBRANCH   4  36
TORSDOF 8
ENDMDL