MODEL 1
REMARK VINA RESULT: -7.877412773      0.000      0.000
REMARK  9 active torsions:
REMARK  status: ('A' for Active; 'I' for Inactive)
REMARK    1  A    between atoms: C1_2  and  N2_4
REMARK    2  A    between atoms: N3_6  and  C2_8
REMARK    3  A    between atoms: C3_11  and  O1_12
REMARK    4  A    between atoms: C4_14  and  C5_15
REMARK    5  A    between atoms: C5_15  and  N5_16
REMARK    6  A    between atoms: N5_16  and  N6_17
REMARK       I    between atoms: N6_17  and  C6_18
REMARK    7  A    between atoms: C6_18  and  C7_20
REMARK    8  A    between atoms: C7_20  and  S2_21
REMARK    9  A    between atoms: S2_21  and  C8_22
ROOT
HETATM    1  N6  UNL     1     -20.515 -21.552   0.247  1.00  0.00    -0.209 NA
HETATM    2  C6  UNL     1     -21.085 -22.606  -0.395  1.00  0.00     0.337 C
HETATM    3  O2  UNL     1     -21.931 -22.707  -1.169  1.00  0.00    -0.253 OA
ENDROOT
BRANCH   2   4
HETATM    4  C7  UNL     1     -20.352 -23.911   0.175  1.00  0.00     0.205 C
BRANCH   4   5
HETATM    5  S2  UNL     1     -21.274 -25.350  -0.449  1.00  0.00    -0.082 SA
BRANCH   5   6
HETATM    6  C8  UNL     1     -22.427 -25.923   0.819  1.00  0.00     0.161 A
HETATM    7  N7  UNL     1     -23.062 -27.071   0.628  1.00  0.00    -0.278 N
HETATM    8  N8  UNL     1     -24.062 -27.477   1.348  1.00  0.00    -0.279 N
ATOM      9  H7  UNL     1     -22.745 -27.672  -0.133  1.00  0.00     0.189 HD
HETATM   10  C9  UNL     1     -24.440 -26.660   2.352  1.00  0.00     0.182 A
ATOM     11  H8  UNL     1     -24.534 -28.362   1.166  1.00  0.00     0.189 HD
HETATM   12  N9  UNL     1     -25.544 -26.718   3.232  1.00  0.00    -0.267 N
HETATM   13  C10 UNL     1     -23.836 -25.480   2.594  1.00  0.00     0.171 A
HETATM   14  N10 UNL     1     -25.501 -25.605   3.962  1.00  0.00    -0.239 N
ATOM     15  H9  UNL     1     -26.237 -27.463   3.294  1.00  0.00     0.190 HD
HETATM   16  N11 UNL     1     -24.519 -24.848   3.597  1.00  0.00    -0.268 N
ATOM     17  H10 UNL     1     -26.157 -25.380   4.710  1.00  0.00     0.208 HD
ATOM     18  H11 UNL     1     -24.293 -23.935   3.991  1.00  0.00     0.190 HD
HETATM   19  N12 UNL     1     -22.844 -25.144   1.805  1.00  0.00    -0.318 N
ATOM     20  H12 UNL     1     -22.376 -24.250   1.956  1.00  0.00     0.169 HD
ENDBRANCH   5   6
ENDBRANCH   4   5
ENDBRANCH   2   4
BRANCH   1  21
HETATM   21  N5  UNL     1     -20.033 -20.581   0.794  1.00  0.00    -0.257 NA
BRANCH  21  22
HETATM   22  C5  UNL     1     -19.511 -19.766   1.458  1.00  0.00     0.248 C
BRANCH  22  23
HETATM   23  C4  UNL     1     -18.380 -19.117   0.788  1.00  0.00     0.091 A
HETATM   24  C3  UNL     1     -17.476 -19.721  -0.004  1.00  0.00     0.162 A
HETATM   25  N4  UNL     1     -16.572 -18.967  -0.548  1.00  0.00    -0.315 N
HETATM   26  C2  UNL     1     -16.550 -17.641  -0.317  1.00  0.00     0.166 A
ATOM     27  H4  UNL     1     -15.869 -19.384  -1.159  1.00  0.00     0.170 HD
HETATM   28  S3  UNL     1     -17.934 -17.485   0.759  1.00  0.00    -0.046 SA
BRANCH  24  29
HETATM   29  O1  UNL     1     -17.514 -21.170  -0.205  1.00  0.00    -0.345 OA
ATOM     30  H1  UNL     1     -18.239 -21.605  -0.640  1.00  0.00     0.219 HD
ENDBRANCH  24  29
BRANCH  26  31
HETATM   31  N3  UNL     1     -16.055 -16.703  -0.940  1.00  0.00    -0.278 N
HETATM   32  N2  UNL     1     -15.359 -16.560  -1.991  1.00  0.00    -0.277 N
ATOM     33  H2  UNL     1     -15.813 -15.851  -2.567  1.00  0.00     0.189 HD
ATOM     34  H3  UNL     1     -16.257 -15.807  -0.497  1.00  0.00     0.189 HD
BRANCH  32  35
HETATM   35  C1  UNL     1     -14.246 -16.979  -2.653  1.00  0.00     0.199 C
HETATM   36  N1  UNL     1     -13.021 -16.289  -2.809  1.00  0.00    -0.068 NA
HETATM   37  S1  UNL     1     -14.378 -18.391  -3.570  1.00  0.00    -0.043 SA
ENDBRANCH  32  35
ENDBRANCH  26  31
ENDBRANCH  22  23
ENDBRANCH  21  22
ENDBRANCH   1  21
TORSDOF 9
ENDMDL