MODEL 2
REMARK VINA RESULT: -7.234980725      1.637      4.402
REMARK  8 active torsions:
REMARK  status: ('A' for Active; 'I' for Inactive)
REMARK    1  A    between atoms: C3_8  and  S1_9
REMARK    2  A    between atoms: S1_9  and  N3_12
REMARK    3  A    between atoms: N3_12  and  N4_14
REMARK    4  A    between atoms: N4_14  and  C4_15
REMARK    5  A    between atoms: N4_14  and  N7_21
REMARK    6  A    between atoms: C4_15  and  C5_16
REMARK    7  A    between atoms: N7_21  and  C6_23
REMARK    8  A    between atoms: C9_28  and  C10_29
ROOT
HETATM    1  N4  UNL     1     -18.775 -20.651  -2.182  1.00  0.00    -0.216 N
ENDROOT
BRANCH   1   2
HETATM    2  N3  UNL     1     -18.508 -19.407  -1.697  1.00  0.00    -0.204 N
ATOM      3  H3  UNL     1     -18.204 -18.664  -2.326  1.00  0.00     0.202 HD
BRANCH   2   4
HETATM    4  S1  UNL     1     -18.683 -19.106  -0.055  1.00  0.00     0.296 S
HETATM    5  O2  UNL     1     -20.100 -19.189   0.452  1.00  0.00    -0.197 OA
HETATM    6  O3  UNL     1     -17.938 -20.205   0.700  1.00  0.00    -0.197 OA
BRANCH   4   7
HETATM    7  C3  UNL     1     -17.980 -17.604   0.483  1.00  0.00     0.197 A
HETATM    8  C2  UNL     1     -16.652 -17.259   0.457  1.00  0.00     0.072 A
HETATM    9  C1  UNL     1     -15.496 -18.062  -0.025  1.00  0.00     0.074 C
HETATM   10  N1  UNL     1     -16.576 -16.019   0.965  1.00  0.00    -0.243 N
HETATM   11  O1  UNL     1     -17.781 -15.648   1.273  1.00  0.00    -0.156 OA
ATOM     12  H1  UNL     1     -15.726 -15.468   1.087  1.00  0.00     0.196 HD
HETATM   13  N2  UNL     1     -18.644 -16.569   0.999  1.00  0.00    -0.227 N
ATOM     14  H2  UNL     1     -19.651 -16.513   1.150  1.00  0.00     0.197 HD
ENDBRANCH   4   7
ENDBRANCH   2   4
ENDBRANCH   1   2
BRANCH   1  15
HETATM   15  C4  UNL     1     -20.090 -21.263  -2.220  1.00  0.00     0.242 C
BRANCH  15  16
HETATM   16  C5  UNL     1     -20.243 -22.417  -1.315  1.00  0.00     0.108 C
HETATM   17  N5  UNL     1     -20.227 -22.252  -0.056  1.00  0.00    -0.390 N
ATOM     18  H52 UNL     1     -20.106 -21.320   0.342  1.00  0.00     0.157 HD
ATOM     19  H51 UNL     1     -20.333 -23.050   0.570  1.00  0.00     0.157 HD
HETATM   20  N6  UNL     1     -20.411 -23.708  -1.866  1.00  0.00    -0.086 NA
ENDBRANCH  15  16
ENDBRANCH   1  15
BRANCH   1  21
HETATM   21  N7  UNL     1     -17.710 -21.384  -2.692  1.00  0.00    -0.262 N
ATOM     22  H7  UNL     1     -17.663 -21.552  -3.697  1.00  0.00     0.191 HD
BRANCH  21  23
HETATM   23  C6  UNL     1     -16.761 -21.869  -1.921  1.00  0.00     0.165 A
HETATM   24  N8  UNL     1     -15.643 -21.271  -1.507  1.00  0.00    -0.338 N
HETATM   25  C7  UNL     1     -14.821 -21.947  -0.731  1.00  0.00     0.029 A
ATOM     26  H8  UNL     1     -15.430 -20.313  -1.785  1.00  0.00     0.168 HD
HETATM   27  C8  UNL     1     -13.507 -21.394  -0.181  1.00  0.00     0.070 C
HETATM   28  C9  UNL     1     -15.176 -23.226  -0.404  1.00  0.00     0.083 A
HETATM   29  S2  UNL     1     -16.657 -23.416  -1.207  1.00  0.00    -0.046 SA
BRANCH  28  30
HETATM   30  C10 UNL     1     -14.465 -24.210   0.434  1.00  0.00     0.185 A
HETATM   31  N9  UNL     1     -14.240 -24.128   1.736  1.00  0.00    -0.275 N
HETATM   32  N10 UNL     1     -13.573 -25.211   2.100  1.00  0.00    -0.263 N
ATOM     33  H9  UNL     1     -14.529 -23.367   2.349  1.00  0.00     0.189 HD
HETATM   34  C11 UNL     1     -13.380 -25.978   1.015  1.00  0.00     0.238 A
ATOM     35  H10 UNL     1     -13.259 -25.427   3.046  1.00  0.00     0.190 HD
HETATM   36  N11 UNL     1     -12.771 -27.120   0.949  1.00  0.00    -0.364 N
HETATM   37  O4  UNL     1     -13.949 -25.315   0.014  1.00  0.00    -0.259 OA
ATOM     38 2H11 UNL     1     -12.334 -27.628   1.717  1.00  0.00     0.159 HD
ATOM     39 1H11 UNL     1     -12.624 -27.702   0.125  1.00  0.00     0.159 HD
ENDBRANCH  28  30
ENDBRANCH  21  23
ENDBRANCH   1  21
TORSDOF 8
ENDMDL