MODEL 3
REMARK VINA RESULT: -7.077402265      1.165      3.237
REMARK  10 active torsions:
REMARK  status: ('A' for Active; 'I' for Inactive)
REMARK    1  A    between atoms: O1_2  and  C2_3
REMARK    2  A    between atoms: C2_3  and  C3_5
REMARK    3  A    between atoms: C4_6  and  O3_7
REMARK    4  A    between atoms: C6_9  and  O4_10
REMARK    5  A    between atoms: C8_12  and  O5_13
REMARK    6  A    between atoms: C9_15  and  O6_16
REMARK    7  A    between atoms: C10_18  and  C11_19
REMARK       I    between atoms: C11_19  and  N1_21
REMARK    8  A    between atoms: N1_21  and  N2_22
REMARK    9  A    between atoms: N2_22  and  C12_24
REMARK   10  A    between atoms: C13_27  and  N4_28
ROOT
HETATM    1  C11 UNL     1     -20.764 -21.443  -0.593  1.00  0.00     0.350 C
HETATM    2  O7  UNL     1     -21.798 -20.746  -0.344  1.00  0.00    -0.249 OA
HETATM    3  N1  UNL     1     -20.516 -22.630   0.059  1.00  0.00    -0.266 NA
ENDROOT
BRANCH   1   4
HETATM    4  C10 UNL     1     -19.863 -20.887  -1.623  1.00  0.00     0.103 A
HETATM    5  C3  UNL     1     -18.925 -19.963  -1.283  1.00  0.00     0.095 A
HETATM    6  C4  UNL     1     -18.060 -19.444  -2.266  1.00  0.00     0.121 A
HETATM    7  C6  UNL     1     -18.139 -19.856  -3.585  1.00  0.00     0.139 A
HETATM    8  C8  UNL     1     -19.098 -20.800  -3.929  1.00  0.00     0.136 A
HETATM    9  C9  UNL     1     -19.951 -21.306  -2.942  1.00  0.00     0.120 A
BRANCH   5  10
HETATM   10  C2  UNL     1     -18.784 -19.484   0.070  1.00  0.00     0.297 C
HETATM   11  O2  UNL     1     -18.045 -19.992   0.956  1.00  0.00    -0.259 OA
BRANCH  10  12
HETATM   12  O1  UNL     1     -19.519 -18.352   0.462  1.00  0.00    -0.322 OA
HETATM   13  C1  UNL     1     -18.916 -17.102   0.739  1.00  0.00     0.213 C
ENDBRANCH  10  12
ENDBRANCH   5  10
BRANCH   6  14
HETATM   14  O3  UNL     1     -17.129 -18.515  -1.880  1.00  0.00    -0.352 OA
HETATM   15  C5  UNL     1     -15.772 -18.715  -1.647  1.00  0.00     0.210 C
ENDBRANCH   6  14
BRANCH   7  16
HETATM   16  O4  UNL     1     -17.317 -19.378  -4.569  1.00  0.00    -0.351 OA
HETATM   17  C7  UNL     1     -17.448 -18.161  -5.231  1.00  0.00     0.210 C
ENDBRANCH   7  16
BRANCH   8  18
HETATM   18  O5  UNL     1     -19.160 -21.197  -5.249  1.00  0.00    -0.356 OA
ATOM     19  H5  UNL     1     -18.390 -21.608  -5.623  1.00  0.00     0.218 HD
ENDBRANCH   8  18
BRANCH   9  20
HETATM   20  O6  UNL     1     -20.886 -22.231  -3.309  1.00  0.00    -0.357 OA
ATOM     21  H6  UNL     1     -20.720 -22.755  -4.083  1.00  0.00     0.218 HD
ENDBRANCH   9  20
ENDBRANCH   1   4
BRANCH   3  22
HETATM   22  N2  UNL     1     -20.283 -23.748   0.673  1.00  0.00    -0.061 N
ATOM     23  H2  UNL     1     -19.370 -23.808   1.123  1.00  0.00     0.221 HD
BRANCH  22  24
HETATM   24  C12 UNL     1     -21.020 -24.790   0.806  1.00  0.00     0.710 A
HETATM   25  N3  UNL     1     -20.647 -25.978   0.316  1.00  0.00    -0.174 N
HETATM   26  C13 UNL     1     -21.424 -27.087   0.467  1.00  0.00     0.130 A
ATOM     27  H3  UNL     1     -19.760 -26.055  -0.183  1.00  0.00     0.186 HD
HETATM   28  C14 UNL     1     -22.612 -26.931   1.147  1.00  0.00     0.071 A
HETATM   29  C15 UNL     1     -23.629 -27.807   1.487  1.00  0.00     0.126 A
HETATM   30  C17 UNL     1     -23.026 -25.701   1.671  1.00  0.00     0.152 A
HETATM   31  N5  UNL     1     -24.561 -27.120   2.160  1.00  0.00    -0.307 N
HETATM   32  N6  UNL     1     -24.218 -25.852   2.281  1.00  0.00    -0.280 N
ATOM     33  H5  UNL     1     -25.421 -27.523   2.530  1.00  0.00     0.186 HD
HETATM   34  C16 UNL     1     -24.952 -24.779   2.947  1.00  0.00     0.179 C
HETATM   35  N7  UNL     1     -22.189 -24.675   1.466  1.00  0.00    -0.172 N
ATOM     36  H7  UNL     1     -22.450 -23.759   1.829  1.00  0.00     0.186 HD
BRANCH  26  37
HETATM   37  N4  UNL     1     -21.080 -28.235  -0.004  1.00  0.00    -0.384 N
ATOM     38  H42 UNL     1     -20.382 -28.308  -0.744  1.00  0.00     0.157 HD
ATOM     39  H41 UNL     1     -21.483 -29.106   0.340  1.00  0.00     0.157 HD
ENDBRANCH  26  37
ENDBRANCH  22  24
ENDBRANCH   3  22
TORSDOF 10
ENDMDL