MODEL 5
REMARK VINA RESULT: -7.312868148      1.752      2.811
REMARK  8 active torsions:
REMARK  status: ('A' for Active; 'I' for Inactive)
REMARK    1  A    between atoms: C2_2  and  C3_3
REMARK    2  A    between atoms: C4_4  and  C5_5
REMARK       I    between atoms: C5_5  and  N1_7
REMARK    3  A    between atoms: N1_7  and  C6_9
REMARK    4  A    between atoms: C6_9  and  C7_10
REMARK    5  A    between atoms: C7_10  and  C8_11
REMARK    6  A    between atoms: N4_18  and  C11_19
REMARK    7  A    between atoms: N9_31  and  C13_32
REMARK    8  A    between atoms: C14_38  and  N12_39
ROOT
HETATM    1  C5  UNL     1     -19.824 -21.247  -2.195  1.00  0.00     0.270 C
HETATM    2  O1  UNL     1     -20.018 -20.495  -1.219  1.00  0.00    -0.266 OA
HETATM    3  N1  UNL     1     -18.959 -20.835  -3.231  1.00  0.00    -0.355 N
ATOM      4  H1  UNL     1     -18.828 -21.481  -4.010  1.00  0.00     0.162 HD
ENDROOT
BRANCH   3   5
HETATM    5  C6  UNL     1     -18.250 -19.597  -3.287  1.00  0.00     0.129 C
BRANCH   5   6
HETATM    6  C7  UNL     1     -16.790 -19.697  -2.874  1.00  0.00     0.081 C
BRANCH   6   7
HETATM    7  C8  UNL     1     -16.330 -18.437  -2.265  1.00  0.00     0.063 A
HETATM    8  C9  UNL     1     -15.465 -17.554  -2.907  1.00  0.00     0.048 A
HETATM    9  C10 UNL     1     -14.868 -17.695  -4.258  1.00  0.00     0.072 C
HETATM   10  N2  UNL     1     -15.294 -16.548  -2.032  1.00  0.00    -0.288 N
HETATM   11  N3  UNL     1     -15.990 -16.796  -0.959  1.00  0.00    -0.234 N
ATOM     12  H2  UNL     1     -14.713 -15.723  -2.183  1.00  0.00     0.188 HD
HETATM   13  N4  UNL     1     -16.654 -17.964  -1.057  1.00  0.00    -0.223 N
ATOM     14  H3  UNL     1     -16.028 -16.182  -0.146  1.00  0.00     0.209 HD
BRANCH  13  15
HETATM   15  C11 UNL     1     -17.498 -18.521  -0.063  1.00  0.00     0.196 A
HETATM   16  N5  UNL     1     -17.452 -19.696   0.578  1.00  0.00    -0.220 N
HETATM   17  O2  UNL     1     -18.447 -19.790   1.422  1.00  0.00    -0.153 OA
ATOM     18  H5  UNL     1     -16.744 -20.414   0.429  1.00  0.00     0.198 HD
HETATM   19  N6  UNL     1     -19.176 -18.719   1.384  1.00  0.00    -0.222 N
HETATM   20  C12 UNL     1     -18.632 -17.891   0.473  1.00  0.00     0.169 A
ATOM     21  H6  UNL     1     -20.010 -18.537   1.942  1.00  0.00     0.198 HD
HETATM   22  N7  UNL     1     -19.040 -16.730   0.127  1.00  0.00    -0.381 N
ATOM     23  H72 UNL     1     -18.628 -16.103  -0.563  1.00  0.00     0.157 HD
ATOM     24  H71 UNL     1     -19.864 -16.273   0.518  1.00  0.00     0.157 HD
ENDBRANCH  13  15
ENDBRANCH   6   7
ENDBRANCH   5   6
ENDBRANCH   3   5
BRANCH   1  25
HETATM   25  C4  UNL     1     -20.515 -22.543  -2.216  1.00  0.00     0.128 A
HETATM   26  C3  UNL     1     -21.408 -23.033  -3.139  1.00  0.00     0.045 A
HETATM   27  C15 UNL     1     -21.772 -24.297  -2.723  1.00  0.00     0.277 A
HETATM   28  N9  UNL     1     -21.123 -24.573  -1.581  1.00  0.00    -0.197 N
HETATM   29  O4  UNL     1     -22.568 -25.024  -3.329  1.00  0.00    -0.266 OA
HETATM   30  N8  UNL     1     -20.380 -23.531  -1.286  1.00  0.00    -0.283 N
ATOM     31  H8  UNL     1     -19.778 -23.469  -0.465  1.00  0.00     0.188 HD
BRANCH  26  32
HETATM   32  C2  UNL     1     -21.872 -22.294  -4.345  1.00  0.00     0.042 C
HETATM   33  C1  UNL     1     -23.161 -21.568  -4.127  1.00  0.00     0.010 C
ENDBRANCH  26  32
BRANCH  28  34
HETATM   34  C13 UNL     1     -21.234 -25.801  -0.828  1.00  0.00     0.198 A
HETATM   35  N10 UNL     1     -21.306 -27.047  -1.331  1.00  0.00    -0.220 N
HETATM   36  O3  UNL     1     -21.396 -27.880  -0.335  1.00  0.00    -0.153 OA
ATOM     37  H10 UNL     1     -21.293 -27.295  -2.321  1.00  0.00     0.198 HD
HETATM   38  N11 UNL     1     -21.389 -27.270   0.797  1.00  0.00    -0.222 N
HETATM   39  C14 UNL     1     -21.288 -25.948   0.540  1.00  0.00     0.169 A
ATOM     40  H11 UNL     1     -21.450 -27.705   1.718  1.00  0.00     0.198 HD
BRANCH  39  41
HETATM   41  N12 UNL     1     -21.249 -24.999   1.405  1.00  0.00    -0.381 N
ATOM     42 2H12 UNL     1     -20.426 -24.662   1.905  1.00  0.00     0.157 HD
ATOM     43 1H12 UNL     1     -22.042 -24.441   1.719  1.00  0.00     0.157 HD
ENDBRANCH  39  41
ENDBRANCH  28  34
ENDBRANCH   1  25
TORSDOF 8
ENDMDL