MODEL 3
REMARK VINA RESULT: -6.980717892      5.520     11.624
REMARK  6 active torsions:
REMARK  status: ('A' for Active; 'I' for Inactive)
REMARK    1  A    between atoms: C2_7  and  S1_8
REMARK    2  A    between atoms: S1_8  and  C3_9
REMARK    3  A    between atoms: C6_12  and  N3_13
REMARK    4  A    between atoms: C8_17  and  N4_18
REMARK    5  A    between atoms: N7_26  and  N8_28
REMARK    6  A    between atoms: C10_30  and  C11_31
ROOT
HETATM    1  N1  UNL     1     -13.974 -16.417  -2.793  1.00  0.00    -0.234 N
ATOM      2  H11 UNL     1     -13.605 -15.851  -3.558  1.00  0.00     0.174 HD
ATOM      3  H12 UNL     1     -13.553 -16.568  -1.877  1.00  0.00     0.174 HD
HETATM    4  C1  UNL     1     -15.097 -17.023  -2.970  1.00  0.00     0.692 C
HETATM    5  N2  UNL     1     -15.611 -17.811  -1.904  1.00  0.00    -0.169 N
ATOM      6  H2  UNL     1     -14.963 -17.934  -1.125  1.00  0.00     0.186 HD
HETATM    7  C2  UNL     1     -16.746 -18.399  -1.744  1.00  0.00     0.179 C
HETATM    8  N5  UNL     1     -17.841 -18.409  -2.649  1.00  0.00    -0.265 N
ATOM      9  H5  UNL     1     -18.697 -18.824  -2.280  1.00  0.00     0.189 HD
HETATM   10  N6  UNL     1     -17.936 -17.941  -3.966  1.00  0.00    -0.128 N
ATOM     11  H6  UNL     1     -18.846 -18.039  -4.414  1.00  0.00     0.205 HD
HETATM   12  C9  UNL     1     -16.900 -17.340  -4.759  1.00  0.00     0.726 C
HETATM   13  N7  UNL     1     -17.151 -17.307  -6.001  1.00  0.00    -0.131 N
ATOM     14  H7  UNL     1     -18.045 -17.705  -6.288  1.00  0.00     0.205 HD
HETATM   15  N12 UNL     1     -15.682 -16.813  -4.245  1.00  0.00    -0.020 N
ATOM     16  H12 UNL     1     -15.161 -16.205  -4.876  1.00  0.00     0.203 HD
ENDROOT
BRANCH   7  17
HETATM   17  S1  UNL     1     -16.988 -19.297  -0.237  1.00  0.00    -0.050 SA
BRANCH  17  18
HETATM   18  C3  UNL     1     -17.977 -20.760  -0.490  1.00  0.00     0.041 A
HETATM   19  C4  UNL     1     -17.532 -21.756  -1.332  1.00  0.00     0.024 A
HETATM   20  C5  UNL     1     -18.266 -22.898  -1.552  1.00  0.00     0.037 A
HETATM   21  C6  UNL     1     -19.502 -23.085  -0.921  1.00  0.00     0.105 A
HETATM   22  C7  UNL     1     -19.918 -22.079  -0.091  1.00  0.00     0.073 A
HETATM   23  C8  UNL     1     -19.210 -20.916   0.158  1.00  0.00     0.122 A
BRANCH  21  24
HETATM   24  N3  UNL     1     -20.241 -24.262  -1.158  1.00  0.00    -0.116 N
HETATM   25  O1  UNL     1     -21.466 -24.260  -1.022  1.00  0.00    -0.532 OA
HETATM   26  O2  UNL     1     -19.602 -25.401  -1.538  1.00  0.00    -0.532 OA
ENDBRANCH  21  24
BRANCH  23  27
HETATM   27  N4  UNL     1     -19.684 -19.906   1.025  1.00  0.00    -0.114 N
HETATM   28  O3  UNL     1     -20.111 -18.851   0.558  1.00  0.00    -0.532 OA
HETATM   29  O4  UNL     1     -19.663 -20.111   2.370  1.00  0.00    -0.532 OA
ENDBRANCH  23  27
ENDBRANCH  17  18
ENDBRANCH   7  17
BRANCH  13  30
HETATM   30  N8  UNL     1     -16.364 -16.801  -7.007  1.00  0.00    -0.295 N
HETATM   31  C10 UNL     1     -16.649 -15.772  -7.736  1.00  0.00     0.144 C
ATOM     32  H8  UNL     1     -15.480 -17.275  -7.194  1.00  0.00     0.186 HD
BRANCH  31  33
HETATM   33  C11 UNL     1     -15.688 -15.386  -8.756  1.00  0.00     0.132 A
HETATM   34  N9  UNL     1     -15.664 -14.192  -9.367  1.00  0.00    -0.278 N
HETATM   35  N10 UNL     1     -14.659 -14.157 -10.249  1.00  0.00    -0.019 NA
ATOM     36  H9  UNL     1     -16.313 -13.426  -9.186  1.00  0.00     0.184 HD
HETATM   37  N11 UNL     1     -14.018 -15.316 -10.227  1.00  0.00    -0.248 N
HETATM   38  C12 UNL     1     -14.642 -16.094  -9.306  1.00  0.00     0.287 A
ATOM     39  H11 UNL     1     -13.210 -15.574 -10.794  1.00  0.00     0.187 HD
HETATM   40  O5  UNL     1     -14.336 -17.288  -8.978  1.00  0.00    -0.264 OA
ENDBRANCH  31  33
ENDBRANCH  13  30
TORSDOF 6
ENDMDL