MODEL 2
REMARK VINA RESULT: -8.584887159      1.180      1.364
REMARK  6 active torsions:
REMARK  status: ('A' for Active; 'I' for Inactive)
REMARK    1  A    between atoms: C2_2  and  N1_3
REMARK       I    between atoms: N1_3  and  C3_5
REMARK       I    between atoms: C3_5  and  N2_7
REMARK       I    between atoms: N2_7  and  C4_9
REMARK    2  A    between atoms: C4_9  and  C5_11
REMARK    3  A    between atoms: C5_11  and  S1_12
REMARK    4  A    between atoms: S1_12  and  C6_13
REMARK    5  A    between atoms: C6_13  and  C7_14
REMARK    6  A    between atoms: C14_31  and  N8_32
ROOT
HETATM    1  C7  UNL     1     -20.460 -22.057  -0.571  1.00  0.00     0.121 A
HETATM    2  N3  UNL     1     -20.657 -20.809  -0.111  1.00  0.00    -0.177 N
ATOM      3  H3  UNL     1     -21.518 -20.440   0.291  1.00  0.00     0.185 HD
HETATM    4  C8  UNL     1     -19.503 -20.138  -0.282  1.00  0.00     0.703 A
HETATM    5  N4  UNL     1     -18.626 -20.974  -0.838  1.00  0.00    -0.103 N
HETATM    6  N5  UNL     1     -19.215 -22.167  -1.019  1.00  0.00    -0.270 N
ATOM      7  H5  UNL     1     -18.787 -23.000  -1.423  1.00  0.00     0.189 HD
HETATM    8  C9  UNL     1     -17.240 -20.857  -1.265  1.00  0.00     0.145 C
HETATM    9  C10 UNL     1     -17.254 -19.939  -2.493  1.00  0.00     0.051 C
HETATM   10  C11 UNL     1     -16.702 -22.183  -1.733  1.00  0.00     0.051 C
HETATM   11  C12 UNL     1     -16.352 -20.290  -0.222  1.00  0.00     0.253 C
HETATM   12  O3  UNL     1     -15.476 -21.104   0.215  1.00  0.00    -0.270 OA
HETATM   13  N6  UNL     1     -16.206 -19.029   0.453  1.00  0.00    -0.307 N
ATOM     14  H6  UNL     1     -15.278 -18.870   0.844  1.00  0.00     0.170 HD
HETATM   15  C13 UNL     1     -17.127 -17.955   0.677  1.00  0.00     0.170 A
HETATM   16  N7  UNL     1     -16.424 -16.883   1.087  1.00  0.00    -0.172 N
ATOM     17  H7  UNL     1     -15.411 -16.959   1.180  1.00  0.00     0.186 HD
HETATM   18  C14 UNL     1     -17.027 -15.710   1.377  1.00  0.00     0.692 A
HETATM   19  N9  UNL     1     -18.363 -15.626   1.249  1.00  0.00    -0.131 N
ATOM     20  H9  UNL     1     -18.826 -14.744   1.466  1.00  0.00     0.205 HD
HETATM   21  N10 UNL     1     -19.106 -16.673   0.843  1.00  0.00    -0.268 N
ATOM     22  H10 UNL     1     -20.118 -16.581   0.755  1.00  0.00     0.189 HD
HETATM   23  C15 UNL     1     -18.506 -17.835   0.556  1.00  0.00     0.181 A
HETATM   24  N11 UNL     1     -19.507 -18.763   0.157  1.00  0.00    -0.170 N
ATOM     25  H11 UNL     1     -20.445 -18.364   0.189  1.00  0.00     0.186 HD
ENDROOT
BRANCH   1  26
HETATM   26  C6  UNL     1     -21.439 -23.178  -0.602  1.00  0.00     0.152 C
BRANCH  26  27
HETATM   27  S1  UNL     1     -20.581 -24.714  -0.974  1.00  0.00    -0.152 SA
BRANCH  27  28
HETATM   28  C5  UNL     1     -20.465 -25.712   0.533  1.00  0.00     0.177 C
BRANCH  28  29
HETATM   29  C4  UNL     1     -21.725 -26.516   0.734  1.00  0.00     0.234 C
HETATM   30  N2  UNL     1     -22.793 -25.946   1.410  1.00  0.00    -0.279 N
HETATM   31  C3  UNL     1     -24.018 -26.553   1.679  1.00  0.00     0.322 C
ATOM     32  H2  UNL     1     -22.670 -24.990   1.743  1.00  0.00     0.173 HD
HETATM   33  N1  UNL     1     -24.368 -27.854   1.300  1.00  0.00    -0.343 N
HETATM   34  O1  UNL     1     -24.871 -25.833   2.331  1.00  0.00    -0.247 OA
ATOM     35  H1  UNL     1     -23.706 -28.435   0.786  1.00  0.00     0.164 HD
HETATM   36  O2  UNL     1     -21.718 -27.656   0.269  1.00  0.00    -0.272 OA
BRANCH  33  37
HETATM   37  C2  UNL     1     -25.705 -28.380   1.648  1.00  0.00     0.120 C
HETATM   38  C1  UNL     1     -26.389 -28.769   0.360  1.00  0.00     0.026 C
ENDBRANCH  33  37
ENDBRANCH  28  29
ENDBRANCH  27  28
ENDBRANCH  26  27
ENDBRANCH   1  26
BRANCH  18  39
HETATM   39  N8  UNL     1     -16.371 -14.675   1.770  1.00  0.00    -0.233 N
ATOM     40  H82 UNL     1     -16.864 -13.933   2.264  1.00  0.00     0.174 HD
ATOM     41  H81 UNL     1     -15.369 -14.569   1.607  1.00  0.00     0.174 HD
ENDBRANCH  18  39
TORSDOF 6
ENDMDL