MODEL 5
REMARK VINA RESULT: -4.833329449      3.882      5.116
REMARK  7 active torsions:
REMARK  status: ('A' for Active; 'I' for Inactive)
REMARK    1  A    between atoms: C1_2  and  S1_3
REMARK    2  A    between atoms: S1_3  and  C2_4
REMARK    3  A    between atoms: N1_7  and  C5_8
REMARK    4  A    between atoms: C7_10  and  O2_11
REMARK    5  A    between atoms: C8_13  and  O3_14
REMARK    6  A    between atoms: C9_16  and  O4_17
REMARK    7  A    between atoms: C10_19  and  O5_20
ROOT
HETATM    1  C5  UNL     1     -12.149  27.512   9.039  1.00  0.00     0.122 C
HETATM    2  C6  UNL     1     -11.194  28.540   8.427  1.00  0.00     0.062 C
HETATM    3  C7  UNL     1     -11.126  29.781   9.318  1.00  0.00     0.151 C
HETATM    4  C8  UNL     1     -11.343  29.324  10.721  1.00  0.00     0.178 C
HETATM    5  C9  UNL     1     -12.821  28.968  10.868  1.00  0.00     0.180 C
HETATM    6  C10 UNL     1     -13.306  28.255   9.600  1.00  0.00     0.172 C
ENDROOT
BRANCH   1   7
HETATM    7  N1  UNL     1     -12.503  26.553   8.014  1.00  0.00    -0.358 N
HETATM    8  C4  UNL     1     -12.339  25.226   8.085  1.00  0.00     0.092 A
HETATM    9  C3  UNL     1     -12.788  24.625   6.924  1.00  0.00     0.037 A
HETATM   10  C2  UNL     1     -13.244  25.647   6.119  1.00  0.00     0.024 A
HETATM   11  C11 UNL     1     -13.055  26.802   6.813  1.00  0.00     0.110 A
BRANCH  10  12
HETATM   12  S1  UNL     1     -13.948  25.436   4.467  1.00  0.00    -0.060 SA
BRANCH  12  13
HETATM   13  C1  UNL     1     -14.788  26.892   3.928  1.00  0.00     0.309 C
HETATM   14  O1  UNL     1     -14.177  27.875   3.550  1.00  0.00    -0.295 OA
ENDBRANCH  12  13
ENDBRANCH  10  12
ENDBRANCH   1   7
BRANCH   6  15
HETATM   15  O5  UNL     1     -14.386  27.490   9.950  1.00  0.00    -0.391 OA
ATOM     16  H5  UNL     1     -14.950  27.860  10.618  1.00  0.00     0.210 HD
ENDBRANCH   6  15
BRANCH   3  17
HETATM   17  O2  UNL     1      -9.934  30.466   9.139  1.00  0.00    -0.393 OA
ATOM     18  H2  UNL     1      -9.913  31.263   9.655  1.00  0.00     0.210 HD
ENDBRANCH   3  17
BRANCH   5  19
HETATM   19  O4  UNL     1     -12.998  28.165  11.992  1.00  0.00    -0.390 OA
ATOM     20  H4  UNL     1     -13.524  27.408  11.762  1.00  0.00     0.210 HD
ENDBRANCH   5  19
BRANCH   4  21
HETATM   21  O3  UNL     1     -11.020  30.265  11.682  1.00  0.00    -0.390 OA
ATOM     22  H3  UNL     1     -11.653  30.968  11.767  1.00  0.00     0.210 HD
ENDBRANCH   4  21
TORSDOF 7
ENDMDL