MODEL 1
REMARK VINA RESULT: -4.373772933      0.000      0.000
REMARK  6 active torsions:
REMARK  status: ('A' for Active; 'I' for Inactive)
REMARK    1  A    between atoms: N1_1  and  C1_5
REMARK    2  A    between atoms: C1_5  and  C2_6
REMARK    3  A    between atoms: C2_6  and  N2_7
REMARK    4  A    between atoms: C6_11  and  O1_12
REMARK    5  A    between atoms: C7_14  and  O2_15
REMARK    6  A    between atoms: C8_17  and  O3_18
ROOT
HETATM    1  N2  UNL     1     -11.429  22.643   8.307  1.00  0.00    -0.247 NA
HETATM    2  C3  UNL     1     -11.351  23.725   7.366  1.00  0.00     0.109 C
HETATM    3  C4  UNL     1     -11.931  25.008   7.897  1.00  0.00     0.019 C
HETATM    4  C5  UNL     1     -12.839  25.650   6.870  1.00  0.00     0.041 C
HETATM    5  C6  UNL     1     -12.596  27.124   6.706  1.00  0.00     0.149 C
HETATM    6  C7  UNL     1     -12.411  27.848   8.016  1.00  0.00     0.176 C
HETATM    7  C8  UNL     1     -11.352  27.229   8.874  1.00  0.00     0.164 C
HETATM    8  C9  UNL     1     -10.837  25.925   8.369  1.00  0.00     0.096 C
HETATM    9  S1  UNL     1     -10.033  25.056   9.773  1.00  0.00    -0.073 SA
HETATM   10  S2  UNL     1     -11.063  23.198   9.964  1.00  0.00    -0.008 SA
ENDROOT
BRANCH   1  11
HETATM   11  C2  UNL     1     -10.546  21.555   8.037  1.00  0.00     0.130 C
BRANCH  11  12
HETATM   12  C1  UNL     1     -10.416  20.581   9.185  1.00  0.00     0.245 C
BRANCH  12  13
HETATM   13  N1  UNL     1     -11.463  19.580   9.082  1.00  0.00    -0.078 N
ATOM     14  H13 UNL     1     -12.320  19.956   8.677  1.00  0.00     0.274 HD
ATOM     15  H12 UNL     1     -11.261  18.881   8.367  1.00  0.00     0.274 HD
ATOM     16  H11 UNL     1     -11.618  19.163   9.999  1.00  0.00     0.274 HD
ENDBRANCH  12  13
ENDBRANCH  11  12
ENDBRANCH   1  11
BRANCH   5  17
HETATM   17  O1  UNL     1     -13.752  27.651   6.090  1.00  0.00    -0.393 OA
ATOM     18  H1  UNL     1     -13.558  28.558   5.887  1.00  0.00     0.210 HD
ENDBRANCH   5  17
BRANCH   7  19
HETATM   19  O3  UNL     1     -10.242  28.103   8.958  1.00  0.00    -0.392 OA
ATOM     20  H3  UNL     1      -9.872  28.062   9.832  1.00  0.00     0.210 HD
ENDBRANCH   7  19
BRANCH   6  21
HETATM   21  O2  UNL     1     -13.652  27.900   8.689  1.00  0.00    -0.390 OA
ATOM     22  H2  UNL     1     -13.832  27.048   9.068  1.00  0.00     0.210 HD
ENDBRANCH   6  21
TORSDOF 6
ENDMDL