MODEL 3
REMARK VINA RESULT: -4.545053091      1.631      5.177
REMARK  7 active torsions:
REMARK  status: ('A' for Active; 'I' for Inactive)
REMARK    1  A    between atoms: C2_2  and  C3_3
REMARK    2  A    between atoms: C4_4  and  C5_5
REMARK    3  A    between atoms: C5_5  and  O1_6
REMARK    4  A    between atoms: C7_10  and  O3_11
REMARK    5  A    between atoms: C12_18  and  O5_19
REMARK    6  A    between atoms: C12_18  and  O6_21
REMARK    7  A    between atoms: O6_21  and  O7_22
ROOT
HETATM    1  C3  UNL     1     -12.288  29.442   9.426  1.00  0.00     0.086 C
HETATM    2  C4  UNL     1     -13.185  29.215   8.251  1.00  0.00     0.078 C
HETATM    3  C6  UNL     1     -13.329  27.749   7.933  1.00  0.00     0.270 C
HETATM    4  O2  UNL     1     -12.736  27.397   6.750  1.00  0.00    -0.327 OA
HETATM    5  C7  UNL     1     -12.506  26.065   6.574  1.00  0.00     0.289 C
HETATM    6  C8  UNL     1     -11.490  25.487   7.505  1.00  0.00    -0.033 C
HETATM    7  C9  UNL     1     -11.178  24.224   7.250  1.00  0.00     0.019 C
HETATM    8  C10 UNL     1     -10.781  26.111   8.664  1.00  0.00     0.076 C
HETATM    9  C11 UNL     1     -11.719  27.020   9.426  1.00  0.00     0.194 C
HETATM   10  O4  UNL     1     -13.019  26.929   9.007  1.00  0.00    -0.350 OA
HETATM   11  C12 UNL     1     -11.185  28.406   9.361  1.00  0.00     0.229 C
ENDROOT
BRANCH  11  12
HETATM   12  O5  UNL     1     -10.534  28.614   8.124  1.00  0.00    -0.361 OA
ATOM     13  H5  UNL     1      -9.893  27.917   8.049  1.00  0.00     0.213 HD
ENDBRANCH  11  12
BRANCH  11  14
HETATM   14  O6  UNL     1     -10.226  28.646  10.351  1.00  0.00    -0.200 OA
BRANCH  14  15
HETATM   15  O7  UNL     1     -10.584  28.184  11.514  1.00  0.00    -0.247 OA
ATOM     16  H7  UNL     1     -10.576  28.851  12.190  1.00  0.00     0.253 HD
ENDBRANCH  14  15
ENDBRANCH  11  14
BRANCH   1  17
HETATM   17  C2  UNL     1     -11.602  30.761   9.423  1.00  0.00    -0.026 C
HETATM   18  C1  UNL     1     -11.833  31.760  10.245  1.00  0.00     0.007 C
ENDBRANCH   1  17
BRANCH   2  19
HETATM   19  C5  UNL     1     -14.536  29.882   8.425  1.00  0.00     0.174 C
BRANCH  19  20
HETATM   20  O1  UNL     1     -14.892  30.598   7.287  1.00  0.00    -0.400 OA
ATOM     21  H1  UNL     1     -15.808  30.466   7.073  1.00  0.00     0.209 HD
ENDBRANCH  19  20
ENDBRANCH   2  19
BRANCH   5  22
HETATM   22  O3  UNL     1     -13.653  25.281   6.611  1.00  0.00    -0.367 OA
ATOM     23  H3  UNL     1     -13.484  24.345   6.625  1.00  0.00     0.213 HD
ENDBRANCH   5  22
TORSDOF 7
ENDMDL