MODEL 5
REMARK VINA RESULT: -4.890981106      1.600      2.093
REMARK  7 active torsions:
REMARK  status: ('A' for Active; 'I' for Inactive)
REMARK    1  A    between atoms: O1_1  and  C1_3
REMARK    2  A    between atoms: C1_3  and  C2_4
REMARK    3  A    between atoms: C3_6  and  O3_7
REMARK    4  A    between atoms: O3_7  and  C4_8
REMARK    5  A    between atoms: C8_13  and  O4_14
REMARK    6  A    between atoms: C9_16  and  O5_17
REMARK    7  A    between atoms: C10_19  and  O6_20
ROOT
HETATM    1  C2  UNL     1     -12.953  28.194   8.766  1.00  0.00     0.179 C
HETATM    2  O2  UNL     1     -13.255  27.040   8.130  1.00  0.00    -0.348 OA
HETATM    3  C3  UNL     1     -12.415  26.700   7.079  1.00  0.00     0.298 C
HETATM    4  C8  UNL     1     -11.033  26.493   7.719  1.00  0.00     0.205 C
HETATM    5  C9  UNL     1     -10.569  27.924   8.009  1.00  0.00     0.183 C
HETATM    6  C10 UNL     1     -11.529  28.507   8.989  1.00  0.00     0.180 C
ENDROOT
BRANCH   3   7
HETATM    7  O3  UNL     1     -12.775  25.508   6.485  1.00  0.00    -0.310 OA
BRANCH   7   8
HETATM    8  C4  UNL     1     -13.727  25.556   5.443  1.00  0.00     0.113 A
HETATM    9  C5  UNL     1     -14.097  26.652   4.704  1.00  0.00     0.045 A
HETATM   10  C6  UNL     1     -15.028  26.463   3.760  1.00  0.00     0.010 A
HETATM   11  C7  UNL     1     -15.533  25.202   3.608  1.00  0.00     0.052 A
HETATM   12  S1  UNL     1     -14.692  24.311   4.790  1.00  0.00    -0.077 SA
ENDBRANCH   7   8
ENDBRANCH   3   7
BRANCH   4  13
HETATM   13  O4  UNL     1     -11.251  25.894   8.945  1.00  0.00    -0.388 OA
ATOM     14  H4  UNL     1     -10.404  25.828   9.370  1.00  0.00     0.210 HD
ENDBRANCH   4  13
BRANCH   1  15
HETATM   15  C1  UNL     1     -13.637  28.164  10.141  1.00  0.00     0.198 C
BRANCH  15  16
HETATM   16  O1  UNL     1     -14.397  27.022  10.308  1.00  0.00    -0.398 OA
ATOM     17  H1  UNL     1     -14.329  26.443   9.557  1.00  0.00     0.209 HD
ENDBRANCH  15  16
ENDBRANCH   1  15
BRANCH   5  18
HETATM   18  O5  UNL     1      -9.279  27.920   8.540  1.00  0.00    -0.390 OA
ATOM     19  H5  UNL     1      -8.665  27.547   7.919  1.00  0.00     0.210 HD
ENDBRANCH   5  18
BRANCH   6  20
HETATM   20  O6  UNL     1     -11.288  29.898   9.031  1.00  0.00    -0.390 OA
ATOM     21  H6  UNL     1     -10.912  30.223   8.221  1.00  0.00     0.210 HD
ENDBRANCH   6  20
TORSDOF 7
ENDMDL