MODEL 2
REMARK VINA RESULT: -4.313841942      1.115      1.775
REMARK  7 active torsions:
REMARK  status: ('A' for Active; 'I' for Inactive)
REMARK    1  A    between atoms: C3_3  and  C4_4
REMARK    2  A    between atoms: C4_4  and  S1_5
REMARK    3  A    between atoms: S1_5  and  S2_6
REMARK    4  A    between atoms: C6_9  and  O2_10
REMARK    5  A    between atoms: C7_12  and  O3_13
REMARK    6  A    between atoms: C8_15  and  O4_16
REMARK    7  A    between atoms: C9_18  and  O5_19
ROOT
HETATM    1  C4  UNL     1      -9.045  20.316   9.010  1.00  0.00     0.168 C
HETATM    2  O1  UNL     1      -8.454  19.032   9.113  1.00  0.00    -0.330 OA
HETATM    3  C6  UNL     1      -9.392  18.084   9.514  1.00  0.00     0.290 C
HETATM    4  C7  UNL     1     -10.363  17.748   8.407  1.00  0.00     0.204 C
HETATM    5  C8  UNL     1     -10.283  18.906   7.400  1.00  0.00     0.184 C
HETATM    6  C9  UNL     1     -10.367  20.156   8.291  1.00  0.00     0.199 C
ENDROOT
BRANCH   1   7
HETATM    7  C3  UNL     1      -8.090  21.141   8.226  1.00  0.00     0.021 C
HETATM    8  C2  UNL     1      -6.967  20.667   7.701  1.00  0.00    -0.031 C
HETATM    9  C1  UNL     1      -6.043  21.498   6.932  1.00  0.00     0.036 C
ENDBRANCH   1   7
BRANCH   1  10
HETATM   10  S1  UNL     1      -9.218  20.908  10.705  1.00  0.00    -0.052 SA
BRANCH  10  11
HETATM   11  S2  UNL     1      -7.379  20.555  11.708  1.00  0.00    -0.099 SA
HETATM   12  C5  UNL     1      -7.559  19.048  12.647  1.00  0.00     0.103 C
ENDBRANCH  10  11
ENDBRANCH   1  10
BRANCH   6  13
HETATM   13  O5  UNL     1     -11.421  19.896   9.168  1.00  0.00    -0.389 OA
ATOM     14  H5  UNL     1     -11.848  20.690   9.467  1.00  0.00     0.210 HD
ENDBRANCH   6  13
BRANCH   3  15
HETATM   15  O2  UNL     1      -8.673  16.910   9.779  1.00  0.00    -0.368 OA
ATOM     16  H2  UNL     1      -9.317  16.249  10.002  1.00  0.00     0.212 HD
ENDBRANCH   3  15
BRANCH   5  17
HETATM   17  O4  UNL     1     -11.390  18.862   6.581  1.00  0.00    -0.390 OA
ATOM     18  H4  UNL     1     -11.994  19.547   6.844  1.00  0.00     0.210 HD
ENDBRANCH   5  17
BRANCH   4  19
HETATM   19  O3  UNL     1     -10.085  16.534   7.798  1.00  0.00    -0.388 OA
ATOM     20  H3  UNL     1     -10.855  16.129   7.416  1.00  0.00     0.210 HD
ENDBRANCH   4  19
TORSDOF 7
ENDMDL