MODEL 4
REMARK VINA RESULT: -4.049582661      2.430      2.929
REMARK  7 active torsions:
REMARK  status: ('A' for Active; 'I' for Inactive)
REMARK    1  A    between atoms: O1_2  and  C2_3
REMARK    2  A    between atoms: C3_4  and  O2_5
REMARK    3  A    between atoms: C7_12  and  O4_13
REMARK    4  A    between atoms: C7_12  and  O5_15
REMARK    5  A    between atoms: O5_15  and  C8_16
REMARK    6  A    between atoms: C8_16  and  C10_18
REMARK    7  A    between atoms: C10_18  and  N1_19
ROOT
HETATM    1  C2  UNL     1     -12.745  26.295   9.843  1.00  0.00     0.217 C
HETATM    2  C3  UNL     1     -12.752  24.893  10.373  1.00  0.00     0.181 C
HETATM    3  C4  UNL     1     -13.639  24.623  11.520  1.00  0.00     0.150 C
HETATM    4  C5  UNL     1     -12.985  23.637  12.502  1.00  0.00     0.042 C
HETATM    5  O3  UNL     1     -14.077  25.682  12.251  1.00  0.00    -0.362 OA
HETATM    6  C6  UNL     1     -13.392  26.851  12.151  1.00  0.00     0.259 C
HETATM    7  S1  UNL     1     -11.717  26.816  12.791  1.00  0.00    -0.057 SA
HETATM    8  C7  UNL     1     -13.467  27.286  10.702  1.00  0.00     0.229 C
ENDROOT
BRANCH   8   9
HETATM    9  O4  UNL     1     -14.812  27.407  10.381  1.00  0.00    -0.361 OA
ATOM     10  H4  UNL     1     -15.282  26.583  10.431  1.00  0.00     0.213 HD
ENDBRANCH   8   9
BRANCH   8  11
HETATM   11  O5  UNL     1     -12.816  28.567  10.679  1.00  0.00    -0.332 OA
BRANCH  11  12
HETATM   12  C8  UNL     1     -12.612  29.263   9.532  1.00  0.00     0.209 C
HETATM   13  C9  UNL     1     -11.250  29.518   9.013  1.00  0.00     0.054 C
BRANCH  12  14
HETATM   14  C10 UNL     1     -13.599  29.756   8.810  1.00  0.00    -0.045 C
BRANCH  14  15
HETATM   15  N1  UNL     1     -14.720  30.074   8.264  1.00  0.00    -0.367 N
ATOM     16  H12 UNL     1     -14.318  30.940   7.906  1.00  0.00     0.165 HD
ATOM     17  H11 UNL     1     -15.676  30.136   7.915  1.00  0.00     0.165 HD
ENDBRANCH  14  15
ENDBRANCH  12  14
ENDBRANCH  11  12
ENDBRANCH   8  11
BRANCH   1  18
HETATM   18  O1  UNL     1     -13.145  26.258   8.542  1.00  0.00    -0.382 OA
HETATM   19  C1  UNL     1     -12.177  26.128   7.589  1.00  0.00     0.202 C
ENDBRANCH   1  18
BRANCH   2  20
HETATM   20  O2  UNL     1     -11.449  24.459  10.731  1.00  0.00    -0.390 OA
ATOM     21  H2  UNL     1     -11.294  23.558  10.472  1.00  0.00     0.210 HD
ENDBRANCH   2  20
TORSDOF 7
ENDMDL