MODEL 4
REMARK VINA RESULT: -4.665091737      3.615      5.935
REMARK  7 active torsions:
REMARK  status: ('A' for Active; 'I' for Inactive)
REMARK    1  A    between atoms: O1_1  and  C1_3
REMARK    2  A    between atoms: C1_3  and  C2_4
REMARK    3  A    between atoms: C3_6  and  O3_7
REMARK    4  A    between atoms: O3_7  and  C4_8
REMARK    5  A    between atoms: C8_13  and  O4_14
REMARK    6  A    between atoms: C9_16  and  O5_17
REMARK    7  A    between atoms: C10_19  and  O6_20
ROOT
HETATM    1  C2  UNL     1     -13.613  28.922   9.113  1.00  0.00     0.179 C
HETATM    2  O2  UNL     1     -13.592  27.958   8.173  1.00  0.00    -0.348 OA
HETATM    3  C3  UNL     1     -12.445  27.728   7.480  1.00  0.00     0.298 C
HETATM    4  C8  UNL     1     -11.185  27.771   8.304  1.00  0.00     0.205 C
HETATM    5  C9  UNL     1     -11.101  29.020   9.114  1.00  0.00     0.183 C
HETATM    6  C10 UNL     1     -12.376  29.160   9.900  1.00  0.00     0.180 C
ENDROOT
BRANCH   3   7
HETATM    7  O3  UNL     1     -12.520  26.450   6.925  1.00  0.00    -0.317 OA
BRANCH   7   8
HETATM    8  C4  UNL     1     -13.403  26.058   5.882  1.00  0.00     0.079 A
HETATM    9  C5  UNL     1     -13.937  26.884   4.959  1.00  0.00     0.044 A
HETATM   10  C6  UNL     1     -14.773  26.337   4.020  1.00  0.00     0.052 A
HETATM   11  S1  UNL     1     -14.795  24.692   4.441  1.00  0.00    -0.111 SA
HETATM   12  C7  UNL     1     -13.757  24.727   5.784  1.00  0.00     0.086 A
ENDBRANCH   7   8
ENDBRANCH   3   7
BRANCH   4  13
HETATM   13  O4  UNL     1     -10.108  27.736   7.419  1.00  0.00    -0.388 OA
ATOM     14  H4  UNL     1      -9.398  28.227   7.817  1.00  0.00     0.210 HD
ENDBRANCH   4  13
BRANCH   1  15
HETATM   15  C1  UNL     1     -14.000  30.238   8.445  1.00  0.00     0.198 C
BRANCH  15  16
HETATM   16  O1  UNL     1     -15.334  30.100   8.021  1.00  0.00    -0.398 OA
ATOM     17  H1  UNL     1     -15.858  30.666   8.575  1.00  0.00     0.209 HD
ENDBRANCH  15  16
ENDBRANCH   1  15
BRANCH   5  18
HETATM   18  O5  UNL     1     -10.069  28.834  10.061  1.00  0.00    -0.390 OA
ATOM     19  H5  UNL     1      -9.655  28.001   9.865  1.00  0.00     0.210 HD
ENDBRANCH   5  18
BRANCH   6  20
HETATM   20  O6  UNL     1     -12.370  30.438  10.462  1.00  0.00    -0.390 OA
ATOM     21  H6  UNL     1     -11.514  30.658  10.809  1.00  0.00     0.210 HD
ENDBRANCH   6  20
TORSDOF 7
ENDMDL