MODEL 2
REMARK VINA RESULT: -4.378029732      2.817      3.704
REMARK  5 active torsions:
REMARK  status: ('A' for Active; 'I' for Inactive)
REMARK    1  A    between atoms: O1_1  and  C1_3
REMARK    2  A    between atoms: C1_3  and  C2_4
REMARK    3  A    between atoms: C4_7  and  N1_8
REMARK    4  A    between atoms: C9_16  and  O4_17
REMARK    5  A    between atoms: C9_16  and  C10_19
ROOT
HETATM    1  C2  UNL     1     -12.534  28.078  10.302  1.00  0.00     0.183 C
HETATM    2  O2  UNL     1     -13.160  29.203  10.904  1.00  0.00    -0.368 OA
HETATM    3  C3  UNL     1     -12.490  30.303  10.428  1.00  0.00     0.203 C
HETATM    4  C4  UNL     1     -11.064  30.387  10.876  1.00  0.00     0.260 C
HETATM    5  O3  UNL     1     -10.686  29.938   9.603  1.00  0.00    -0.352 OA
HETATM    6  C8  UNL     1     -11.963  29.959   9.063  1.00  0.00     0.195 C
HETATM    7  C9  UNL     1     -12.518  28.549   8.870  1.00  0.00     0.123 C
ENDROOT
BRANCH   4   8
HETATM    8  N1  UNL     1     -10.570  31.698  11.180  1.00  0.00    -0.322 N
HETATM    9  C5  UNL     1      -9.601  32.331  10.483  1.00  0.00     0.111 A
HETATM   10  C6  UNL     1      -9.420  33.551  11.088  1.00  0.00     0.106 A
HETATM   11  N2  UNL     1     -10.264  33.632  12.117  1.00  0.00    -0.361 N
HETATM   12  C7  UNL     1     -10.971  32.482  12.166  1.00  0.00     0.184 A
ATOM     13  H2  UNL     1     -10.359  34.422  12.754  1.00  0.00     0.166 HD
ENDBRANCH   4   8
BRANCH   1  14
HETATM   14  C1  UNL     1     -13.354  26.843  10.543  1.00  0.00     0.199 C
BRANCH  14  15
HETATM   15  O1  UNL     1     -14.706  27.138  10.605  1.00  0.00    -0.398 OA
ATOM     16  H1  UNL     1     -14.921  27.603  11.406  1.00  0.00     0.209 HD
ENDBRANCH  14  15
ENDBRANCH   1  14
BRANCH   7  17
HETATM   17  O4  UNL     1     -13.810  28.672   8.362  1.00  0.00    -0.384 OA
ATOM     18  H4  UNL     1     -14.439  28.208   8.902  1.00  0.00     0.210 HD
ENDBRANCH   7  17
BRANCH   7  19
HETATM   19  C10 UNL     1     -11.682  27.745   7.940  1.00  0.00     0.129 C
HETATM   20  S1  UNL     1     -12.805  27.061   6.673  1.00  0.00    -0.094 SA
ENDBRANCH   7  19
TORSDOF 5
ENDMDL