MODEL 2
REMARK VINA RESULT: -4.730845063      0.453      1.041
REMARK  7 active torsions:
REMARK  status: ('A' for Active; 'I' for Inactive)
REMARK    1  A    between atoms: O1_1  and  C1_3
REMARK    2  A    between atoms: C1_3  and  C2_4
REMARK    3  A    between atoms: C3_5  and  C4_6
REMARK    4  A    between atoms: C4_6  and  O2_7
REMARK    5  A    between atoms: O2_7  and  C5_8
REMARK    6  A    between atoms: C10_15  and  O4_16
REMARK    7  A    between atoms: C11_18  and  O5_19
ROOT
HETATM    1  C2  UNL     1     -11.739  28.718   8.691  1.00  0.00     0.072 C
HETATM    2  C3  UNL     1     -12.864  27.977   8.114  1.00  0.00     0.154 C
HETATM    3  O3  UNL     1     -13.585  27.187   8.980  1.00  0.00    -0.381 OA
HETATM    4  C9  UNL     1     -12.911  26.688  10.053  1.00  0.00     0.202 C
HETATM    5  C10 UNL     1     -12.357  27.768  10.928  1.00  0.00     0.171 C
HETATM    6  C11 UNL     1     -11.993  29.025  10.175  1.00  0.00     0.157 C
ENDROOT
BRANCH   2   7
HETATM    7  C4  UNL     1     -12.530  27.145   6.903  1.00  0.00     0.208 C
BRANCH   7   8
HETATM    8  O2  UNL     1     -13.382  27.436   5.822  1.00  0.00    -0.348 OA
BRANCH   8   9
HETATM    9  C5  UNL     1     -14.088  26.411   5.128  1.00  0.00     0.075 A
HETATM   10  C6  UNL     1     -13.969  25.101   5.385  1.00  0.00     0.044 A
HETATM   11  C7  UNL     1     -14.706  24.228   4.641  1.00  0.00     0.052 A
HETATM   12  S1  UNL     1     -15.562  25.253   3.585  1.00  0.00    -0.111 SA
HETATM   13  C8  UNL     1     -14.960  26.759   4.117  1.00  0.00     0.086 A
ENDBRANCH   8   9
ENDBRANCH   7   8
ENDBRANCH   2   7
BRANCH   1  14
HETATM   14  C1  UNL     1     -10.386  28.110   8.607  1.00  0.00     0.174 C
BRANCH  14  15
HETATM   15  O1  UNL     1      -9.472  28.778   7.835  1.00  0.00    -0.400 OA
ATOM     16  H1  UNL     1      -9.417  28.507   6.926  1.00  0.00     0.209 HD
ENDBRANCH  14  15
ENDBRANCH   1  14
BRANCH   6  17
HETATM   17  O5  UNL     1     -12.926  30.038  10.325  1.00  0.00    -0.392 OA
ATOM     18  H5  UNL     1     -12.515  30.894  10.287  1.00  0.00     0.210 HD
ENDBRANCH   6  17
BRANCH   5  19
HETATM   19  O4  UNL     1     -13.321  28.128  11.871  1.00  0.00    -0.391 OA
ATOM     20  H4  UNL     1     -13.111  28.989  12.214  1.00  0.00     0.210 HD
ENDBRANCH   5  19
TORSDOF 7
ENDMDL