MODEL 3
REMARK VINA RESULT: -7.839806541      4.446      6.717
REMARK  3 active torsions:
REMARK  status: ('A' for Active; 'I' for Inactive)
REMARK       I    between atoms: N1_2  and  C2_4
REMARK    1  A    between atoms: C2_4  and  C3_6
REMARK    2  A    between atoms: C5_8  and  C6_9
REMARK    3  A    between atoms: C6_9  and  C7_10
ROOT
HETATM    1  C6  UNL     1     -10.402 -14.067   8.630  1.00  0.00     0.099 C
ENDROOT
BRANCH   1   2
HETATM    2  C5  UNL     1      -9.093 -14.483   9.207  1.00  0.00    -0.036 A
HETATM    3  C4  UNL     1      -8.205 -13.485   9.529  1.00  0.00     0.028 A
HETATM    4  C3  UNL     1      -6.931 -13.827  10.060  1.00  0.00     0.054 A
HETATM    5  C15 UNL     1      -6.593 -15.133  10.246  1.00  0.00     0.021 A
HETATM    6  N4  UNL     1      -7.505 -16.101   9.915  1.00  0.00    -0.368 N
HETATM    7  C16 UNL     1      -5.260 -15.580  10.742  1.00  0.00     0.069 C
HETATM    8  C14 UNL     1      -8.709 -15.782   9.414  1.00  0.00     0.095 A
ATOM      9  H4  UNL     1      -7.264 -17.083  10.050  1.00  0.00     0.165 HD
BRANCH   4  10
HETATM   10  C2  UNL     1      -6.086 -12.740  10.433  1.00  0.00     0.253 C
HETATM   11  N1  UNL     1      -6.020 -12.117  11.662  1.00  0.00    -0.361 N
HETATM   12  C1  UNL     1      -5.092 -11.000  11.936  1.00  0.00     0.149 C
ATOM     13  H1  UNL     1      -6.635 -12.440  12.410  1.00  0.00     0.162 HD
HETATM   14  O1  UNL     1      -5.301 -12.289   9.519  1.00  0.00    -0.268 OA
ENDBRANCH   4  10
ENDBRANCH   1   2
BRANCH   1  15
HETATM   15  C7  UNL     1     -10.367 -13.610   7.234  1.00  0.00     0.042 A
HETATM   16  N2  UNL     1     -10.492 -12.310   6.858  1.00  0.00    -0.303 N
HETATM   17  N3  UNL     1     -10.376 -12.164   5.561  1.00  0.00    -0.298 N
ATOM     18  H2  UNL     1     -10.655 -11.541   7.507  1.00  0.00     0.186 HD
HETATM   19  C8  UNL     1     -10.170 -13.394   5.050  1.00  0.00     0.077 A
ATOM     20  H3  UNL     1     -10.431 -11.290   5.039  1.00  0.00     0.187 HD
HETATM   21  C9  UNL     1      -9.997 -13.855   3.759  1.00  0.00     0.043 A
HETATM   22  C13 UNL     1     -10.162 -14.319   6.079  1.00  0.00     0.021 A
HETATM   23 BR1  UNL     1     -10.000 -12.587   2.314  1.00  0.00    -0.049 Br
HETATM   24  C10 UNL     1      -9.823 -15.193   3.507  1.00  0.00     0.063 A
HETATM   25  C11 UNL     1      -9.820 -16.104   4.554  1.00  0.00     0.118 A
HETATM   26  F1  UNL     1      -9.651 -17.435   4.318  1.00  0.00    -0.206 F
HETATM   27  C12 UNL     1      -9.988 -15.670   5.834  1.00  0.00     0.058 A
ENDBRANCH   1  15
TORSDOF 3
ENDMDL