MODEL 1
REMARK VINA RESULT: -9.461863739      0.000      0.000
REMARK  5 active torsions:
REMARK  status: ('A' for Active; 'I' for Inactive)
REMARK       I    between atoms: C2_2  and  N1_4
REMARK    1  A    between atoms: N1_4  and  C3_6
REMARK    2  A    between atoms: C5_8  and  C6_9
REMARK    3  A    between atoms: C8_13  and  N3_14
REMARK    4  A    between atoms: N3_14  and  C9_16
REMARK    5  A    between atoms: C9_16  and  C11_18
ROOT
HETATM    1  C6  UNL     1     -13.145 -15.307   7.090  1.00  0.00     0.027 A
HETATM    2  C7  UNL     1     -13.112 -14.491   5.955  1.00  0.00     0.105 A
HETATM    3  N2  UNL     1     -12.014 -14.469   5.187  1.00  0.00    -0.351 N
ATOM      4  H2  UNL     1     -12.017 -13.864   4.365  1.00  0.00     0.166 HD
HETATM    5  C8  UNL     1     -10.915 -15.190   5.430  1.00  0.00     0.112 A
HETATM    6  C14 UNL     1     -10.942 -15.998   6.550  1.00  0.00     0.022 A
HETATM    7  C15 UNL     1      -9.849 -16.792   6.896  1.00  0.00     0.061 A
HETATM    8  C16 UNL     1      -9.822 -17.602   7.982  1.00  0.00     0.155 A
HETATM    9  F1  UNL     1      -8.745 -18.358   8.290  1.00  0.00    -0.203 F
HETATM   10  C17 UNL     1     -10.916 -17.663   8.803  1.00  0.00     0.155 A
HETATM   11  F2  UNL     1     -10.927 -18.473   9.914  1.00  0.00    -0.203 F
HETATM   12  C18 UNL     1     -12.022 -16.892   8.496  1.00  0.00     0.059 A
HETATM   13  C19 UNL     1     -12.044 -16.072   7.393  1.00  0.00    -0.005 A
ENDROOT
BRANCH   1  14
HETATM   14  C5  UNL     1     -14.369 -15.296   7.900  1.00  0.00     0.115 A
HETATM   15  C4  UNL     1     -15.478 -14.477   7.657  1.00  0.00     0.090 A
HETATM   16  C3  UNL     1     -16.428 -14.735   8.607  1.00  0.00     0.131 A
HETATM   17  N4  UNL     1     -15.887 -15.686   9.391  1.00  0.00    -0.244 N
HETATM   18  O2  UNL     1     -14.719 -15.971   8.951  1.00  0.00    -0.235 OA
ATOM     19  H4  UNL     1     -16.335 -16.110  10.204  1.00  0.00     0.196 HD
BRANCH  16  20
HETATM   20  N1  UNL     1     -17.602 -14.215   8.767  1.00  0.00    -0.312 N
HETATM   21  C2  UNL     1     -18.725 -14.953   8.334  1.00  0.00     0.219 C
HETATM   22  C1  UNL     1     -19.497 -14.504   7.158  1.00  0.00     0.117 C
HETATM   23  O1  UNL     1     -19.058 -15.988   8.954  1.00  0.00    -0.274 OA
ATOM     24  H1  UNL     1     -17.713 -13.296   9.196  1.00  0.00     0.170 HD
ENDBRANCH  16  20
ENDBRANCH   1  14
BRANCH   5  25
HETATM   25  N3  UNL     1      -9.898 -15.181   4.732  1.00  0.00    -0.371 N
ATOM     26  H3  UNL     1      -9.602 -16.137   4.534  1.00  0.00     0.161 HD
BRANCH  25  27
HETATM   27  C9  UNL     1      -9.031 -14.280   4.133  1.00  0.00     0.082 C
HETATM   28  C10 UNL     1      -8.523 -14.572   2.755  1.00  0.00     0.032 C
BRANCH  27  29
HETATM   29  C11 UNL     1      -9.487 -12.822   4.146  1.00  0.00    -0.000 C
HETATM   30  C12 UNL     1      -8.624 -11.938   4.987  1.00  0.00     0.011 C
HETATM   31  C13 UNL     1      -9.717 -12.297   2.764  1.00  0.00     0.011 C
ENDBRANCH  27  29
ENDBRANCH  25  27
ENDBRANCH   5  25
TORSDOF 5
ENDMDL