MODEL 2
REMARK VINA RESULT: -7.843217299      4.075      6.564
REMARK  3 active torsions:
REMARK  status: ('A' for Active; 'I' for Inactive)
REMARK    1  A    between atoms: N1_3  and  C3_5
REMARK    2  A    between atoms: C6_12  and  C7_13
REMARK    3  A    between atoms: C8_14  and  O1_15
ROOT
HETATM    1  C3  UNL     1     -11.963 -18.586  10.220  1.00  0.00     0.124 A
HETATM    2  N2  UNL     1     -10.612 -18.841  10.367  1.00  0.00    -0.349 N
ATOM      3  H2  UNL     1     -10.293 -19.524  11.055  1.00  0.00     0.167 HD
HETATM    4  C4  UNL     1      -9.736 -18.203   9.620  1.00  0.00     0.121 A
HETATM    5  C5  UNL     1     -10.058 -17.261   8.659  1.00  0.00     0.077 A
HETATM    6  N3  UNL     1      -9.389 -16.502   7.803  1.00  0.00    -0.339 N
ATOM      7  H3  UNL     1      -8.374 -16.501   7.711  1.00  0.00     0.167 HD
HETATM    8  C6  UNL     1     -10.228 -15.719   7.057  1.00  0.00     0.120 A
HETATM    9  N4  UNL     1     -11.439 -16.034   7.493  1.00  0.00    -0.339 N
ATOM     10  H4  UNL     1     -12.304 -15.625   7.139  1.00  0.00     0.167 HD
HETATM   11  C15 UNL     1     -11.380 -16.978   8.480  1.00  0.00     0.083 A
HETATM   12  C16 UNL     1     -12.307 -17.648   9.265  1.00  0.00     0.084 A
HETATM   13 BR1  UNL     1     -14.140 -17.162   8.919  1.00  0.00    -0.044 Br
ENDROOT
BRANCH   8  14
HETATM   14  C7  UNL     1      -9.726 -14.773   6.072  1.00  0.00     0.050 A
HETATM   15  C8  UNL     1      -9.443 -13.458   6.503  1.00  0.00     0.082 A
HETATM   16  C10 UNL     1      -8.984 -12.528   5.623  1.00  0.00     0.041 A
HETATM   17  C11 UNL     1      -8.787 -12.836   4.307  1.00  0.00     0.045 A
HETATM   18  C12 UNL     1      -9.048 -14.098   3.842  1.00  0.00     0.123 A
HETATM   19  F1  UNL     1      -8.850 -14.400   2.540  1.00  0.00    -0.206 F
HETATM   20  C13 UNL     1      -9.519 -15.048   4.755  1.00  0.00    -0.007 A
HETATM   21  C14 UNL     1      -9.817 -16.400   4.181  1.00  0.00     0.052 C
BRANCH  15  22
HETATM   22  O1  UNL     1      -9.649 -13.149   7.863  1.00  0.00    -0.355 OA
HETATM   23  C9  UNL     1      -8.491 -12.844   8.612  1.00  0.00     0.210 C
ENDBRANCH  15  22
ENDBRANCH   8  14
BRANCH   1  24
HETATM   24  N1  UNL     1     -12.746 -19.206  10.940  1.00  0.00    -0.355 N
HETATM   25  C2  UNL     1     -13.175 -20.488  11.136  1.00  0.00     0.058 C
HETATM   26  C1  UNL     1     -14.319 -20.829  10.181  1.00  0.00     0.054 C
ATOM     27  H1  UNL     1     -13.217 -18.570  11.584  1.00  0.00     0.166 HD
ENDBRANCH   1  24
TORSDOF 3
ENDMDL