MODEL 3
REMARK VINA RESULT: -8.660731895      4.602      5.752
REMARK  5 active torsions:
REMARK  status: ('A' for Active; 'I' for Inactive)
REMARK    1  A    between atoms: C2_2  and  N1_3
REMARK    2  A    between atoms: C2_2  and  C17_28
REMARK       I    between atoms: N1_3  and  C3_5
REMARK    3  A    between atoms: C3_5  and  C4_7
REMARK    4  A    between atoms: C4_7  and  N2_8
REMARK    5  A    between atoms: C7_15  and  C8_16
ROOT
HETATM    1  N2  UNL     1     -11.325 -18.585   9.935  1.00  0.00    -0.248 N
HETATM    2  N3  UNL     1     -12.600 -18.333   9.658  1.00  0.00    -0.304 N
ATOM      3  H3  UNL     1     -13.311 -18.730  10.273  1.00  0.00     0.186 HD
HETATM    4  C5  UNL     1     -13.009 -17.588   8.621  1.00  0.00     0.138 A
HETATM    5  C6  UNL     1     -12.080 -17.028   7.760  1.00  0.00     0.065 A
HETATM    6  N4  UNL     1     -12.171 -16.248   6.655  1.00  0.00    -0.354 N
ATOM      7  H4  UNL     1     -13.043 -15.918   6.241  1.00  0.00     0.166 HD
HETATM    8  C7  UNL     1     -10.935 -15.971   6.185  1.00  0.00     0.044 A
HETATM    9  C14 UNL     1     -10.064 -16.606   7.034  1.00  0.00     0.050 A
HETATM   10  C15 UNL     1     -10.744 -17.282   8.038  1.00  0.00     0.064 A
HETATM   11  C16 UNL     1     -10.400 -18.055   9.119  1.00  0.00     0.275 A
HETATM   12  O2  UNL     1      -9.160 -18.268   9.347  1.00  0.00    -0.266 OA
ENDROOT
BRANCH   1  13
HETATM   13  C4  UNL     1     -10.922 -19.401  11.044  1.00  0.00     0.255 C
BRANCH  13  14
HETATM   14  C3  UNL     1     -12.063 -19.802  11.862  1.00  0.00     0.237 C
HETATM   15  N1  UNL     1     -12.703 -21.072  11.768  1.00  0.00    -0.355 N
ATOM     16  H1  UNL     1     -12.320 -21.733  11.092  1.00  0.00     0.162 HD
HETATM   17  O1  UNL     1     -12.557 -19.005  12.723  1.00  0.00    -0.272 OA
BRANCH  15  18
HETATM   18  C2  UNL     1     -13.826 -21.506  12.530  1.00  0.00     0.087 C
HETATM   19  C1  UNL     1     -13.724 -22.933  13.039  1.00  0.00     0.033 C
BRANCH  18  20
HETATM   20  C17 UNL     1     -15.139 -21.282  11.792  1.00  0.00    -0.031 C
HETATM   21  C18 UNL     1     -14.967 -21.094  10.314  1.00  0.00     0.016 C
HETATM   22  C19 UNL     1     -15.997 -22.501  12.007  1.00  0.00     0.016 C
HETATM   23  C20 UNL     1     -15.820 -20.103  12.447  1.00  0.00     0.016 C
ENDBRANCH  18  20
ENDBRANCH  15  18
ENDBRANCH  13  14
ENDBRANCH   1  13
BRANCH   8  24
HETATM   24  C8  UNL     1     -10.603 -15.154   5.015  1.00  0.00    -0.004 A
HETATM   25  C9  UNL     1      -9.474 -15.346   4.253  1.00  0.00     0.056 A
HETATM   26  C10 UNL     1      -9.166 -14.572   3.162  1.00  0.00     0.120 A
HETATM   27  F1  UNL     1      -8.057 -14.752   2.411  1.00  0.00    -0.206 F
HETATM   28  C11 UNL     1     -10.020 -13.545   2.797  1.00  0.00     0.084 A
HETATM   29  C12 UNL     1     -11.146 -13.341   3.542  1.00  0.00     0.120 A
HETATM   30  F2  UNL     1     -11.970 -12.313   3.155  1.00  0.00    -0.206 F
HETATM   31  C13 UNL     1     -11.450 -14.118   4.634  1.00  0.00     0.056 A
ENDBRANCH   8  24
TORSDOF 5
ENDMDL