MODEL 1
REMARK VINA RESULT: -9.197192841      0.000      0.000
REMARK  4 active torsions:
REMARK  status: ('A' for Active; 'I' for Inactive)
REMARK    1  A    between atoms: C6_6  and  N1_7
REMARK       I    between atoms: N1_7  and  C7_9
REMARK       I    between atoms: C7_9  and  N2_11
REMARK    2  A    between atoms: N2_11  and  C8_13
REMARK    3  A    between atoms: N3_17  and  C12_18
REMARK    4  A    between atoms: C12_18  and  C13_19
ROOT
HETATM    1  C8  UNL     1     -11.184 -17.693   9.797  1.00  0.00     0.114 A
HETATM    2  C9  UNL     1     -10.155 -17.889   8.912  1.00  0.00     0.073 A
HETATM    3  C10 UNL     1     -10.211 -17.337   7.617  1.00  0.00     0.016 A
HETATM    4  C11 UNL     1      -9.064 -17.583   6.733  1.00  0.00     0.068 C
HETATM    5  N3  UNL     1     -11.247 -16.607   7.190  1.00  0.00    -0.299 N
HETATM    6  C19 UNL     1     -12.250 -16.432   8.095  1.00  0.00     0.328 A
HETATM    7  O2  UNL     1     -13.248 -15.752   7.757  1.00  0.00    -0.246 OA
HETATM    8  N4  UNL     1     -12.210 -16.959   9.348  1.00  0.00    -0.294 N
ATOM      9  H4  UNL     1     -12.996 -16.788   9.973  1.00  0.00     0.172 HD
ENDROOT
BRANCH   1  10
HETATM   10  N2  UNL     1     -11.198 -18.170  10.996  1.00  0.00    -0.294 N
HETATM   11  C7  UNL     1     -12.394 -18.896  11.408  1.00  0.00     0.326 C
HETATM   12  N1  UNL     1     -12.405 -20.278  11.285  1.00  0.00    -0.309 N
HETATM   13  O1  UNL     1     -13.362 -18.246  11.855  1.00  0.00    -0.247 OA
ATOM     14  H1  UNL     1     -11.571 -20.723  10.902  1.00  0.00     0.170 HD
ATOM     15  H2  UNL     1     -10.407 -18.044  11.628  1.00  0.00     0.172 HD
BRANCH  12  16
HETATM   16  C6  UNL     1     -13.483 -21.118  11.649  1.00  0.00     0.036 A
HETATM   17  C5  UNL     1     -13.336 -21.960  12.769  1.00  0.00     0.029 A
HETATM   18  C4  UNL     1     -14.350 -22.768  13.176  1.00  0.00     0.003 A
HETATM   19  C3  UNL     1     -15.548 -22.782  12.500  1.00  0.00     0.007 A
HETATM   20  C2  UNL     1     -15.735 -21.978  11.406  1.00  0.00    -0.060 A
HETATM   21  C1  UNL     1     -17.009 -21.964  10.652  1.00  0.00     0.048 C
HETATM   22  C20 UNL     1     -14.674 -21.154  11.006  1.00  0.00     0.036 A
ENDBRANCH  12  16
ENDBRANCH   1  10
BRANCH   5  23
HETATM   23  C12 UNL     1     -11.302 -16.026   5.896  1.00  0.00     0.172 C
BRANCH  23  24
HETATM   24  C13 UNL     1     -10.331 -15.001   5.538  1.00  0.00    -0.034 A
HETATM   25  C14 UNL     1      -9.756 -15.062   4.275  1.00  0.00     0.051 A
HETATM   26  C15 UNL     1      -8.837 -14.135   3.826  1.00  0.00     0.119 A
HETATM   27  F1  UNL     1      -8.311 -14.247   2.582  1.00  0.00    -0.206 F
HETATM   28  C16 UNL     1      -8.488 -13.114   4.685  1.00  0.00     0.084 A
HETATM   29  C17 UNL     1      -9.057 -13.048   5.948  1.00  0.00     0.119 A
HETATM   30  F2  UNL     1      -8.680 -12.020   6.758  1.00  0.00    -0.206 F
HETATM   31  C18 UNL     1      -9.971 -13.990   6.360  1.00  0.00     0.051 A
ENDBRANCH  23  24
ENDBRANCH   5  23
TORSDOF 4
ENDMDL