MODEL 3
REMARK VINA RESULT: -6.599263028      3.693      7.656
REMARK  4 active torsions:
REMARK  status: ('A' for Active; 'I' for Inactive)
REMARK    1  A    between atoms: C3_3  and  C5_5
REMARK       I    between atoms: C5_5  and  N1_7
REMARK    2  A    between atoms: N1_7  and  N2_9
REMARK    3  A    between atoms: C6_11  and  C7_12
REMARK    4  A    between atoms: C10_16  and  O2_17
ROOT
HETATM    1  N2  UNL     1     -13.006 -14.478   6.065  1.00  0.00    -0.308 N
ATOM      2  H2  UNL     1     -13.866 -14.328   5.536  1.00  0.00     0.186 HD
HETATM    3  C6  UNL     1     -13.084 -14.583   7.337  1.00  0.00     0.118 C
ENDROOT
BRANCH   3   4
HETATM    4  C7  UNL     1     -14.395 -14.484   7.971  1.00  0.00    -0.017 A
HETATM    5  C8  UNL     1     -15.553 -14.627   7.246  1.00  0.00     0.034 A
HETATM    6  C9  UNL     1     -16.809 -14.539   7.819  1.00  0.00     0.046 A
HETATM    7 BR1  UNL     1     -18.396 -14.744   6.772  1.00  0.00    -0.048 Br
HETATM    8  C10 UNL     1     -16.879 -14.298   9.175  1.00  0.00     0.100 A
HETATM    9  C11 UNL     1     -15.713 -14.151   9.926  1.00  0.00     0.046 A
HETATM   10 BR2  UNL     1     -15.854 -13.815  11.809  1.00  0.00    -0.048 Br
HETATM   11  C12 UNL     1     -14.460 -14.243   9.324  1.00  0.00     0.034 A
BRANCH   8  12
HETATM   12  O2  UNL     1     -18.098 -14.195   9.824  1.00  0.00    -0.358 OA
ATOM     13  H2  UNL     1     -18.492 -14.945  10.253  1.00  0.00     0.217 HD
ENDBRANCH   8  12
ENDBRANCH   3   4
BRANCH   1  14
HETATM   14  N1  UNL     1     -11.802 -14.558   5.366  1.00  0.00    -0.266 N
HETATM   15  C5  UNL     1     -11.581 -13.730   4.271  1.00  0.00     0.265 C
HETATM   16  O1  UNL     1     -12.456 -12.914   3.911  1.00  0.00    -0.266 OA
ATOM     17  H1  UNL     1     -11.085 -15.223   5.657  1.00  0.00     0.190 HD
BRANCH  15  18
HETATM   18  C3  UNL     1     -10.339 -13.793   3.526  1.00  0.00     0.003 C
HETATM   19  C2  UNL     1      -9.532 -14.808   3.573  1.00  0.00    -0.019 C
HETATM   20  C1  UNL     1      -8.274 -14.787   2.774  1.00  0.00     0.036 C
HETATM   21  C4  UNL     1      -9.935 -12.631   2.639  1.00  0.00     0.054 C
ENDBRANCH  15  18
ENDBRANCH   1  14
TORSDOF 4
ENDMDL