MODEL 2
REMARK VINA RESULT: -9.231105011      0.311      1.605
REMARK  4 active torsions:
REMARK  status: ('A' for Active; 'I' for Inactive)
REMARK    1  A    between atoms: C2_2  and  C3_3
REMARK    2  A    between atoms: C5_5  and  N1_6
REMARK       I    between atoms: N1_6  and  C6_8
REMARK       I    between atoms: C6_8  and  N2_10
REMARK       I    between atoms: N2_10  and  C7_12
REMARK    3  A    between atoms: C7_12  and  C8_14
REMARK    4  A    between atoms: C11_18  and  C12_19
ROOT
HETATM    1  N1  UNL     1     -14.012 -19.116  11.150  1.00  0.00    -0.287 N
ATOM      2  H1  UNL     1     -13.255 -19.798  11.101  1.00  0.00     0.172 HD
HETATM    3  C6  UNL     1     -13.681 -17.768  11.340  1.00  0.00     0.329 C
HETATM    4  O1  UNL     1     -13.950 -17.232  12.437  1.00  0.00    -0.247 OA
HETATM    5  N2  UNL     1     -13.051 -16.994  10.327  1.00  0.00    -0.275 N
ATOM      6  H2  UNL     1     -12.826 -16.015  10.507  1.00  0.00     0.173 HD
HETATM    7  C7  UNL     1     -12.738 -17.557   9.095  1.00  0.00     0.265 C
HETATM    8  O2  UNL     1     -13.064 -18.793   8.945  1.00  0.00    -0.267 OA
ENDROOT
BRANCH   7   9
HETATM    9  C8  UNL     1     -12.093 -16.921   7.962  1.00  0.00     0.109 A
HETATM   10  C9  UNL     1     -10.812 -17.149   7.525  1.00  0.00     0.136 A
HETATM   11  F1  UNL     1     -10.053 -18.060   8.158  1.00  0.00    -0.205 F
HETATM   12  C10 UNL     1     -10.297 -16.452   6.425  1.00  0.00     0.055 A
HETATM   13  C11 UNL     1     -11.023 -15.524   5.736  1.00  0.00    -0.020 A
HETATM   14  C18 UNL     1     -12.308 -15.303   6.181  1.00  0.00     0.055 A
HETATM   15  C19 UNL     1     -12.843 -15.969   7.257  1.00  0.00     0.136 A
HETATM   16  F2  UNL     1     -14.121 -15.686   7.629  1.00  0.00    -0.205 F
BRANCH  13  17
HETATM   17  C12 UNL     1     -10.490 -14.799   4.592  1.00  0.00    -0.026 A
HETATM   18  C13 UNL     1     -11.144 -13.670   4.096  1.00  0.00     0.012 A
HETATM   19  C14 UNL     1     -10.635 -12.984   3.010  1.00  0.00     0.001 A
HETATM   20  C15 UNL     1      -9.474 -13.388   2.383  1.00  0.00     0.000 A
HETATM   21  C16 UNL     1      -8.802 -14.509   2.856  1.00  0.00     0.001 A
HETATM   22  C17 UNL     1      -9.334 -15.170   3.939  1.00  0.00     0.012 A
ENDBRANCH  13  17
ENDBRANCH   7   9
BRANCH   1  23
HETATM   23  C5  UNL     1     -15.222 -19.536  11.034  1.00  0.00     0.176 A
HETATM   24  C4  UNL     1     -15.630 -20.832  11.141  1.00  0.00     0.085 A
HETATM   25  C3  UNL     1     -17.004 -20.858  10.953  1.00  0.00     0.036 A
HETATM   26  N3  UNL     1     -17.350 -19.569  10.743  1.00  0.00    -0.263 N
HETATM   27  O3  UNL     1     -16.291 -18.813  10.795  1.00  0.00    -0.220 OA
ATOM     28  H3  UNL     1     -18.299 -19.237  10.570  1.00  0.00     0.194 HD
BRANCH  25  29
HETATM   29  C2  UNL     1     -17.873 -22.056  10.982  1.00  0.00     0.055 C
HETATM   30  C1  UNL     1     -17.172 -23.216  11.650  1.00  0.00     0.011 C
ENDBRANCH  25  29
ENDBRANCH   1  23
TORSDOF 4
ENDMDL