MODEL 3
REMARK VINA RESULT: -9.190474430      0.824      1.075
REMARK  3 active torsions:
REMARK  status: ('A' for Active; 'I' for Inactive)
REMARK    1  A    between atoms: C2_3  and  C3_4
REMARK       I    between atoms: C3_4  and  N2_6
REMARK    2  A    between atoms: N2_6  and  C4_8
REMARK    3  A    between atoms: C4_8  and  C5_9
ROOT
HETATM    1  N1  UNL     1      -8.817 -18.116   9.176  1.00  0.00    -0.196 NA
HETATM    2  C1  UNL     1      -9.840 -17.550   9.017  1.00  0.00     0.080 C
HETATM    3  C2  UNL     1     -11.109 -16.841   8.852  1.00  0.00     0.137 C
HETATM    4  C12 UNL     1     -11.234 -15.811   9.943  1.00  0.00     0.019 C
HETATM    5  C13 UNL     1     -12.615 -15.240  10.102  1.00  0.00     0.011 C
HETATM    6  C14 UNL     1     -13.582 -16.335  10.409  1.00  0.00    -0.013 C
HETATM    7  C15 UNL     1     -13.225 -17.122  11.635  1.00  0.00     0.009 C
HETATM    8  C16 UNL     1     -11.816 -17.700  11.469  1.00  0.00    -0.013 C
HETATM    9  C17 UNL     1     -10.891 -16.521  11.257  1.00  0.00     0.011 C
HETATM   10  C18 UNL     1     -11.839 -18.640  10.316  1.00  0.00     0.011 C
HETATM   11  C19 UNL     1     -12.191 -17.866   9.049  1.00  0.00     0.019 C
HETATM   12  C20 UNL     1     -13.559 -17.310   9.232  1.00  0.00     0.011 C
ENDROOT
BRANCH   3  13
HETATM   13  C3  UNL     1     -11.130 -16.225   7.485  1.00  0.00     0.242 C
HETATM   14  O1  UNL     1     -11.786 -16.819   6.601  1.00  0.00    -0.272 OA
HETATM   15  N2  UNL     1     -10.458 -15.034   7.181  1.00  0.00    -0.340 N
ATOM     16  H2  UNL     1      -9.928 -14.629   7.953  1.00  0.00     0.163 HD
BRANCH  15  17
HETATM   17  C4  UNL     1     -10.400 -14.293   5.949  1.00  0.00     0.121 C
HETATM   18  C6  UNL     1      -9.084 -13.578   5.883  1.00  0.00     0.042 C
HETATM   19  C7  UNL     1      -9.001 -12.488   4.886  1.00  0.00     0.009 C
HETATM   20  C8  UNL     1      -9.197 -12.780   3.462  1.00  0.00     0.079 C
HETATM   21  C9  UNL     1      -8.990 -14.165   3.011  1.00  0.00     0.243 C
HETATM   22  F1  UNL     1      -9.511 -14.219   1.692  1.00  0.00    -0.206 F
HETATM   23  F2  UNL     1      -7.599 -14.333   2.819  1.00  0.00    -0.206 F
HETATM   24  C10 UNL     1      -9.481 -15.298   3.814  1.00  0.00     0.082 C
HETATM   25  C11 UNL     1     -10.653 -15.101   4.701  1.00  0.00     0.048 C
BRANCH  17  26
HETATM   26  C5  UNL     1     -11.567 -13.342   6.026  1.00  0.00     0.202 C
HETATM   27  O2  UNL     1     -11.783 -12.616   7.051  1.00  0.00    -0.646 OA
HETATM   28  O3  UNL     1     -12.454 -13.232   4.980  1.00  0.00    -0.646 OA
ENDBRANCH  17  26
ENDBRANCH  15  17
ENDBRANCH   3  13
TORSDOF 3
ENDMDL