MODEL 1
REMARK VINA RESULT: -8.969902108      0.000      0.000
REMARK  3 active torsions:
REMARK  status: ('A' for Active; 'I' for Inactive)
REMARK    1  A    between atoms: C2_2  and  C4_4
REMARK    2  A    between atoms: C4_4  and  N1_5
REMARK       I    between atoms: N1_5  and  C5_7
REMARK    3  A    between atoms: C5_7  and  C6_9
ROOT
HETATM    1  C6  UNL     1      -9.930 -16.812   8.446  1.00  0.00     0.050 A
HETATM    2  C7  UNL     1      -9.988 -16.969   7.083  1.00  0.00     0.034 A
HETATM    3  C8  UNL     1      -9.861 -15.861   6.242  1.00  0.00     0.027 A
HETATM    4  C9  UNL     1      -9.677 -14.594   6.738  1.00  0.00    -0.004 A
HETATM    5  C10 UNL     1      -9.619 -14.446   8.142  1.00  0.00     0.031 A
HETATM    6  C11 UNL     1      -9.746 -15.548   8.952  1.00  0.00     0.027 A
HETATM    7 BR1  UNL     1      -9.660 -15.285  10.835  1.00  0.00    -0.050 Br
HETATM    8  C12 UNL     1      -9.533 -13.373   5.933  1.00  0.00     0.241 A
HETATM    9  F1  UNL     1      -8.295 -12.789   6.238  1.00  0.00    -0.239 F
HETATM   10  C13 UNL     1      -9.598 -13.573   4.478  1.00  0.00     0.029 A
HETATM   11  C14 UNL     1      -9.500 -12.640   3.425  1.00  0.00     0.120 A
HETATM   12  N2  UNL     1      -9.626 -13.358   2.307  1.00  0.00    -0.311 N
ATOM     13  H2  UNL     1      -9.599 -12.969   1.364  1.00  0.00     0.186 HD
HETATM   14  N3  UNL     1      -9.793 -14.637   2.586  1.00  0.00    -0.297 N
ATOM     15  H3  UNL     1      -9.912 -15.380   1.897  1.00  0.00     0.187 HD
HETATM   16  C15 UNL     1      -9.781 -14.811   3.931  1.00  0.00     0.110 A
HETATM   17  C16 UNL     1      -9.916 -15.983   4.790  1.00  0.00     0.211 A
HETATM   18  O2  UNL     1     -10.082 -17.105   4.263  1.00  0.00    -0.285 OA
ENDROOT
BRANCH   1  19
HETATM   19  C5  UNL     1     -10.055 -17.918   9.397  1.00  0.00     0.253 C
HETATM   20  N1  UNL     1     -11.322 -18.323   9.867  1.00  0.00    -0.353 N
ATOM     21  H1  UNL     1     -12.108 -17.798   9.483  1.00  0.00     0.163 HD
HETATM   22  O1  UNL     1      -9.030 -18.517   9.803  1.00  0.00    -0.268 OA
BRANCH  20  23
HETATM   23  C4  UNL     1     -11.679 -19.337  10.782  1.00  0.00     0.155 C
BRANCH  23  24
HETATM   24  C2  UNL     1     -12.894 -20.117  10.577  1.00  0.00    -0.075 C
HETATM   25  C1  UNL     1     -13.732 -19.718   9.589  1.00  0.00     0.015 C
HETATM   26  C3  UNL     1     -13.277 -21.313  11.323  1.00  0.00     0.044 C
ENDBRANCH  23  24
ENDBRANCH  20  23
ENDBRANCH   1  19
TORSDOF 3
ENDMDL