MODEL 4
REMARK VINA RESULT: -3.972949654      3.329      5.807
REMARK  6 active torsions:
REMARK  status: ('A' for Active; 'I' for Inactive)
REMARK    1  A    between atoms: C2_2  and  O1_4
REMARK    2  A    between atoms: O1_4  and  C3_5
REMARK    3  A    between atoms: C4_7  and  C5_8
REMARK    4  A    between atoms: C5_8  and  O3_9
REMARK    5  A    between atoms: C6_11  and  O4_12
REMARK    6  A    between atoms: C7_14  and  O5_15
ROOT
HETATM    1  C3  UNL     1     -11.734  29.691  11.726  1.00  0.00     0.284 C
HETATM    2  O2  UNL     1     -11.523  28.354  11.572  1.00  0.00    -0.349 OA
HETATM    3  C4  UNL     1     -12.262  27.686  10.648  1.00  0.00     0.179 C
HETATM    4  C6  UNL     1     -12.350  28.334   9.294  1.00  0.00     0.179 C
HETATM    5  C7  UNL     1     -12.565  29.816   9.349  1.00  0.00     0.168 C
HETATM    6  C8  UNL     1     -11.901  30.498  10.492  1.00  0.00     0.145 C
HETATM    7  S2  UNL     1     -10.274  31.162   9.967  1.00  0.00    -0.085 SA
ENDROOT
BRANCH   1   8
HETATM    8  O1  UNL     1     -12.781  30.003  12.630  1.00  0.00    -0.312 OA
BRANCH   8   9
HETATM    9  C2  UNL     1     -12.562  30.769  13.765  1.00  0.00     0.112 C
HETATM   10  C1  UNL     1     -13.634  31.414  14.521  1.00  0.00     0.089 C
HETATM   11  S1  UNL     1     -11.017  30.943  14.261  1.00  0.00    -0.058 SA
ENDBRANCH   8   9
ENDBRANCH   1   8
BRANCH   3  12
HETATM   12  C5  UNL     1     -13.653  27.309  11.173  1.00  0.00     0.198 C
BRANCH  12  13
HETATM   13  O3  UNL     1     -14.549  27.162  10.112  1.00  0.00    -0.398 OA
ATOM     14  H3  UNL     1     -14.917  28.004   9.870  1.00  0.00     0.209 HD
ENDBRANCH  12  13
ENDBRANCH   3  12
BRANCH   5  15
HETATM   15  O5  UNL     1     -13.939  30.119   9.364  1.00  0.00    -0.392 OA
ATOM     16  H5  UNL     1     -14.394  29.654   8.672  1.00  0.00     0.210 HD
ENDBRANCH   5  15
BRANCH   4  17
HETATM   17  O4  UNL     1     -11.200  28.043   8.560  1.00  0.00    -0.390 OA
ATOM     18  H4  UNL     1     -10.861  28.839   8.169  1.00  0.00     0.210 HD
ENDBRANCH   4  17
TORSDOF 6
ENDMDL