MODEL 4
REMARK VINA RESULT: -4.629247153      2.303      5.041
REMARK  3 active torsions:
REMARK  status: ('A' for Active; 'I' for Inactive)
REMARK    1  A    between atoms: C3_5  and  N2_6
REMARK    2  A    between atoms: N2_6  and  N3_8
REMARK    3  A    between atoms: C4_10  and  C5_11
ROOT
HETATM    1  C1  UNL     1     -10.775  18.954   6.711  1.00  0.00     0.040 C
HETATM    2  C2  UNL     1     -10.068  19.648   7.588  1.00  0.00     0.030 C
HETATM    3  N1  UNL     1      -8.654  19.697   7.645  1.00  0.00    -0.368 N
ATOM      4  H1  UNL     1      -8.035  19.264   6.962  1.00  0.00     0.161 HD
HETATM    5  C3  UNL     1      -8.207  20.438   8.796  1.00  0.00     0.230 C
HETATM    6  C8  UNL     1      -9.430  21.232   9.204  1.00  0.00     0.267 C
HETATM    7  N5  UNL     1      -9.430  22.449   8.434  1.00  0.00    -0.041 N
ATOM      8  H51 UNL     1      -8.925  22.384   7.550  1.00  0.00     0.279 HD
ATOM      9  H52 UNL     1      -8.861  23.196   8.833  1.00  0.00     0.279 HD
HETATM   10  C9  UNL     1     -10.821  22.777   8.295  1.00  0.00     0.464 C
HETATM   11  N6  UNL     1     -11.506  21.517   8.184  1.00  0.00    -0.040 N
ATOM     12  H61 UNL     1     -11.852  21.340   7.241  1.00  0.00     0.280 HD
ATOM     13  H62 UNL     1     -12.405  21.516   8.665  1.00  0.00     0.280 HD
HETATM   14  C10 UNL     1     -10.631  20.486   8.652  1.00  0.00     0.270 C
ENDROOT
BRANCH   5  15
HETATM   15  N2  UNL     1      -7.772  19.546   9.838  1.00  0.00    -0.311 N
ATOM     16  H2  UNL     1      -7.852  19.819  10.817  1.00  0.00     0.182 HD
BRANCH  15  17
HETATM   17  N3  UNL     1      -7.243  18.313   9.497  1.00  0.00    -0.312 N
HETATM   18  C4  UNL     1      -7.718  17.181   9.865  1.00  0.00     0.143 C
ATOM     19  H3  UNL     1      -6.410  18.304   8.908  1.00  0.00     0.185 HD
BRANCH  18  20
HETATM   20  C5  UNL     1      -8.925  17.220  10.718  1.00  0.00     0.090 A
HETATM   21  N4  UNL     1     -10.194  17.324  10.361  1.00  0.00    -0.359 N
HETATM   22  C6  UNL     1     -11.120  17.340  11.260  1.00  0.00     0.096 A
ATOM     23  H4  UNL     1     -10.441  17.390   9.374  1.00  0.00     0.166 HD
HETATM   24  C7  UNL     1     -10.745  17.250  12.575  1.00  0.00     0.069 A
HETATM   25  S1  UNL     1      -9.039  17.143  12.430  1.00  0.00    -0.082 SA
ENDBRANCH  18  20
ENDBRANCH  15  17
ENDBRANCH   5  15
TORSDOF 3
ENDMDL