MODEL 5
REMARK VINA RESULT: -4.024871972      1.584      2.771
REMARK  5 active torsions:
REMARK  status: ('A' for Active; 'I' for Inactive)
REMARK    1  A    between atoms: C3_4  and  C4_5
REMARK    2  A    between atoms: C3_4  and  C5_8
REMARK    3  A    between atoms: C4_5  and  O2_6
REMARK    4  A    between atoms: C5_8  and  O3_9
REMARK    5  A    between atoms: C7_13  and  O5_14
ROOT
HETATM    1  C1  UNL     1     -11.370  26.022   8.074  1.00  0.00     0.061 C
HETATM    2  C2  UNL     1     -12.278  24.855   8.028  1.00  0.00     0.137 C
HETATM    3  O1  UNL     1     -13.429  25.154   7.325  1.00  0.00    -0.327 OA
HETATM    4  C3  UNL     1     -13.294  24.643   6.048  1.00  0.00     0.209 C
HETATM    5  O4  UNL     1     -12.009  24.085   5.946  1.00  0.00    -0.339 OA
HETATM    6  C6  UNL     1     -11.763  23.684   7.221  1.00  0.00     0.198 C
HETATM    7  C7  UNL     1     -10.404  23.242   7.559  1.00  0.00     0.151 C
HETATM    8  C8  UNL     1     -10.127  23.191   9.013  1.00  0.00     0.045 C
HETATM    9  C9  UNL     1     -11.328  22.871   9.873  1.00  0.00     0.079 C
HETATM   10  S1  UNL     1     -12.594  24.190   9.687  1.00  0.00    -0.129 SA
ENDROOT
BRANCH   4  11
HETATM   11  C4  UNL     1     -14.362  23.604   5.793  1.00  0.00     0.235 C
BRANCH  11  12
HETATM   12  O2  UNL     1     -15.305  24.140   4.939  1.00  0.00    -0.395 OA
ATOM     13  H2  UNL     1     -16.064  24.397   5.448  1.00  0.00     0.209 HD
ENDBRANCH  11  12
ENDBRANCH   4  11
BRANCH   4  14
HETATM   14  C5  UNL     1     -13.392  25.705   4.972  1.00  0.00     0.235 C
BRANCH  14  15
HETATM   15  O3  UNL     1     -14.076  26.829   5.414  1.00  0.00    -0.395 OA
ATOM     16  H3  UNL     1     -15.004  26.778   5.222  1.00  0.00     0.209 HD
ENDBRANCH  14  15
ENDBRANCH   4  14
BRANCH   7  17
HETATM   17  O5  UNL     1      -9.390  23.980   6.918  1.00  0.00    -0.393 OA
ATOM     18  H5  UNL     1      -9.627  24.284   6.050  1.00  0.00     0.210 HD
ENDBRANCH   7  17
TORSDOF 5
ENDMDL