MODEL 2
REMARK VINA RESULT: -4.829131388      5.860      7.337
REMARK  6 active torsions:
REMARK  status: ('A' for Active; 'I' for Inactive)
REMARK    1  A    between atoms: O1_1  and  C1_3
REMARK    2  A    between atoms: C1_3  and  C2_4
REMARK    3  A    between atoms: C2_4  and  O2_5
REMARK    4  A    between atoms: C3_8  and  C4_9
REMARK    5  A    between atoms: C8_14  and  O4_15
REMARK    6  A    between atoms: C9_18  and  O6_19
ROOT
HETATM    1  C2  UNL     1     -13.599  28.953   8.969  1.00  0.00     0.235 C
HETATM    2  O3  UNL     1     -12.546  29.826   9.045  1.00  0.00    -0.334 OA
HETATM    3  C3  UNL     1     -12.277  30.301  10.303  1.00  0.00     0.214 C
HETATM    4  C8  UNL     1     -12.168  29.228  11.348  1.00  0.00     0.293 C
HETATM    5  O5  UNL     1     -12.539  27.987  10.830  1.00  0.00    -0.323 OA
HETATM    6  C9  UNL     1     -13.781  28.150  10.231  1.00  0.00     0.325 C
ENDROOT
BRANCH   1   7
HETATM    7  C1  UNL     1     -14.900  29.659   8.576  1.00  0.00     0.237 C
BRANCH   7   8
HETATM    8  O1  UNL     1     -15.332  29.284   7.326  1.00  0.00    -0.395 OA
ATOM      9  H1  UNL     1     -16.277  29.342   7.244  1.00  0.00     0.209 HD
ENDBRANCH   7   8
ENDBRANCH   1   7
BRANCH   1  10
HETATM   10  O2  UNL     1     -13.333  28.057   7.919  1.00  0.00    -0.360 OA
ATOM     11  H2  UNL     1     -13.535  27.196   8.267  1.00  0.00     0.213 HD
ENDBRANCH   1  10
BRANCH   6  12
HETATM   12  O6  UNL     1     -14.432  26.953  10.018  1.00  0.00    -0.366 OA
ATOM     13  H6  UNL     1     -15.322  27.066   9.706  1.00  0.00     0.212 HD
ENDBRANCH   6  12
BRANCH   3  14
HETATM   14  C4  UNL     1     -10.980  31.087  10.209  1.00  0.00    -0.018 A
HETATM   15  C5  UNL     1     -10.688  32.134  10.998  1.00  0.00     0.017 A
HETATM   16  C6  UNL     1      -9.483  32.754  10.813  1.00  0.00     0.050 A
HETATM   17  S1  UNL     1      -8.787  31.858   9.540  1.00  0.00    -0.113 SA
HETATM   18  C7  UNL     1     -10.037  30.731   9.281  1.00  0.00     0.059 A
ENDBRANCH   3  14
BRANCH   4  19
HETATM   19  O4  UNL     1     -10.877  29.101  11.854  1.00  0.00    -0.368 OA
ATOM     20  H4  UNL     1     -10.524  29.925  12.166  1.00  0.00     0.212 HD
ENDBRANCH   4  19
TORSDOF 6
ENDMDL