MODEL 2
REMARK VINA RESULT: -4.291964467      3.381      6.002
REMARK  6 active torsions:
REMARK  status: ('A' for Active; 'I' for Inactive)
REMARK    1  A    between atoms: N1_1  and  C1_4
REMARK    2  A    between atoms: N2_7  and  C4_8
REMARK    3  A    between atoms: C5_10  and  C6_11
REMARK    4  A    between atoms: C6_11  and  O1_12
REMARK    5  A    between atoms: C7_14  and  O2_15
REMARK    6  A    between atoms: C8_17  and  O3_18
ROOT
HETATM    1  C4  UNL     1     -13.212  24.646   5.217  1.00  0.00     0.189 C
HETATM    2  S1  UNL     1     -13.610  26.413   4.895  1.00  0.00    -0.130 SA
HETATM    3  C5  UNL     1     -15.371  26.187   4.413  1.00  0.00     0.104 C
HETATM    4  C7  UNL     1     -15.326  24.713   4.030  1.00  0.00     0.165 C
HETATM    5  C8  UNL     1     -14.585  24.042   5.175  1.00  0.00     0.181 C
ENDROOT
BRANCH   1   6
HETATM    6  N2  UNL     1     -12.636  24.613   6.562  1.00  0.00    -0.309 N
HETATM    7  C3  UNL     1     -12.058  23.591   7.192  1.00  0.00     0.103 A
HETATM    8  C2  UNL     1     -11.601  23.805   8.438  1.00  0.00     0.056 A
HETATM    9  C1  UNL     1     -11.767  25.058   8.954  1.00  0.00     0.085 A
HETATM   10  S2  UNL     1     -12.552  25.872   7.677  1.00  0.00     0.006 SA
BRANCH   9  11
HETATM   11  N1  UNL     1     -11.400  25.489  10.139  1.00  0.00    -0.392 N
ATOM     12  H12 UNL     1     -11.845  25.374  11.050  1.00  0.00     0.156 HD
ATOM     13  H11 UNL     1     -10.572  26.038  10.371  1.00  0.00     0.156 HD
ENDBRANCH   9  11
ENDBRANCH   1   6
BRANCH   5  14
HETATM   14  O3  UNL     1     -14.523  22.687   4.962  1.00  0.00    -0.390 OA
ATOM     15  H3  UNL     1     -15.228  22.397   4.395  1.00  0.00     0.210 HD
ENDBRANCH   5  14
BRANCH   3  16
HETATM   16  C6  UNL     1     -15.693  27.043   3.214  1.00  0.00     0.181 C
BRANCH  16  17
HETATM   17  O1  UNL     1     -14.584  27.787   2.847  1.00  0.00    -0.400 OA
ATOM     18  H1  UNL     1     -14.275  27.514   1.991  1.00  0.00     0.209 HD
ENDBRANCH  16  17
ENDBRANCH   3  16
BRANCH   4  19
HETATM   19  O2  UNL     1     -16.605  24.244   3.940  1.00  0.00    -0.392 OA
ATOM     20  H2  UNL     1     -16.588  23.296   4.002  1.00  0.00     0.210 HD
ENDBRANCH   4  19
TORSDOF 6
ENDMDL