MODEL 3
REMARK VINA RESULT: -4.451028064      5.894      7.486
REMARK  6 active torsions:
REMARK  status: ('A' for Active; 'I' for Inactive)
REMARK    1  A    between atoms: O1_1  and  C1_3
REMARK    2  A    between atoms: C1_3  and  C2_4
REMARK    3  A    between atoms: C3_6  and  C4_7
REMARK    4  A    between atoms: C8_12  and  O3_13
REMARK    5  A    between atoms: C9_15  and  O4_16
REMARK    6  A    between atoms: C10_18  and  O5_19
ROOT
HETATM    1  C2  UNL     1     -13.304  27.356  10.149  1.00  0.00     0.177 C
HETATM    2  O2  UNL     1     -13.498  26.538   9.085  1.00  0.00    -0.368 OA
HETATM    3  C3  UNL     1     -12.404  26.161   8.371  1.00  0.00     0.193 C
HETATM    4  C8  UNL     1     -11.350  27.196   8.194  1.00  0.00     0.183 C
HETATM    5  C9  UNL     1     -11.113  28.065   9.382  1.00  0.00     0.181 C
HETATM    6  C10 UNL     1     -11.864  27.495  10.576  1.00  0.00     0.180 C
ENDROOT
BRANCH   3   7
HETATM    7  C4  UNL     1     -12.881  25.761   6.993  1.00  0.00     0.014 A
HETATM    8  C5  UNL     1     -13.221  26.589   5.956  1.00  0.00     0.018 A
HETATM    9  C6  UNL     1     -13.621  26.024   4.818  1.00  0.00     0.008 A
HETATM   10  C7  UNL     1     -13.661  24.655   4.769  1.00  0.00     0.050 A
HETATM   11  S1  UNL     1     -13.135  24.209   6.330  1.00  0.00    -0.104 SA
ENDBRANCH   3   7
BRANCH   4  12
HETATM   12  O3  UNL     1     -10.136  26.539   7.884  1.00  0.00    -0.390 OA
ATOM     13  H3  UNL     1      -9.488  26.798   8.528  1.00  0.00     0.210 HD
ENDBRANCH   4  12
BRANCH   1  14
HETATM   14  C1  UNL     1     -14.125  26.937  11.374  1.00  0.00     0.198 C
BRANCH  14  15
HETATM   15  O1  UNL     1     -14.263  25.544  11.322  1.00  0.00    -0.398 OA
ATOM     16  H1  UNL     1     -13.562  25.174  11.844  1.00  0.00     0.209 HD
ENDBRANCH  14  15
ENDBRANCH   1  14
BRANCH   5  17
HETATM   17  O4  UNL     1     -11.667  29.319   9.130  1.00  0.00    -0.390 OA
ATOM     18  H4  UNL     1     -12.410  29.442   9.710  1.00  0.00     0.210 HD
ENDBRANCH   5  17
BRANCH   6  19
HETATM   19  O5  UNL     1     -11.322  26.318  11.032  1.00  0.00    -0.390 OA
ATOM     20  H5  UNL     1     -10.517  26.444  11.520  1.00  0.00     0.210 HD
ENDBRANCH   6  19
TORSDOF 6
ENDMDL