MODEL 3
REMARK VINA RESULT: -4.539461280      2.920      5.303
REMARK  6 active torsions:
REMARK  status: ('A' for Active; 'I' for Inactive)
REMARK    1  A    between atoms: O1_1  and  C1_3
REMARK    2  A    between atoms: C1_3  and  C2_4
REMARK    3  A    between atoms: C3_6  and  C4_7
REMARK    4  A    between atoms: C7_13  and  O3_14
REMARK    5  A    between atoms: C8_16  and  O4_17
REMARK    6  A    between atoms: C9_19  and  O5_20
ROOT
HETATM    1  C2  UNL     1     -12.550  27.186   8.841  1.00  0.00     0.177 C
HETATM    2  O2  UNL     1     -13.343  26.247   8.213  1.00  0.00    -0.366 OA
HETATM    3  C3  UNL     1     -12.554  25.649   7.219  1.00  0.00     0.210 C
HETATM    4  C7  UNL     1     -11.655  24.687   7.913  1.00  0.00     0.184 C
HETATM    5  C8  UNL     1     -10.707  25.466   8.766  1.00  0.00     0.181 C
HETATM    6  C9  UNL     1     -11.289  26.668   9.417  1.00  0.00     0.180 C
ENDROOT
BRANCH   3   7
HETATM    7  C4  UNL     1     -13.402  25.010   6.167  1.00  0.00     0.082 A
HETATM    8  N1  UNL     1     -13.885  23.796   6.068  1.00  0.00    -0.361 N
HETATM    9  C5  UNL     1     -14.611  23.453   5.048  1.00  0.00     0.096 A
ATOM     10  H1  UNL     1     -13.689  23.114   6.800  1.00  0.00     0.165 HD
HETATM   11  C6  UNL     1     -14.844  24.412   4.090  1.00  0.00     0.068 A
HETATM   12  S1  UNL     1     -13.995  25.751   4.733  1.00  0.00    -0.085 SA
ENDBRANCH   3   7
BRANCH   4  13
HETATM   13  O3  UNL     1     -10.926  23.887   7.016  1.00  0.00    -0.390 OA
ATOM     14  H3  UNL     1     -10.192  24.350   6.629  1.00  0.00     0.210 HD
ENDBRANCH   4  13
BRANCH   1  15
HETATM   15  C1  UNL     1     -13.411  27.867   9.901  1.00  0.00     0.198 C
BRANCH  15  16
HETATM   16  O1  UNL     1     -14.440  27.071  10.340  1.00  0.00    -0.398 OA
ATOM     17  H1  UNL     1     -15.021  27.521  10.941  1.00  0.00     0.209 HD
ENDBRANCH  15  16
ENDBRANCH   1  15
BRANCH   5  18
HETATM   18  O4  UNL     1      -9.597  25.794   7.958  1.00  0.00    -0.390 OA
ATOM     19  H4  UNL     1      -9.821  25.557   7.067  1.00  0.00     0.210 HD
ENDBRANCH   5  18
BRANCH   6  20
HETATM   20  O5  UNL     1     -11.397  26.407  10.803  1.00  0.00    -0.390 OA
ATOM     21  H5  UNL     1     -10.654  25.920  11.139  1.00  0.00     0.210 HD
ENDBRANCH   6  20
TORSDOF 6
ENDMDL