MODEL 5
REMARK VINA RESULT: -4.051464126      2.908      5.330
REMARK  7 active torsions:
REMARK  status: ('A' for Active; 'I' for Inactive)
REMARK    1  A    between atoms: C3_4  and  C4_5
REMARK    2  A    between atoms: C4_5  and  O2_6
REMARK    3  A    between atoms: C5_8  and  C6_9
REMARK    4  A    between atoms: C6_9  and  O3_10
REMARK    5  A    between atoms: C7_13  and  O5_14
REMARK    6  A    between atoms: C7_13  and  O6_16
REMARK    7  A    between atoms: O6_16  and  C8_17
ROOT
HETATM    1  C1  UNL     1      -9.596  24.917   8.470  1.00  0.00     0.048 C
HETATM    2  C2  UNL     1     -10.907  24.300   8.928  1.00  0.00     0.211 C
HETATM    3  O1  UNL     1     -11.955  25.145   8.963  1.00  0.00    -0.368 OA
HETATM    4  C3  UNL     1     -12.722  25.298   7.837  1.00  0.00     0.177 C
HETATM    5  C5  UNL     1     -12.957  23.980   7.208  1.00  0.00     0.182 C
HETATM    6  O4  UNL     1     -11.763  23.344   6.963  1.00  0.00    -0.321 OA
HETATM    7  C7  UNL     1     -11.142  23.003   8.142  1.00  0.00     0.308 C
ENDROOT
BRANCH   7   8
HETATM    8  O5  UNL     1     -11.864  22.172   8.963  1.00  0.00    -0.341 OA
ATOM      9  H5  UNL     1     -11.969  21.353   8.495  1.00  0.00     0.215 HD
ENDBRANCH   7   8
BRANCH   7  10
HETATM   10  O6  UNL     1      -9.882  22.465   7.971  1.00  0.00    -0.321 OA
BRANCH  10  11
HETATM   11  C8  UNL     1      -9.693  21.194   8.377  1.00  0.00     0.056 C
HETATM   12  C9  UNL     1      -8.241  20.828   8.015  1.00  0.00     0.045 C
HETATM   13  C10 UNL     1      -9.859  20.911   9.825  1.00  0.00     0.045 C
HETATM   14  C11 UNL     1     -10.541  20.177   7.611  1.00  0.00     0.045 C
ENDBRANCH  10  11
ENDBRANCH   7  10
BRANCH   5  15
HETATM   15  C6  UNL     1     -13.758  23.986   5.938  1.00  0.00     0.199 C
BRANCH  15  16
HETATM   16  O3  UNL     1     -14.924  23.250   6.007  1.00  0.00    -0.398 OA
ATOM     17  H3  UNL     1     -14.805  22.370   6.345  1.00  0.00     0.209 HD
ENDBRANCH  15  16
ENDBRANCH   5  15
BRANCH   4  18
HETATM   18  C4  UNL     1     -12.167  26.368   6.963  1.00  0.00     0.198 C
BRANCH  18  19
HETATM   19  O2  UNL     1     -13.047  27.352   6.596  1.00  0.00    -0.398 OA
ATOM     20  H2  UNL     1     -13.564  27.175   5.819  1.00  0.00     0.209 HD
ENDBRANCH  18  19
ENDBRANCH   4  18
TORSDOF 7
ENDMDL