MODEL 2
REMARK VINA RESULT: -6.145854470      0.085      1.143
REMARK  5 active torsions:
REMARK  status: ('A' for Active; 'I' for Inactive)
REMARK    1  A    between atoms: O1_1  and  N1_3
REMARK    2  A    between atoms: C3_8  and  O3_9
REMARK    3  A    between atoms: O3_9  and  C4_10
REMARK    4  A    between atoms: C10_16  and  O4_17
REMARK    5  A    between atoms: C11_19  and  O5_20
ROOT
HETATM    1  N1  UNL     1     -15.277  25.144   3.607  1.00  0.00    -0.273 N
ATOM      2  H1  UNL     1     -15.319  25.972   3.013  1.00  0.00     0.193 HD
HETATM    3  C1  UNL     1     -14.451  25.103   4.619  1.00  0.00     0.064 C
HETATM    4  C2  UNL     1     -14.389  23.915   5.473  1.00  0.00     0.228 C
HETATM    5  O2  UNL     1     -14.051  24.301   6.757  1.00  0.00    -0.352 OA
HETATM    6  C3  UNL     1     -12.842  24.982   6.818  1.00  0.00     0.298 C
HETATM    7  C10 UNL     1     -12.887  26.316   6.126  1.00  0.00     0.208 C
HETATM    8  C11 UNL     1     -13.615  26.305   4.827  1.00  0.00     0.201 C
ENDROOT
BRANCH   6   9
HETATM    9  O3  UNL     1     -11.767  24.232   6.333  1.00  0.00    -0.318 OA
BRANCH   9  10
HETATM   10  C4  UNL     1     -10.874  23.499   7.039  1.00  0.00     0.072 A
HETATM   11  C5  UNL     1      -9.586  24.033   7.209  1.00  0.00     0.037 A
HETATM   12  C6  UNL     1      -8.627  23.344   7.916  1.00  0.00     0.003 A
HETATM   13  C7  UNL     1      -8.888  22.114   8.482  1.00  0.00     0.000 A
HETATM   14  C8  UNL     1     -10.136  21.569   8.332  1.00  0.00     0.003 A
HETATM   15  C9  UNL     1     -11.089  22.287   7.612  1.00  0.00     0.037 A
ENDBRANCH   9  10
ENDBRANCH   6   9
BRANCH   7  16
HETATM   16  O4  UNL     1     -13.474  27.261   6.974  1.00  0.00    -0.388 OA
ATOM     17  H4  UNL     1     -13.335  28.131   6.621  1.00  0.00     0.210 HD
ENDBRANCH   7  16
BRANCH   8  18
HETATM   18  O5  UNL     1     -14.449  27.417   4.722  1.00  0.00    -0.387 OA
ATOM     19  H5  UNL     1     -14.032  28.031   4.129  1.00  0.00     0.210 HD
ENDBRANCH   8  18
BRANCH   1  20
HETATM   20  O1  UNL     1     -16.092  24.062   3.345  1.00  0.00    -0.290 OA
ATOM     21  H1  UNL     1     -15.786  23.368   2.772  1.00  0.00     0.244 HD
ENDBRANCH   1  20
TORSDOF 5
ENDMDL