MODEL 5
REMARK VINA RESULT: -4.562903280      3.553      6.051
REMARK  6 active torsions:
REMARK  status: ('A' for Active; 'I' for Inactive)
REMARK    1  A    between atoms: O1_1  and  C1_3
REMARK    2  A    between atoms: C2_5  and  O3_6
REMARK    3  A    between atoms: O3_6  and  C3_7
REMARK    4  A    between atoms: C7_12  and  O4_13
REMARK    5  A    between atoms: C8_15  and  O5_16
REMARK    6  A    between atoms: C9_18  and  O6_19
ROOT
HETATM    1  C1  UNL     1     -13.399  26.964   9.873  1.00  0.00     0.291 C
HETATM    2  O2  UNL     1     -13.377  27.310   8.511  1.00  0.00    -0.326 OA
HETATM    3  C2  UNL     1     -12.402  26.569   7.835  1.00  0.00     0.300 C
HETATM    4  C7  UNL     1     -11.016  26.872   8.371  1.00  0.00     0.205 C
HETATM    5  C8  UNL     1     -10.965  26.965   9.859  1.00  0.00     0.185 C
HETATM    6  C9  UNL     1     -12.164  27.601  10.483  1.00  0.00     0.204 C
ENDROOT
BRANCH   3   7
HETATM    7  O3  UNL     1     -12.455  26.959   6.509  1.00  0.00    -0.317 OA
BRANCH   7   8
HETATM    8  C3  UNL     1     -13.400  26.415   5.619  1.00  0.00     0.079 A
HETATM    9  C4  UNL     1     -13.653  25.112   5.429  1.00  0.00     0.044 A
HETATM   10  C5  UNL     1     -14.615  24.771   4.513  1.00  0.00     0.052 A
HETATM   11  S1  UNL     1     -15.145  26.285   3.939  1.00  0.00    -0.111 SA
HETATM   12  C6  UNL     1     -14.149  27.300   4.859  1.00  0.00     0.086 A
ENDBRANCH   7   8
ENDBRANCH   3   7
BRANCH   4  13
HETATM   13  O4  UNL     1     -10.489  28.007   7.767  1.00  0.00    -0.388 OA
ATOM     14  H4  UNL     1     -10.368  28.704   8.401  1.00  0.00     0.210 HD
ENDBRANCH   4  13
BRANCH   1  15
HETATM   15  O1  UNL     1     -14.514  27.547  10.461  1.00  0.00    -0.368 OA
ATOM     16  H1  UNL     1     -14.322  28.461  10.637  1.00  0.00     0.212 HD
ENDBRANCH   1  15
BRANCH   5  17
HETATM   17  O5  UNL     1     -10.695  25.731  10.461  1.00  0.00    -0.390 OA
ATOM     18  H5  UNL     1     -11.175  25.018  10.057  1.00  0.00     0.210 HD
ENDBRANCH   5  17
BRANCH   6  19
HETATM   19  O6  UNL     1     -12.132  27.397  11.858  1.00  0.00    -0.388 OA
ATOM     20  H6  UNL     1     -12.955  27.654  12.256  1.00  0.00     0.210 HD
ENDBRANCH   6  19
TORSDOF 6
ENDMDL