MODEL 2
REMARK VINA RESULT: -4.879261984      3.611      4.847
REMARK  6 active torsions:
REMARK  status: ('A' for Active; 'I' for Inactive)
REMARK    1  A    between atoms: C2_2  and  O1_5
REMARK    2  A    between atoms: O1_5  and  C4_6
REMARK    3  A    between atoms: C4_6  and  O2_7
REMARK    4  A    between atoms: C5_10  and  N2_11
REMARK    5  A    between atoms: C10_16  and  O4_17
REMARK    6  A    between atoms: C11_19  and  O5_20
ROOT
HETATM    1  C1  UNL     1     -15.557  25.063   3.894  1.00  0.00     0.055 C
HETATM    2  C2  UNL     1     -14.738  26.036   4.762  1.00  0.00     0.229 C
HETATM    3  C3  UNL     1     -14.601  27.255   3.928  1.00  0.00     0.091 C
HETATM    4  N1  UNL     1     -14.478  28.209   3.285  1.00  0.00    -0.195 NA
ENDROOT
BRANCH   2   5
HETATM    5  O1  UNL     1     -13.564  25.467   5.013  1.00  0.00    -0.311 OA
BRANCH   5   6
HETATM    6  C4  UNL     1     -13.089  25.234   6.219  1.00  0.00     0.313 C
HETATM    7  O3  UNL     1     -11.779  24.731   6.299  1.00  0.00    -0.302 OA
HETATM    8  C5  UNL     1     -11.730  24.406   7.661  1.00  0.00     0.264 C
HETATM    9  C10 UNL     1     -12.364  25.589   8.388  1.00  0.00     0.204 C
HETATM   10  C11 UNL     1     -13.034  26.328   7.226  1.00  0.00     0.244 C
BRANCH   6  11
HETATM   11  O2  UNL     1     -13.887  24.211   6.798  1.00  0.00    -0.341 OA
ATOM     12  H2  UNL     1     -13.612  23.387   6.415  1.00  0.00     0.215 HD
ENDBRANCH   6  11
BRANCH   8  13
HETATM   13  N2  UNL     1     -10.389  24.150   8.115  1.00  0.00    -0.337 N
HETATM   14  C6  UNL     1     -10.055  23.368   9.158  1.00  0.00     0.093 A
HETATM   15  C7  UNL     1      -8.685  23.347   9.310  1.00  0.00     0.019 A
HETATM   16  C8  UNL     1      -8.166  24.146   8.322  1.00  0.00     0.019 A
HETATM   17  C9  UNL     1      -9.227  24.629   7.599  1.00  0.00     0.093 A
ENDBRANCH   8  13
BRANCH   9  18
HETATM   18  O4  UNL     1     -11.342  26.321   8.949  1.00  0.00    -0.388 OA
ATOM     19  H4  UNL     1     -11.695  27.175   9.172  1.00  0.00     0.210 HD
ENDBRANCH   9  18
BRANCH  10  20
HETATM   20  O5  UNL     1     -12.193  27.367   6.911  1.00  0.00    -0.385 OA
ATOM     21  H5  UNL     1     -12.064  28.004   7.604  1.00  0.00     0.210 HD
ENDBRANCH  10  20
ENDBRANCH   5   6
ENDBRANCH   2   5
TORSDOF 6
ENDMDL