MODEL 4
REMARK VINA RESULT: -5.153401743      1.019      1.054
REMARK  5 active torsions:
REMARK  status: ('A' for Active; 'I' for Inactive)
REMARK    1  A    between atoms: O1_1  and  C1_3
REMARK    2  A    between atoms: C3_8  and  O2_9
REMARK    3  A    between atoms: O2_9  and  C4_10
REMARK    4  A    between atoms: C4_10  and  C5_11
REMARK    5  A    between atoms: C8_20  and  O4_21
ROOT
HETATM    1  C1  UNL     1     -15.564  24.825   3.500  1.00  0.00     0.176 C
HETATM    2  C2  UNL     1     -15.533  26.356   3.448  1.00  0.00     0.269 C
HETATM    3  N1  UNL     1     -15.207  26.745   4.830  1.00  0.00    -0.044 N
ATOM      4  H11 UNL     1     -16.002  26.798   5.467  1.00  0.00     0.280 HD
ATOM      5  H12 UNL     1     -14.925  27.717   4.954  1.00  0.00     0.280 HD
HETATM    6  C3  UNL     1     -14.218  25.776   5.171  1.00  0.00     0.352 C
HETATM    7  C8  UNL     1     -14.832  24.478   4.780  1.00  0.00     0.205 C
ENDROOT
BRANCH   6   8
HETATM    8  O2  UNL     1     -13.772  25.836   6.471  1.00  0.00    -0.353 OA
BRANCH   8   9
HETATM    9  C4  UNL     1     -12.625  26.582   6.646  1.00  0.00     0.232 C
BRANCH   9  10
HETATM   10  C5  UNL     1     -12.861  27.509   7.828  1.00  0.00     0.347 C
HETATM   11  N2  UNL     1     -11.652  28.045   8.365  1.00  0.00    -0.030 N
HETATM   12  C6  UNL     1     -11.245  27.227   9.468  1.00  0.00     0.300 C
ATOM     13  H22 UNL     1     -10.920  28.146   7.661  1.00  0.00     0.281 HD
ATOM     14  H21 UNL     1     -11.737  29.030   8.618  1.00  0.00     0.281 HD
HETATM   15  S1  UNL     1     -11.793  27.838  11.104  1.00  0.00    -0.058 SA
HETATM   16  C7  UNL     1     -12.329  26.145   9.519  1.00  0.00     0.238 C
HETATM   17  S2  UNL     1     -12.685  25.923  11.288  1.00  0.00    -0.060 SA
HETATM   18  O3  UNL     1     -13.388  26.717   8.860  1.00  0.00    -0.338 OA
ENDBRANCH   9  10
ENDBRANCH   8   9
ENDBRANCH   6   8
BRANCH   7  19
HETATM   19  O4  UNL     1     -15.753  23.987   5.685  1.00  0.00    -0.389 OA
ATOM     20  H4  UNL     1     -16.622  24.096   5.315  1.00  0.00     0.210 HD
ENDBRANCH   7  19
BRANCH   1  21
HETATM   21  O1  UNL     1     -16.879  24.366   3.547  1.00  0.00    -0.391 OA
ATOM     22  H1  UNL     1     -17.333  24.739   4.293  1.00  0.00     0.210 HD
ENDBRANCH   1  21
TORSDOF 5
ENDMDL