MODEL 5
REMARK VINA RESULT: -5.138725240      1.404      2.418
REMARK  6 active torsions:
REMARK  status: ('A' for Active; 'I' for Inactive)
REMARK    1  A    between atoms: C5_5  and  C6_6
REMARK    2  A    between atoms: N1_7  and  N2_9
REMARK    3  A    between atoms: N2_9  and  C7_11
REMARK    4  A    between atoms: C9_14  and  O2_15
REMARK    5  A    between atoms: C10_17  and  O3_18
REMARK    6  A    between atoms: C11_20  and  O4_21
ROOT
HETATM    1  C7  UNL     1     -13.418  28.719   9.455  1.00  0.00     0.154 C
HETATM    2  C8  UNL     1     -12.433  29.772   9.918  1.00  0.00     0.200 C
HETATM    3  O1  UNL     1     -13.017  30.351  11.059  1.00  0.00    -0.357 OA
HETATM    4  C9  UNL     1     -12.737  29.490  12.111  1.00  0.00     0.288 C
HETATM    5  C10 UNL     1     -13.100  28.076  11.861  1.00  0.00     0.204 C
HETATM    6  C11 UNL     1     -13.728  27.780  10.555  1.00  0.00     0.177 C
ENDROOT
BRANCH   1   7
HETATM    7  N2  UNL     1     -12.866  28.094   8.273  1.00  0.00    -0.327 N
ATOM      8  H2  UNL     1     -12.827  28.596   7.386  1.00  0.00     0.180 HD
BRANCH   7   9
HETATM    9  N1  UNL     1     -12.396  26.806   8.374  1.00  0.00    -0.313 N
HETATM   10  C6  UNL     1     -12.580  25.805   7.636  1.00  0.00     0.143 C
ATOM     11  H1  UNL     1     -11.797  26.634   9.182  1.00  0.00     0.185 HD
BRANCH  10  12
HETATM   12  C5  UNL     1     -13.391  25.799   6.431  1.00  0.00     0.092 A
HETATM   13  C4  UNL     1     -13.979  24.751   5.759  1.00  0.00     0.041 A
HETATM   14  C3  UNL     1     -14.657  25.257   4.651  1.00  0.00     0.035 A
HETATM   15  C2  UNL     1     -14.440  26.615   4.710  1.00  0.00     0.050 A
HETATM   16  C1  UNL     1     -14.977  27.607   3.718  1.00  0.00     0.076 C
HETATM   17  O5  UNL     1     -13.710  26.889   5.744  1.00  0.00    -0.314 OA
ENDBRANCH  10  12
ENDBRANCH   7   9
ENDBRANCH   1   7
BRANCH   6  18
HETATM   18  O4  UNL     1     -15.132  27.697  10.690  1.00  0.00    -0.391 OA
ATOM     19  H4  UNL     1     -15.393  26.792  10.567  1.00  0.00     0.210 HD
ENDBRANCH   6  18
BRANCH   5  20
HETATM   20  O3  UNL     1     -11.971  27.256  12.037  1.00  0.00    -0.388 OA
ATOM     21  H3  UNL     1     -12.124  26.644  12.746  1.00  0.00     0.210 HD
ENDBRANCH   5  20
BRANCH   4  22
HETATM   22  O2  UNL     1     -11.350  29.603  12.349  1.00  0.00    -0.369 OA
ATOM     23  H2  UNL     1     -11.061  28.742  12.628  1.00  0.00     0.212 HD
ENDBRANCH   4  22
TORSDOF 6
ENDMDL