MODEL 1
REMARK VINA RESULT: -5.613330393      0.000      0.000
REMARK  7 active torsions:
REMARK  status: ('A' for Active; 'I' for Inactive)
REMARK    1  A    between atoms: C2_2  and  C3_3
REMARK    2  A    between atoms: C3_3  and  O1_5
REMARK    3  A    between atoms: O1_5  and  C5_6
REMARK    4  A    between atoms: C6_8  and  O3_9
REMARK    5  A    between atoms: C7_11  and  O4_12
REMARK    6  A    between atoms: C10_16  and  O5_17
REMARK    7  A    between atoms: C11_19  and  O6_20
ROOT
HETATM    1  C5  UNL     1     -13.352  25.929   6.444  1.00  0.00     0.300 C
HETATM    2  O2  UNL     1     -14.481  25.128   6.321  1.00  0.00    -0.326 OA
HETATM    3  C6  UNL     1     -14.426  24.280   5.220  1.00  0.00     0.289 C
HETATM    4  C7  UNL     1     -15.150  24.863   4.044  1.00  0.00     0.179 C
HETATM    5  C8  UNL     1     -15.478  26.304   4.374  1.00  0.00     0.046 C
HETATM    6  C9  UNL     1     -16.496  26.825   3.382  1.00  0.00     0.015 C
HETATM    7  C10 UNL     1     -14.207  27.073   4.360  1.00  0.00     0.158 C
HETATM    8  C11 UNL     1     -13.497  27.216   5.635  1.00  0.00     0.203 C
ENDROOT
BRANCH   1   9
HETATM    9  O1  UNL     1     -13.184  26.273   7.734  1.00  0.00    -0.319 OA
BRANCH   9  10
HETATM   10  C3  UNL     1     -12.374  26.324   8.773  1.00  0.00     0.062 C
HETATM   11  C4  UNL     1     -12.393  25.280   9.670  1.00  0.00     0.051 C
BRANCH  10  12
HETATM   12  C2  UNL     1     -11.445  27.381   9.079  1.00  0.00     0.026 C
HETATM   13  C1  UNL     1     -10.760  28.048   8.189  1.00  0.00     0.014 C
ENDBRANCH  10  12
ENDBRANCH   9  10
ENDBRANCH   1   9
BRANCH   8  14
HETATM   14  O6  UNL     1     -14.086  28.223   6.399  1.00  0.00    -0.388 OA
ATOM     15  H6  UNL     1     -15.027  28.106   6.450  1.00  0.00     0.210 HD
ENDBRANCH   8  14
BRANCH   3  16
HETATM   16  O3  UNL     1     -15.093  23.100   5.585  1.00  0.00    -0.368 OA
ATOM     17  H3  UNL     1     -15.815  23.356   6.147  1.00  0.00     0.212 HD
ENDBRANCH   3  16
BRANCH   7  18
HETATM   18  O5  UNL     1     -14.494  28.343   3.832  1.00  0.00    -0.392 OA
ATOM     19  H5  UNL     1     -13.723  28.631   3.357  1.00  0.00     0.210 HD
ENDBRANCH   7  18
BRANCH   4  20
HETATM   20  O4  UNL     1     -16.281  24.140   3.685  1.00  0.00    -0.390 OA
ATOM     21  H4  UNL     1     -16.104  23.460   3.046  1.00  0.00     0.210 HD
ENDBRANCH   4  20
TORSDOF 7
ENDMDL