MODEL 3
REMARK VINA RESULT: -4.154468832      7.181      8.618
REMARK  10 active torsions:
REMARK  status: ('A' for Active; 'I' for Inactive)
REMARK    1  A    between atoms: C2_2  and  C4_4
REMARK    2  A    between atoms: C4_4  and  N1_5
REMARK    3  A    between atoms: N1_5  and  N2_7
REMARK    4  A    between atoms: N2_7  and  N3_8
REMARK    5  A    between atoms: C5_11  and  O1_12
REMARK    6  A    between atoms: C6_14  and  O2_15
REMARK    7  A    between atoms: C7_17  and  O3_18
REMARK    8  A    between atoms: C8_20  and  C9_21
REMARK    9  A    between atoms: C9_21  and  O4_22
REMARK   10  A    between atoms: N4_24  and  O5_26
ROOT
HETATM    1  C4  UNL     1     -12.109  27.827   9.185  1.00  0.00     0.104 C
HETATM    2  C5  UNL     1     -12.355  26.447   9.747  1.00  0.00     0.181 C
HETATM    3  C6  UNL     1     -13.187  26.588  10.992  1.00  0.00     0.179 C
HETATM    4  C7  UNL     1     -13.792  27.971  10.941  1.00  0.00     0.164 C
HETATM    5  C8  UNL     1     -12.831  28.784  10.060  1.00  0.00     0.127 C
ENDROOT
BRANCH   1   6
HETATM    6  C2  UNL     1     -10.608  28.055   9.173  1.00  0.00     0.012 C
HETATM    7  C1  UNL     1     -10.134  29.009  10.213  1.00  0.00     0.012 C
HETATM    8  C3  UNL     1     -10.116  28.499   7.813  1.00  0.00     0.012 C
ENDBRANCH   1   6
BRANCH   1   9
HETATM    9  N1  UNL     1     -12.530  27.859   7.797  1.00  0.00    -0.239 N
ATOM     10  H1  UNL     1     -12.402  28.730   7.282  1.00  0.00     0.198 HD
BRANCH   9  11
HETATM   11  N2  UNL     1     -13.024  26.919   7.208  1.00  0.00    -0.248 NA
BRANCH  11  12
HETATM   12  N3  UNL     1     -13.370  26.055   6.402  1.00  0.00    -0.261 N
ATOM     13  H32 UNL     1     -12.468  25.584   6.483  1.00  0.00     0.193 HD
ATOM     14  H31 UNL     1     -13.850  25.457   5.729  1.00  0.00     0.193 HD
ENDBRANCH  11  12
ENDBRANCH   9  11
ENDBRANCH   1   9
BRANCH   2  15
HETATM   15  O1  UNL     1     -11.157  25.839  10.119  1.00  0.00    -0.390 OA
ATOM     16  H1  UNL     1     -10.727  26.327  10.812  1.00  0.00     0.210 HD
ENDBRANCH   2  15
BRANCH   5  17
HETATM   17  C9  UNL     1     -13.681  29.747   9.339  1.00  0.00     0.144 C
HETATM   18  N4  UNL     1     -13.553  30.993   9.586  1.00  0.00    -0.251 N
ATOM     19  H4  UNL     1     -14.159  31.625   9.064  1.00  0.00     0.196 HD
BRANCH  17  20
HETATM   20  O4  UNL     1     -14.607  29.343   8.407  1.00  0.00    -0.348 OA
ATOM     21  H4  UNL     1     -15.334  29.897   8.147  1.00  0.00     0.219 HD
ENDBRANCH  17  20
BRANCH  18  22
HETATM   22  O5  UNL     1     -12.700  31.563  10.467  1.00  0.00    -0.288 OA
ATOM     23  H5  UNL     1     -12.687  32.473  10.743  1.00  0.00     0.244 HD
ENDBRANCH  18  22
ENDBRANCH   5  17
BRANCH   3  24
HETATM   24  O2  UNL     1     -14.180  25.610  11.081  1.00  0.00    -0.390 OA
ATOM     25  H2  UNL     1     -15.001  25.957  11.409  1.00  0.00     0.210 HD
ENDBRANCH   3  24
BRANCH   4  26
HETATM   26  O3  UNL     1     -15.062  27.915  10.399  1.00  0.00    -0.392 OA
ATOM     27  H3  UNL     1     -15.660  27.500  11.009  1.00  0.00     0.210 HD
ENDBRANCH   4  26
TORSDOF 10
ENDMDL