MODEL 2
REMARK VINA RESULT: -5.942798257      2.043      3.425
REMARK  7 active torsions:
REMARK  status: ('A' for Active; 'I' for Inactive)
REMARK    1  A    between atoms: O1_1  and  C1_3
REMARK    2  A    between atoms: C1_3  and  C2_4
REMARK    3  A    between atoms: C3_6  and  C4_7
REMARK    4  A    between atoms: C4_7  and  O3_8
REMARK    5  A    between atoms: C4_7  and  C5_10
REMARK    6  A    between atoms: N1_17  and  O5_19
REMARK    7  A    between atoms: C11_21  and  O6_22
ROOT
HETATM    1  C2  UNL     1     -14.474  27.498   4.131  1.00  0.00     0.180 C
HETATM    2  O2  UNL     1     -13.435  27.668   5.015  1.00  0.00    -0.372 OA
HETATM    3  C3  UNL     1     -13.591  26.980   6.206  1.00  0.00     0.158 C
HETATM    4  C9  UNL     1     -13.568  25.490   5.879  1.00  0.00     0.092 C
HETATM    5  C10 UNL     1     -14.618  25.182   4.847  1.00  0.00     0.043 C
HETATM    6  N1  UNL     1     -15.455  24.233   5.009  1.00  0.00    -0.275 N
ATOM      7  H1  UNL     1     -16.160  24.039   4.299  1.00  0.00     0.193 HD
HETATM    8  C11 UNL     1     -14.604  26.058   3.645  1.00  0.00     0.196 C
ENDROOT
BRANCH   3   9
HETATM    9  C4  UNL     1     -12.369  27.249   7.050  1.00  0.00     0.176 C
BRANCH   9  10
HETATM   10  O3  UNL     1     -11.718  26.004   7.214  1.00  0.00    -0.390 OA
ATOM     11  H3  UNL     1     -10.996  26.158   7.813  1.00  0.00     0.210 HD
ENDBRANCH   9  10
BRANCH   9  12
HETATM   12  C5  UNL     1     -12.725  27.718   8.442  1.00  0.00     0.152 C
HETATM   13  C6  UNL     1     -11.593  28.653   8.879  1.00  0.00     0.036 C
HETATM   14  C7  UNL     1     -12.348  29.588   9.787  1.00  0.00     0.029 C
HETATM   15  C8  UNL     1     -13.714  29.598   9.151  1.00  0.00     0.168 C
HETATM   16  O4  UNL     1     -13.867  28.459   8.418  1.00  0.00    -0.383 OA
ENDBRANCH   9  12
ENDBRANCH   3   9
BRANCH   1  17
HETATM   17  C1  UNL     1     -14.139  28.323   2.889  1.00  0.00     0.199 C
BRANCH  17  18
HETATM   18  O1  UNL     1     -15.312  28.604   2.165  1.00  0.00    -0.398 OA
ATOM     19  H1  UNL     1     -15.094  29.013   1.336  1.00  0.00     0.209 HD
ENDBRANCH  17  18
ENDBRANCH   1  17
BRANCH   8  20
HETATM   20  O6  UNL     1     -15.817  25.938   2.976  1.00  0.00    -0.387 OA
ATOM     21  H6  UNL     1     -15.761  25.187   2.397  1.00  0.00     0.210 HD
ENDBRANCH   8  20
BRANCH   6  22
HETATM   22  O5  UNL     1     -15.392  23.482   6.147  1.00  0.00    -0.290 OA
ATOM     23  H5  UNL     1     -15.810  22.628   6.160  1.00  0.00     0.244 HD
ENDBRANCH   6  22
TORSDOF 7
ENDMDL