MODEL 4
REMARK VINA RESULT: -5.545109501      2.158      2.811
REMARK  6 active torsions:
REMARK  status: ('A' for Active; 'I' for Inactive)
REMARK    1  A    between atoms: O1_1  and  C1_3
REMARK    2  A    between atoms: C1_3  and  C2_4
REMARK    3  A    between atoms: C3_6  and  O3_7
REMARK    4  A    between atoms: C4_9  and  O4_10
REMARK    5  A    between atoms: C5_12  and  N1_13
REMARK    6  A    between atoms: N1_13  and  C6_15
ROOT
HETATM    1  C2  UNL     1     -14.926  27.399   4.798  1.00  0.00     0.289 C
HETATM    2  O2  UNL     1     -15.511  26.179   4.832  1.00  0.00    -0.327 OA
HETATM    3  C3  UNL     1     -14.689  25.106   5.012  1.00  0.00     0.292 C
HETATM    4  C4  UNL     1     -13.873  25.358   6.263  1.00  0.00     0.221 C
HETATM    5  C5  UNL     1     -13.096  26.625   6.010  1.00  0.00     0.258 C
HETATM    6  O5  UNL     1     -13.913  27.667   5.641  1.00  0.00    -0.332 OA
ENDROOT
BRANCH   5   7
HETATM    7  N1  UNL     1     -12.287  26.918   7.169  1.00  0.00    -0.361 N
ATOM      8  H1  UNL     1     -11.274  26.861   7.064  1.00  0.00     0.162 HD
BRANCH   7   9
HETATM    9  C6  UNL     1     -12.793  27.275   8.430  1.00  0.00     0.029 A
HETATM   10  C7  UNL     1     -13.269  28.537   8.647  1.00  0.00     0.029 A
HETATM   11  C8  UNL     1     -13.773  28.908   9.873  1.00  0.00     0.002 A
HETATM   12  C9  UNL     1     -13.795  27.980  10.902  1.00  0.00     0.000 A
HETATM   13  C10 UNL     1     -13.317  26.724  10.673  1.00  0.00     0.002 A
HETATM   14  C11 UNL     1     -12.811  26.355   9.440  1.00  0.00     0.029 A
ENDBRANCH   7   9
ENDBRANCH   5   7
BRANCH   4  15
HETATM   15  O4  UNL     1     -13.070  24.299   6.595  1.00  0.00    -0.386 OA
ATOM     16  H4  UNL     1     -13.564  23.517   6.810  1.00  0.00     0.210 HD
ENDBRANCH   4  15
BRANCH   3  17
HETATM   17  O3  UNL     1     -15.467  23.969   5.173  1.00  0.00    -0.368 OA
ATOM     18  H3  UNL     1     -15.532  23.772   6.100  1.00  0.00     0.212 HD
ENDBRANCH   3  17
BRANCH   1  19
HETATM   19  C1  UNL     1     -14.409  27.623   3.370  1.00  0.00     0.225 C
BRANCH  19  20
HETATM   20  O1  UNL     1     -15.320  28.286   2.584  1.00  0.00    -0.396 OA
ATOM     21  H1  UNL     1     -15.387  27.909   1.715  1.00  0.00     0.209 HD
ENDBRANCH  19  20
ENDBRANCH   1  19
TORSDOF 6
ENDMDL