MODEL 4
REMARK VINA RESULT: -4.121456647      2.791      5.041
REMARK  8 active torsions:
REMARK  status: ('A' for Active; 'I' for Inactive)
REMARK    1  A    between atoms: O1_2  and  C2_3
REMARK    2  A    between atoms: C3_5  and  C4_6
REMARK    3  A    between atoms: N1_8  and  O3_10
REMARK    4  A    between atoms: C6_12  and  N2_13
REMARK    5  A    between atoms: N2_13  and  N3_15
REMARK    6  A    between atoms: N3_15  and  N4_16
REMARK    7  A    between atoms: C7_19  and  O4_20
REMARK    8  A    between atoms: C8_22  and  O5_23
ROOT
HETATM    1  C2  UNL     1     -13.095  26.686   6.974  1.00  0.00     0.291 C
HETATM    2  O2  UNL     1     -13.636  27.448   5.957  1.00  0.00    -0.345 OA
HETATM    3  C3  UNL     1     -13.761  26.788   4.754  1.00  0.00     0.199 C
HETATM    4  C6  UNL     1     -14.466  25.480   4.835  1.00  0.00     0.180 C
HETATM    5  C7  UNL     1     -13.917  24.568   5.906  1.00  0.00     0.179 C
HETATM    6  C8  UNL     1     -13.825  25.375   7.177  1.00  0.00     0.204 C
ENDROOT
BRANCH   3   7
HETATM    7  C4  UNL     1     -14.519  27.664   3.823  1.00  0.00     0.037 C
HETATM    8  C5  UNL     1     -15.999  27.805   3.883  1.00  0.00     0.068 C
HETATM    9  N1  UNL     1     -13.917  28.351   2.909  1.00  0.00    -0.275 N
ATOM     10  H1  UNL     1     -12.902  28.271   2.849  1.00  0.00     0.193 HD
BRANCH   9  11
HETATM   11  O3  UNL     1     -14.535  29.166   2.031  1.00  0.00    -0.290 OA
ATOM     12  H3  UNL     1     -14.770  30.069   2.205  1.00  0.00     0.244 HD
ENDBRANCH   9  11
ENDBRANCH   3   7
BRANCH   4  13
HETATM   13  N2  UNL     1     -14.519  24.873   3.540  1.00  0.00    -0.242 N
ATOM     14  H2  UNL     1     -13.670  24.778   2.983  1.00  0.00     0.197 HD
BRANCH  13  15
HETATM   15  N3  UNL     1     -15.598  24.466   3.100  1.00  0.00    -0.248 NA
BRANCH  15  16
HETATM   16  N4  UNL     1     -16.663  24.282   2.519  1.00  0.00    -0.261 N
ATOM     17  H42 UNL     1     -16.362  24.874   1.744  1.00  0.00     0.193 HD
ATOM     18  H41 UNL     1     -17.595  24.005   2.211  1.00  0.00     0.193 HD
ENDBRANCH  15  16
ENDBRANCH  13  15
ENDBRANCH   4  13
BRANCH   1  19
HETATM   19  O1  UNL     1     -11.732  26.473   6.825  1.00  0.00    -0.363 OA
HETATM   20  C1  UNL     1     -11.029  27.295   7.694  1.00  0.00     0.204 C
ENDBRANCH   1  19
BRANCH   5  21
HETATM   21  O4  UNL     1     -14.836  23.544   6.087  1.00  0.00    -0.391 OA
ATOM     22  H4  UNL     1     -14.377  22.821   6.498  1.00  0.00     0.210 HD
ENDBRANCH   5  21
BRANCH   6  23
HETATM   23  O5  UNL     1     -13.078  24.628   8.094  1.00  0.00    -0.388 OA
ATOM     24  H5  UNL     1     -13.281  24.964   8.959  1.00  0.00     0.210 HD
ENDBRANCH   6  23
TORSDOF 8
ENDMDL