MODEL 2
REMARK VINA RESULT: -8.296794028      1.736      2.424
REMARK  6 active torsions:
REMARK  status: ('A' for Active; 'I' for Inactive)
REMARK    1  A    between atoms: O1_2  and  C2_3
REMARK    2  A    between atoms: C2_3  and  C3_5
REMARK    3  A    between atoms: C10_13  and  C11_14
REMARK    4  A    between atoms: C11_14  and  O3_15
REMARK    5  A    between atoms: O3_15  and  C12_16
REMARK    6  A    between atoms: C12_16  and  C13_18
ROOT
HETATM    1  C3  UNL     1     -27.458  25.107  -5.579  1.00  0.00     0.146 C
HETATM    2  C4  UNL     1     -27.420  26.060  -4.502  1.00  0.00     0.080 C
HETATM    3  N1  UNL     1     -27.385  26.841  -3.650  1.00  0.00    -0.196 NA
HETATM    4  C5  UNL     1     -28.112  23.848  -5.102  1.00  0.00     0.019 C
HETATM    5  C6  UNL     1     -27.655  23.585  -3.687  1.00  0.00     0.007 C
HETATM    6  C7  UNL     1     -26.142  23.426  -3.904  1.00  0.00     0.005 C
HETATM    7  C8  UNL     1     -25.913  23.372  -5.379  1.00  0.00    -0.006 C
HETATM    8  C9  UNL     1     -27.270  22.777  -5.822  1.00  0.00     0.012 C
HETATM    9  C10 UNL     1     -26.041  24.710  -6.018  1.00  0.00     0.047 C
ENDROOT
BRANCH   1  10
HETATM   10  C2  UNL     1     -28.256  25.613  -6.746  1.00  0.00     0.282 C
HETATM   11  O2  UNL     1     -28.072  25.110  -7.898  1.00  0.00    -0.263 OA
BRANCH  10  12
HETATM   12  O1  UNL     1     -29.181  26.616  -6.571  1.00  0.00    -0.325 OA
HETATM   13  C1  UNL     1     -29.867  27.118  -7.699  1.00  0.00     0.213 C
ENDBRANCH  10  12
ENDBRANCH   1  10
BRANCH   9  14
HETATM   14  C11 UNL     1     -25.025  25.720  -5.667  1.00  0.00     0.186 C
BRANCH  14  15
HETATM   15  O3  UNL     1     -23.788  25.460  -6.275  1.00  0.00    -0.320 OA
BRANCH  15  16
HETATM   16  C12 UNL     1     -23.498  25.608  -7.598  1.00  0.00     0.269 C
HETATM   17  O4  UNL     1     -23.199  26.754  -8.022  1.00  0.00    -0.264 OA
BRANCH  16  18
HETATM   18  C13 UNL     1     -23.508  24.493  -8.579  1.00  0.00     0.071 C
HETATM   19  C14 UNL     1     -23.150  23.225  -7.896  1.00  0.00     0.028 C
HETATM   20  C15 UNL     1     -24.864  24.484  -9.234  1.00  0.00     0.022 C
HETATM   21  C16 UNL     1     -25.275  23.133  -9.678  1.00  0.00     0.012 C
HETATM   22  C17 UNL     1     -24.500  22.528 -10.772  1.00  0.00    -0.011 A
HETATM   23  C18 UNL     1     -24.446  20.993 -10.737  1.00  0.00     0.017 C
HETATM   24  C19 UNL     1     -24.644  23.052 -12.192  1.00  0.00     0.048 A
HETATM   25  C20 UNL     1     -23.372  23.202 -11.330  1.00  0.00     0.231 A
HETATM   26  N2  UNL     1     -23.076  24.536 -10.984  1.00  0.00     0.090 N
HETATM   27  C21 UNL     1     -22.162  25.087 -11.976  1.00  0.00     0.310 C
HETATM   28  C22 UNL     1     -22.488  24.728  -9.690  1.00  0.00     0.291 C
ENDBRANCH  16  18
ENDBRANCH  15  16
ENDBRANCH  14  15
ENDBRANCH   9  14
TORSDOF 6
ENDMDL