MODEL 3
REMARK VINA RESULT: -7.066495639      1.962      2.654
REMARK  5 active torsions:
REMARK  status: ('A' for Active; 'I' for Inactive)
REMARK    1  A    between atoms: O1_2  and  C2_3
REMARK    2  A    between atoms: C2_3  and  C3_5
REMARK    3  A    between atoms: C5_8  and  S2_9
REMARK    4  A    between atoms: S2_9  and  N1_12
REMARK    5  A    between atoms: N2_15  and  C8_16
ROOT
HETATM    1  S2  UNL     1     -24.762  25.318  -6.721  1.00  0.00     0.244 S
HETATM    2  O3  UNL     1     -24.285  26.706  -7.039  1.00  0.00    -0.206 OA
HETATM    3  O4  UNL     1     -26.206  25.299  -7.236  1.00  0.00    -0.206 OA
ENDROOT
BRANCH   1   4
HETATM    4  C5  UNL     1     -24.812  25.044  -4.960  1.00  0.00     0.088 A
HETATM    5  C4  UNL     1     -23.585  24.996  -4.292  1.00  0.00     0.075 A
HETATM    6  S1  UNL     1     -24.016  24.743  -2.674  1.00  0.00    -0.094 SA
HETATM    7  C3  UNL     1     -25.712  24.700  -2.838  1.00  0.00     0.087 A
HETATM    8  C16 UNL     1     -25.898  24.887  -4.188  1.00  0.00    -0.015 A
HETATM    9  C17 UNL     1     -27.322  24.898  -4.736  1.00  0.00     0.051 C
BRANCH   7  10
HETATM   10  C2  UNL     1     -26.680  24.548  -1.750  1.00  0.00     0.300 C
HETATM   11  O2  UNL     1     -27.296  23.423  -1.672  1.00  0.00    -0.259 OA
BRANCH  10  12
HETATM   12  O1  UNL     1     -26.990  25.464  -0.808  1.00  0.00    -0.322 OA
HETATM   13  C1  UNL     1     -27.020  25.128   0.555  1.00  0.00     0.213 C
ENDBRANCH  10  12
ENDBRANCH   7  10
ENDBRANCH   1   4
BRANCH   1  14
HETATM   14  N1  UNL     1     -23.890  24.193  -7.620  1.00  0.00    -0.203 NA
HETATM   15  C6  UNL     1     -23.970  22.823  -7.244  1.00  0.00     0.138 C
HETATM   16  C7  UNL     1     -25.141  22.062  -7.825  1.00  0.00     0.288 C
HETATM   17  N2  UNL     1     -25.268  22.262  -9.246  1.00  0.00     0.095 N
HETATM   18  C14 UNL     1     -24.184  23.075  -9.773  1.00  0.00     0.288 C
HETATM   19  C15 UNL     1     -24.155  24.374  -9.050  1.00  0.00     0.138 C
BRANCH  17  20
HETATM   20  C8  UNL     1     -25.415  21.030  -9.995  1.00  0.00     0.223 C
HETATM   21  C9  UNL     1     -25.590  19.809  -9.154  1.00  0.00     0.036 C
HETATM   22  C10 UNL     1     -25.866  18.640 -10.090  1.00  0.00     0.002 C
HETATM   23  C11 UNL     1     -24.795  18.450 -11.117  1.00  0.00     0.000 C
HETATM   24  C12 UNL     1     -24.380  19.712 -11.798  1.00  0.00     0.002 C
HETATM   25  C13 UNL     1     -24.179  20.871 -10.848  1.00  0.00     0.036 C
ENDBRANCH  17  20
ENDBRANCH   1  14
TORSDOF 5
ENDMDL