MODEL 4
REMARK VINA RESULT: -6.947630936      0.606      1.060
REMARK  6 active torsions:
REMARK  status: ('A' for Active; 'I' for Inactive)
REMARK    1  A    between atoms: C2_2  and  C3_3
REMARK    2  A    between atoms: C3_3  and  C4_4
REMARK    3  A    between atoms: C4_4  and  C5_5
REMARK       I    between atoms: C5_5  and  N1_7
REMARK    4  A    between atoms: C6_8  and  C7_9
REMARK    5  A    between atoms: C7_9  and  O3_11
REMARK    6  A    between atoms: O3_11  and  C8_12
ROOT
HETATM    1  C5  UNL     1     -24.313  24.613  -3.754  1.00  0.00     0.221 C
HETATM    2  O1  UNL     1     -23.644  25.386  -3.051  1.00  0.00    -0.273 OA
HETATM    3  N1  UNL     1     -23.691  23.428  -4.264  1.00  0.00    -0.331 N
HETATM    4  C6  UNL     1     -24.440  22.518  -5.088  1.00  0.00     0.188 C
HETATM    5  C12 UNL     1     -23.625  21.236  -5.026  1.00  0.00     0.044 C
HETATM    6  C13 UNL     1     -22.193  21.803  -5.041  1.00  0.00     0.038 C
HETATM    7  C14 UNL     1     -21.297  20.765  -4.415  1.00  0.00     0.197 C
HETATM    8  O4  UNL     1     -19.990  21.227  -4.286  1.00  0.00    -0.275 OA
HETATM    9  S1  UNL     1     -19.836  22.823  -4.725  1.00  0.00     0.275 S
HETATM   10  O5  UNL     1     -19.651  22.960  -6.197  1.00  0.00    -0.198 OA
HETATM   11  O6  UNL     1     -18.555  23.336  -4.082  1.00  0.00    -0.198 OA
HETATM   12  C15 UNL     1     -21.216  23.823  -4.127  1.00  0.00     0.103 C
HETATM   13  C16 UNL     1     -20.804  24.208  -2.694  1.00  0.00     0.036 C
HETATM   14  C17 UNL     1     -21.297  25.027  -4.987  1.00  0.00     0.036 C
HETATM   15  C18 UNL     1     -22.387  22.930  -4.061  1.00  0.00     0.119 C
ENDROOT
BRANCH   4  16
HETATM   16  C7  UNL     1     -24.715  22.929  -6.453  1.00  0.00     0.282 C
HETATM   17  O2  UNL     1     -25.154  22.008  -7.230  1.00  0.00    -0.263 OA
BRANCH  16  18
HETATM   18  O3  UNL     1     -24.576  24.158  -7.044  1.00  0.00    -0.310 OA
BRANCH  18  19
HETATM   19  C8  UNL     1     -23.722  24.475  -8.101  1.00  0.00     0.060 C
HETATM   20  C9  UNL     1     -24.530  24.329  -9.389  1.00  0.00     0.045 C
HETATM   21  C10 UNL     1     -22.480  23.606  -8.150  1.00  0.00     0.045 C
HETATM   22  C11 UNL     1     -23.286  25.919  -8.026  1.00  0.00     0.045 C
ENDBRANCH  18  19
ENDBRANCH  16  18
ENDBRANCH   4  16
BRANCH   1  23
HETATM   23  C4  UNL     1     -25.716  24.946  -4.030  1.00  0.00     0.103 C
BRANCH  23  24
HETATM   24  C3  UNL     1     -26.603  24.649  -2.809  1.00  0.00     0.009 C
BRANCH  24  25
HETATM   25  C2  UNL     1     -27.576  23.571  -3.256  1.00  0.00    -0.004 C
HETATM   26  C1  UNL     1     -27.898  23.801  -4.719  1.00  0.00     0.005 C
ENDBRANCH  24  25
ENDBRANCH  23  24
ENDBRANCH   1  23
TORSDOF 6
ENDMDL