MODEL 2
REMARK VINA RESULT: -8.169721669      3.312      5.450
REMARK  4 active torsions:
REMARK  status: ('A' for Active; 'I' for Inactive)
REMARK    1  A    between atoms: C2_2  and  C3_3
REMARK    2  A    between atoms: C2_2  and  C10_11
REMARK    3  A    between atoms: C3_3  and  C4_4
REMARK    4  A    between atoms: C4_4  and  N1_5
ROOT
HETATM    1  C10 UNL     1     -23.980  23.257  -7.763  1.00  0.00     0.098 C
HETATM    2  C11 UNL     1     -24.841  22.087  -7.584  1.00  0.00     0.264 C
HETATM    3  O1  UNL     1     -25.169  21.568  -8.722  1.00  0.00    -0.265 OA
HETATM    4  O2  UNL     1     -25.394  21.392  -6.550  1.00  0.00    -0.321 OA
HETATM    5  C12 UNL     1     -24.859  21.102  -5.306  1.00  0.00     0.179 C
HETATM    6  C13 UNL     1     -23.426  21.656  -5.209  1.00  0.00     0.042 C
HETATM    7  C14 UNL     1     -23.625  23.140  -5.287  1.00  0.00     0.097 C
HETATM    8  C15 UNL     1     -23.004  23.733  -4.108  1.00  0.00     0.265 C
HETATM    9  O3  UNL     1     -23.755  24.198  -3.194  1.00  0.00    -0.265 OA
HETATM   10  O4  UNL     1     -21.659  23.904  -3.763  1.00  0.00    -0.303 OA
HETATM   11  C16 UNL     1     -20.505  23.651  -4.486  1.00  0.00     0.123 C
HETATM   12  C17 UNL     1     -19.612  24.867  -4.619  1.00  0.00     0.055 C
HETATM   13  C18 UNL     1     -19.691  22.654  -3.643  1.00  0.00     0.055 C
HETATM   14  C19 UNL     1     -20.845  23.085  -5.811  1.00  0.00     0.162 C
HETATM   15  O5  UNL     1     -20.252  22.005  -5.997  1.00  0.00    -0.295 OA
HETATM   16  C20 UNL     1     -21.694  23.523  -6.881  1.00  0.00     0.092 C
HETATM   17  C21 UNL     1     -23.172  23.726  -6.620  1.00  0.00    -0.012 C
HETATM   18  C22 UNL     1     -23.274  25.237  -6.350  1.00  0.00     0.017 C
ENDROOT
BRANCH   1  19
HETATM   19  C2  UNL     1     -24.830  24.256  -8.509  1.00  0.00    -0.003 C
HETATM   20  C1  UNL     1     -24.444  24.635  -9.872  1.00  0.00     0.011 C
BRANCH  19  21
HETATM   21  C3  UNL     1     -26.277  24.316  -8.132  1.00  0.00     0.035 C
BRANCH  21  22
HETATM   22  C4  UNL     1     -26.495  25.085  -6.827  1.00  0.00     0.272 C
BRANCH  22  23
HETATM   23  N1  UNL     1     -27.845  25.158  -6.386  1.00  0.00     0.088 N
HETATM   24  C5  UNL     1     -27.880  26.216  -5.363  1.00  0.00     0.272 C
HETATM   25  C6  UNL     1     -26.995  25.922  -4.198  1.00  0.00     0.030 C
HETATM   26  C7  UNL     1     -27.280  24.602  -3.549  1.00  0.00     0.003 C
HETATM   27  C8  UNL     1     -27.312  23.534  -4.596  1.00  0.00     0.030 C
HETATM   28  C9  UNL     1     -28.210  23.888  -5.735  1.00  0.00     0.272 C
ENDBRANCH  22  23
ENDBRANCH  21  22
ENDBRANCH  19  21
ENDBRANCH   1  19
TORSDOF 4
ENDMDL