MODEL 2
REMARK VINA RESULT: -8.178912375      1.257      1.775
REMARK  7 active torsions:
REMARK  status: ('A' for Active; 'I' for Inactive)
REMARK    1  A    between atoms: O1_2  and  C2_3
REMARK    2  A    between atoms: C2_3  and  C3_5
REMARK    3  A    between atoms: C3_5  and  C4_6
REMARK    4  A    between atoms: C4_6  and  C5_7
REMARK    5  A    between atoms: C5_7  and  O3_8
REMARK    6  A    between atoms: C5_7  and  N1_10
REMARK    7  A    between atoms: N2_19  and  C13_20
ROOT
HETATM    1  C4  UNL     1     -26.378  24.294  -5.512  1.00  0.00     0.061 C
HETATM    2  C10 UNL     1     -26.451  22.807  -4.985  1.00  0.00     0.104 C
HETATM    3  C11 UNL     1     -25.899  22.010  -5.992  1.00  0.00    -0.162 C
HETATM    4  C12 UNL     1     -25.349  21.287  -7.075  1.00  0.00     0.203 C
HETATM    5  N2  UNL     1     -25.020  22.311  -8.113  1.00  0.00    -0.376 N
HETATM    6  C20 UNL     1     -25.116  23.641  -7.698  1.00  0.00     0.084 C
HETATM    7  C21 UNL     1     -26.222  24.298  -7.008  1.00  0.00     0.009 C
ENDROOT
BRANCH   1   8
HETATM    8  C3  UNL     1     -27.591  24.966  -5.049  1.00  0.00     0.134 C
BRANCH   8   9
HETATM    9  C2  UNL     1     -27.962  26.284  -5.534  1.00  0.00     0.259 C
HETATM   10  O2  UNL     1     -28.764  26.506  -6.439  1.00  0.00    -0.265 OA
BRANCH   9  11
HETATM   11  O1  UNL     1     -27.387  27.449  -4.960  1.00  0.00    -0.326 OA
HETATM   12  C1  UNL     1     -28.191  28.413  -4.326  1.00  0.00     0.213 C
ENDBRANCH   9  11
ENDBRANCH   8   9
ENDBRANCH   1   8
BRANCH   1  13
HETATM   13  C5  UNL     1     -25.209  24.905  -4.836  1.00  0.00     0.127 C
BRANCH  13  14
HETATM   14  O3  UNL     1     -25.482  25.388  -3.643  1.00  0.00    -0.349 OA
ATOM     15  H3  UNL     1     -24.729  25.422  -3.065  1.00  0.00     0.219 HD
ENDBRANCH  13  14
BRANCH  13  16
HETATM   16  N1  UNL     1     -23.901  25.067  -5.202  1.00  0.00    -0.360 N
HETATM   17  C6  UNL     1     -22.888  24.117  -4.651  1.00  0.00     0.151 C
HETATM   18  C7  UNL     1     -21.671  24.937  -4.360  1.00  0.00     0.187 C
HETATM   19  O4  UNL     1     -21.064  25.387  -5.527  1.00  0.00    -0.388 OA
HETATM   20  C8  UNL     1     -21.945  25.580  -6.559  1.00  0.00     0.187 C
HETATM   21  C9  UNL     1     -23.323  26.054  -6.042  1.00  0.00     0.151 C
ENDBRANCH  13  16
ENDBRANCH   1  13
BRANCH   5  22
HETATM   22  C13 UNL     1     -25.262  21.892  -9.406  1.00  0.00     0.089 C
HETATM   23  C14 UNL     1     -25.758  22.927 -10.399  1.00  0.00     0.051 C
HETATM   24  C15 UNL     1     -25.544  22.287 -11.775  1.00  0.00     0.171 C
HETATM   25  O5  UNL     1     -25.725  20.926 -11.766  1.00  0.00    -0.381 OA
HETATM   26  C16 UNL     1     -24.773  20.208 -11.082  1.00  0.00     0.055 C
HETATM   27  C17 UNL     1     -25.502  19.176 -10.220  1.00  0.00     0.045 C
HETATM   28  C18 UNL     1     -23.774  19.521 -11.944  1.00  0.00     0.045 C
HETATM   29  C19 UNL     1     -24.115  21.177 -10.085  1.00  0.00     0.062 C
ENDBRANCH   5  22
TORSDOF 7
ENDMDL