MODEL 2
REMARK VINA RESULT: -7.983741120      2.232      8.273
REMARK  4 active torsions:
REMARK  status: ('A' for Active; 'I' for Inactive)
REMARK    1  A    between atoms: C4_6  and  C5_7
REMARK    2  A    between atoms: C5_7  and  N2_8
REMARK    3  A    between atoms: N3_16  and  C12_17
REMARK    4  A    between atoms: C12_17  and  C13_18
ROOT
HETATM    1  N2  UNL     1     -23.771  24.867  -3.280  1.00  0.00    -0.381 N
HETATM    2  C6  UNL     1     -22.469  25.404  -3.427  1.00  0.00     0.148 C
HETATM    3  C7  UNL     1     -21.676  24.406  -4.285  1.00  0.00     0.189 C
HETATM    4  O1  UNL     1     -22.252  24.477  -5.525  1.00  0.00    -0.370 OA
HETATM    5  C8  UNL     1     -23.554  23.989  -5.598  1.00  0.00     0.118 C
HETATM    6  C9  UNL     1     -23.410  22.487  -5.839  1.00  0.00     0.051 C
HETATM    7  C10 UNL     1     -24.704  21.829  -6.180  1.00  0.00     0.048 C
HETATM    8  C11 UNL     1     -25.731  22.750  -6.752  1.00  0.00     0.064 C
HETATM    9  N3  UNL     1     -25.163  23.810  -7.446  1.00  0.00    -0.358 N
HETATM   10  C17 UNL     1     -24.132  24.581  -6.890  1.00  0.00     0.071 C
HETATM   11  C18 UNL     1     -24.467  26.031  -6.674  1.00  0.00     0.035 C
HETATM   12  C19 UNL     1     -23.150  26.457  -7.290  1.00  0.00     0.005 C
HETATM   13  C20 UNL     1     -23.027  25.035  -7.815  1.00  0.00     0.035 C
HETATM   14  C21 UNL     1     -24.380  24.267  -4.396  1.00  0.00     0.099 C
ENDROOT
BRANCH   9  15
HETATM   15  C12 UNL     1     -25.534  24.150  -8.739  1.00  0.00     0.096 C
BRANCH  15  16
HETATM   16  C13 UNL     1     -25.535  23.123  -9.811  1.00  0.00     0.160 C
HETATM   17  C14 UNL     1     -25.549  23.680 -11.218  1.00  0.00     0.039 C
HETATM   18  C15 UNL     1     -24.902  22.566 -12.012  1.00  0.00     0.029 C
HETATM   19  C16 UNL     1     -24.476  21.603 -10.922  1.00  0.00     0.168 C
HETATM   20  O2  UNL     1     -24.274  22.468  -9.856  1.00  0.00    -0.381 OA
ENDBRANCH  15  16
ENDBRANCH   9  15
BRANCH   1  21
HETATM   21  C5  UNL     1     -23.907  24.247  -2.011  1.00  0.00     0.198 C
BRANCH  21  22
HETATM   22  C4  UNL     1     -24.966  24.749  -1.140  1.00  0.00     0.099 A
HETATM   23  N1  UNL     1     -25.148  24.192   0.078  1.00  0.00    -0.354 N
HETATM   24  C3  UNL     1     -26.102  24.601   0.937  1.00  0.00     0.097 A
ATOM     25  H1  UNL     1     -24.535  23.427   0.360  1.00  0.00     0.166 HD
HETATM   26  C2  UNL     1     -26.937  25.626   0.580  1.00  0.00    -0.031 A
HETATM   27  C1  UNL     1     -28.003  26.108   1.501  1.00  0.00     0.051 C
HETATM   28  C22 UNL     1     -26.751  26.198  -0.669  1.00  0.00     0.097 A
HETATM   29  N4  UNL     1     -25.782  25.749  -1.486  1.00  0.00    -0.354 N
ATOM     30  H4  UNL     1     -25.667  26.185  -2.401  1.00  0.00     0.166 HD
ENDBRANCH  21  22
ENDBRANCH   1  21
TORSDOF 4
ENDMDL