MODEL 4
REMARK VINA RESULT: -8.002978781      2.210      6.695
REMARK  6 active torsions:
REMARK  status: ('A' for Active; 'I' for Inactive)
REMARK    1  A    between atoms: C13_15  and  C14_16
REMARK    2  A    between atoms: C13_15  and  C18_22
REMARK    3  A    between atoms: C14_16  and  C15_17
REMARK    4  A    between atoms: C15_17  and  O3_18
REMARK    5  A    between atoms: O3_18  and  C16_19
REMARK    6  A    between atoms: C18_22  and  O6_24
ROOT
HETATM    1  C1  UNL     1     -23.821  21.839 -11.305  1.00  0.00     0.025 C
HETATM    2  C2  UNL     1     -23.652  22.592 -10.258  1.00  0.00     0.014 C
HETATM    3  C3  UNL     1     -22.456  23.379  -9.867  1.00  0.00     0.289 C
HETATM    4  O1  UNL     1     -21.463  23.629 -10.597  1.00  0.00    -0.260 OA
HETATM    5  O2  UNL     1     -22.632  23.796  -8.529  1.00  0.00    -0.311 OA
HETATM    6  C4  UNL     1     -23.569  22.923  -8.000  1.00  0.00     0.146 C
HETATM    7  C5  UNL     1     -24.601  22.896  -9.131  1.00  0.00     0.054 C
HETATM    8  C6  UNL     1     -25.563  21.826  -8.817  1.00  0.00     0.013 C
HETATM    9  C7  UNL     1     -25.365  21.146  -7.505  1.00  0.00     0.011 C
HETATM   10  C8  UNL     1     -25.048  21.995  -6.344  1.00  0.00    -0.029 C
HETATM   11  C9  UNL     1     -24.476  21.167  -5.200  1.00  0.00     0.016 C
HETATM   12  C10 UNL     1     -24.144  23.195  -6.685  1.00  0.00     0.030 C
HETATM   13  C11 UNL     1     -25.374  24.070  -6.581  1.00  0.00     0.004 C
HETATM   14  C12 UNL     1     -25.192  25.190  -5.625  1.00  0.00     0.026 C
HETATM   15  C13 UNL     1     -25.860  24.773  -4.346  1.00  0.00     0.055 C
HETATM   16  C20 UNL     1     -26.207  23.327  -4.436  1.00  0.00     0.014 A
HETATM   17  C21 UNL     1     -27.342  22.856  -5.363  1.00  0.00     0.018 A
HETATM   18  C22 UNL     1     -26.014  22.983  -5.844  1.00  0.00    -0.023 A
ENDROOT
BRANCH  15  19
HETATM   19  C14 UNL     1     -27.128  25.567  -4.164  1.00  0.00     0.047 C
BRANCH  19  20
HETATM   20  C15 UNL     1     -27.329  26.657  -5.171  1.00  0.00     0.180 C
BRANCH  20  21
HETATM   21  O3  UNL     1     -28.567  26.584  -5.827  1.00  0.00    -0.322 OA
BRANCH  21  22
HETATM   22  C16 UNL     1     -29.400  27.679  -5.859  1.00  0.00     0.254 C
HETATM   23  C17 UNL     1     -29.412  28.694  -4.758  1.00  0.00     0.126 C
HETATM   24  O4  UNL     1     -30.179  27.831  -6.854  1.00  0.00    -0.266 OA
ENDBRANCH  21  22
ENDBRANCH  20  21
ENDBRANCH  19  20
ENDBRANCH  15  19
BRANCH  15  25
HETATM   25  C18 UNL     1     -24.913  25.005  -3.217  1.00  0.00     0.267 C
HETATM   26  O5  UNL     1     -23.740  24.570  -3.297  1.00  0.00    -0.264 OA
BRANCH  25  27
HETATM   27  O6  UNL     1     -25.259  25.687  -2.060  1.00  0.00    -0.326 OA
HETATM   28  C19 UNL     1     -25.230  24.997  -0.801  1.00  0.00     0.213 C
ENDBRANCH  25  27
ENDBRANCH  15  25
TORSDOF 6
ENDMDL