MODEL 4
REMARK VINA RESULT: -6.965150387      3.638      6.175
REMARK  3 active torsions:
REMARK  status: ('A' for Active; 'I' for Inactive)
REMARK    1  A    between atoms: C2_2  and  N1_3
REMARK    2  A    between atoms: C12_17  and  C13_18
REMARK    3  A    between atoms: C13_18  and  C14_19
REMARK       I    between atoms: C14_19  and  N2_21
ROOT
HETATM    1  N1  UNL     1     -20.969  24.480  -4.676  1.00  0.00    -0.343 N
HETATM    2  C3  UNL     1     -22.272  23.842  -4.587  1.00  0.00     0.211 C
HETATM    3  S1  UNL     1     -22.429  22.383  -5.616  1.00  0.00    -0.078 SA
HETATM    4  S2  UNL     1     -24.420  21.658  -5.432  1.00  0.00    -0.096 SA
HETATM    5  C4  UNL     1     -25.388  22.664  -4.275  1.00  0.00     0.086 C
HETATM    6  C5  UNL     1     -26.731  22.914  -4.873  1.00  0.00     0.021 C
HETATM    7  C6  UNL     1     -27.473  24.068  -4.307  1.00  0.00     0.112 C
HETATM    8  C7  UNL     1     -26.760  25.344  -4.263  1.00  0.00     0.258 C
HETATM    9  O1  UNL     1     -27.164  26.149  -3.349  1.00  0.00    -0.265 OA
HETATM   10  O2  UNL     1     -25.747  25.768  -5.055  1.00  0.00    -0.321 OA
HETATM   11  C8  UNL     1     -25.560  25.665  -6.424  1.00  0.00     0.178 C
HETATM   12  C9  UNL     1     -24.444  26.649  -6.806  1.00  0.00     0.027 C
HETATM   13  C10 UNL     1     -23.405  25.929  -7.631  1.00  0.00     0.003 C
HETATM   14  C11 UNL     1     -22.012  26.481  -7.453  1.00  0.00     0.014 C
HETATM   15  C12 UNL     1     -21.036  25.398  -7.102  1.00  0.00     0.087 C
HETATM   16  C17 UNL     1     -20.627  25.450  -5.654  1.00  0.00     0.225 C
HETATM   17  O4  UNL     1     -19.924  26.430  -5.283  1.00  0.00    -0.273 OA
ENDROOT
BRANCH  15  18
HETATM   18  C13 UNL     1     -19.774  25.436  -7.954  1.00  0.00     0.117 C
BRANCH  18  19
HETATM   19  C14 UNL     1     -18.853  24.336  -7.741  1.00  0.00     0.219 C
HETATM   20  O3  UNL     1     -19.260  23.155  -7.828  1.00  0.00    -0.273 OA
HETATM   21  N2  UNL     1     -17.505  24.583  -7.438  1.00  0.00    -0.361 N
HETATM   22  C15 UNL     1     -17.022  25.931  -7.333  1.00  0.00     0.152 C
HETATM   23  C16 UNL     1     -16.601  23.487  -7.232  1.00  0.00     0.152 C
ENDBRANCH  18  19
ENDBRANCH  15  18
BRANCH   1  24
HETATM   24  C2  UNL     1     -19.991  24.073  -3.683  1.00  0.00     0.122 C
HETATM   25  C1  UNL     1     -18.959  23.125  -4.227  1.00  0.00     0.026 C
ENDBRANCH   1  24
TORSDOF 3
ENDMDL