MODEL 5
REMARK VINA RESULT: -5.711289479      3.506      6.977
REMARK  13 active torsions:
REMARK  status: ('A' for Active; 'I' for Inactive)
REMARK    1  A    between atoms: N1_1  and  C1_5
REMARK    2  A    between atoms: C3_8  and  O2_9
REMARK    3  A    between atoms: O2_9  and  C4_10
REMARK    4  A    between atoms: C5_11  and  N2_12
REMARK    5  A    between atoms: C7_17  and  N3_18
REMARK    6  A    between atoms: C8_22  and  O3_23
REMARK    7  A    between atoms: O3_23  and  C9_24
REMARK    8  A    between atoms: C12_30  and  O5_31
REMARK    9  A    between atoms: O5_31  and  C13_32
REMARK   10  A    between atoms: C15_37  and  N6_38
REMARK   11  A    between atoms: N6_38  and  O6_39
REMARK   12  A    between atoms: C16_41  and  O7_42
REMARK   13  A    between atoms: C17_44  and  N7_45
ROOT
HETATM    1  C4  UNL     1     -19.352 -10.309 -37.714  1.00  0.00     0.186 C
HETATM    2  C5  UNL     1     -18.218  -9.615 -37.043  1.00  0.00     0.217 C
HETATM    3  C6  UNL     1     -17.445 -10.481 -36.088  1.00  0.00     0.071 C
HETATM    4  C7  UNL     1     -18.298 -11.270 -35.152  1.00  0.00     0.217 C
HETATM    5  C8  UNL     1     -19.699 -11.489 -35.616  1.00  0.00     0.186 C
HETATM    6  C12 UNL     1     -19.631 -11.684 -37.136  1.00  0.00     0.184 C
ENDROOT
BRANCH   1   7
HETATM    7  O2  UNL     1     -19.118 -10.468 -39.072  1.00  0.00    -0.349 OA
BRANCH   7   8
HETATM    8  C3  UNL     1     -20.191 -10.870 -39.799  1.00  0.00     0.290 C
HETATM    9  O1  UNL     1     -21.125  -9.876 -40.066  1.00  0.00    -0.357 OA
HETATM   10  C2  UNL     1     -22.315 -10.486 -40.385  1.00  0.00     0.203 C
HETATM   11  C1  UNL     1     -22.256 -11.431 -41.528  1.00  0.00     0.209 C
HETATM   12  C18 UNL     1     -21.038 -12.297 -41.571  1.00  0.00     0.072 C
HETATM   13  C17 UNL     1     -19.828 -11.491 -41.142  1.00  0.00     0.240 C
BRANCH  11  14
HETATM   14  N1  UNL     1     -23.413 -12.333 -41.409  1.00  0.00    -0.073 N
ATOM     15  H13 UNL     1     -24.185 -11.925 -40.882  1.00  0.00     0.274 HD
ATOM     16  H12 UNL     1     -23.910 -12.463 -42.290  1.00  0.00     0.274 HD
ATOM     17  H11 UNL     1     -23.075 -13.208 -41.009  1.00  0.00     0.274 HD
ENDBRANCH  11  14
BRANCH  13  18
HETATM   18  N7  UNL     1     -19.632 -10.460 -42.152  1.00  0.00    -0.070 N
ATOM     19  H73 UNL     1     -18.645 -10.326 -42.368  1.00  0.00     0.274 HD
ATOM     20  H72 UNL     1     -19.950 -10.765 -43.072  1.00  0.00     0.274 HD
ATOM     21  H71 UNL     1     -20.079  -9.587 -41.868  1.00  0.00     0.274 HD
ENDBRANCH  13  18
ENDBRANCH   7   8
ENDBRANCH   1   7
BRANCH   2  22
HETATM   22  N2  UNL     1     -18.630  -8.377 -36.374  1.00  0.00    -0.072 N
ATOM     23  H23 UNL     1     -18.754  -7.621 -37.048  1.00  0.00     0.274 HD
ATOM     24  H22 UNL     1     -19.586  -8.449 -36.027  1.00  0.00     0.274 HD
ATOM     25  H21 UNL     1     -17.990  -8.101 -35.629  1.00  0.00     0.274 HD
ENDBRANCH   2  22
BRANCH   6  26
HETATM   26  O5  UNL     1     -18.627 -12.589 -37.373  1.00  0.00    -0.371 OA
BRANCH  26  27
HETATM   27  C13 UNL     1     -19.047 -13.881 -37.535  1.00  0.00     0.180 C
HETATM   28  C14 UNL     1     -18.705 -14.319 -38.952  1.00  0.00     0.268 C
HETATM   29  N5  UNL     1     -18.903 -15.760 -38.846  1.00  0.00    -0.050 N
HETATM   30  C15 UNL     1     -18.205 -16.090 -37.629  1.00  0.00     0.335 C
ATOM     31  H52 UNL     1     -19.877 -16.060 -38.874  1.00  0.00     0.279 HD
ATOM     32  H51 UNL     1     -18.608 -16.292 -39.665  1.00  0.00     0.279 HD
HETATM   33  C16 UNL     1     -18.273 -14.889 -36.721  1.00  0.00     0.197 C
BRANCH  30  34
HETATM   34  N6  UNL     1     -16.834 -16.505 -37.861  1.00  0.00    -0.067 NA
BRANCH  34  35
HETATM   35  O6  UNL     1     -16.852 -17.639 -38.595  1.00  0.00    -0.294 OA
ATOM     36  H6  UNL     1     -16.478 -18.338 -38.072  1.00  0.00     0.238 HD
ENDBRANCH  34  35
ENDBRANCH  30  34
BRANCH  33  37
HETATM   37  O7  UNL     1     -18.919 -15.260 -35.555  1.00  0.00    -0.389 OA
ATOM     38  H7  UNL     1     -19.778 -14.866 -35.460  1.00  0.00     0.210 HD
ENDBRANCH  33  37
ENDBRANCH  26  27
ENDBRANCH   6  26
BRANCH   5  39
HETATM   39  O3  UNL     1     -20.556 -10.447 -35.322  1.00  0.00    -0.349 OA
BRANCH  39  40
HETATM   40  C9  UNL     1     -21.551 -10.758 -34.430  1.00  0.00     0.285 C
HETATM   41  C10 UNL     1     -21.780 -12.279 -34.343  1.00  0.00     0.181 C
HETATM   42  N4  UNL     1     -22.308 -12.355 -32.980  1.00  0.00    -0.376 N
HETATM   43  C11 UNL     1     -21.969 -11.337 -32.286  1.00  0.00     0.225 C
ATOM     44  H4  UNL     1     -22.876 -13.125 -32.627  1.00  0.00     0.160 HD
HETATM   45  O4  UNL     1     -21.207 -10.507 -33.084  1.00  0.00    -0.315 OA
ENDBRANCH  39  40
ENDBRANCH   5  39
BRANCH   4  46
HETATM   46  N3  UNL     1     -18.248 -10.725 -33.790  1.00  0.00    -0.072 N
ATOM     47  H33 UNL     1     -17.316 -10.814 -33.387  1.00  0.00     0.274 HD
ATOM     48  H32 UNL     1     -18.324  -9.708 -33.792  1.00  0.00     0.274 HD
ATOM     49  H31 UNL     1     -18.956 -11.151 -33.192  1.00  0.00     0.274 HD
ENDBRANCH   4  46
TORSDOF 13
ENDMDL