MODEL 3
REMARK VINA RESULT: -7.548121146      6.260      9.457
REMARK  10 active torsions:
REMARK  status: ('A' for Active; 'I' for Inactive)
REMARK    1  A    between atoms: C2_2  and  N1_3
REMARK    2  A    between atoms: C2_2  and  C8_23
REMARK    3  A    between atoms: N1_3  and  C3_5
REMARK    4  A    between atoms: C4_11  and  N5_12
REMARK    5  A    between atoms: C8_23  and  C9_25
REMARK    6  A    between atoms: C9_25  and  O5_26
REMARK    7  A    between atoms: C9_25  and  C10_28
REMARK    8  A    between atoms: C10_28  and  O6_29
REMARK    9  A    between atoms: C10_28  and  N7_31
REMARK   10  A    between atoms: C12_36  and  N9_37
ROOT
HETATM    1  N7  UNL     1     -17.338  -8.045 -43.311  1.00  0.00    -0.343 N
ATOM      2  H7  UNL     1     -16.753  -8.871 -43.436  1.00  0.00     0.164 HD
HETATM    3  C11 UNL     1     -16.632  -7.279 -42.698  1.00  0.00     0.143 A
HETATM    4  N8  UNL     1     -15.360  -7.692 -42.373  1.00  0.00    -0.175 N
ATOM      5  H8  UNL     1     -15.031  -8.597 -42.709  1.00  0.00     0.186 HD
HETATM    6  C12 UNL     1     -14.549  -6.945 -41.632  1.00  0.00     0.678 A
HETATM    7  N10 UNL     1     -14.940  -5.760 -41.186  1.00  0.00    -0.177 N
ATOM      8  H10 UNL     1     -14.303  -5.200 -40.620  1.00  0.00     0.185 HD
HETATM    9  C13 UNL     1     -16.159  -5.289 -41.466  1.00  0.00     0.156 A
HETATM   10  N11 UNL     1     -16.607  -4.009 -40.996  1.00  0.00    -0.080 NA
HETATM   11  C14 UNL     1     -17.061  -6.049 -42.243  1.00  0.00     0.130 A
HETATM   12  C15 UNL     1     -18.357  -5.489 -42.588  1.00  0.00     0.107 C
HETATM   13  N12 UNL     1     -19.362  -5.012 -42.882  1.00  0.00    -0.191 NA
ENDROOT
BRANCH   1  14
HETATM   14  C10 UNL     1     -18.519  -8.380 -43.926  1.00  0.00     0.281 C
BRANCH  14  15
HETATM   15  C9  UNL     1     -19.417  -9.315 -43.159  1.00  0.00     0.140 C
BRANCH  15  16
HETATM   16  C8  UNL     1     -19.927  -8.895 -41.857  1.00  0.00     0.204 C
HETATM   17  O4  UNL     1     -20.683  -7.925 -41.852  1.00  0.00    -0.288 OA
BRANCH  16  18
HETATM   18  C2  UNL     1     -19.597  -9.492 -40.560  1.00  0.00     0.156 C
HETATM   19  C1  UNL     1     -19.333  -8.671 -39.374  1.00  0.00     0.041 C
BRANCH  18  20
HETATM   20  N1  UNL     1     -20.504 -10.602 -40.275  1.00  0.00    -0.362 N
ATOM     21  H1  UNL     1     -21.423 -10.424 -39.869  1.00  0.00     0.162 HD
BRANCH  20  22
HETATM   22  C3  UNL     1     -20.106 -11.897 -40.560  1.00  0.00     0.154 A
HETATM   23  N2  UNL     1     -20.008 -12.514 -41.799  1.00  0.00    -0.268 N
HETATM   24  N3  UNL     1     -19.588 -13.759 -41.643  1.00  0.00    -0.219 N
ATOM     25  H2  UNL     1     -20.225 -12.075 -42.693  1.00  0.00     0.190 HD
HETATM   26  N4  UNL     1     -19.396 -14.017 -40.378  1.00  0.00    -0.062 N
ATOM     27  H3  UNL     1     -19.437 -14.423 -42.402  1.00  0.00     0.209 HD
HETATM   28  C4  UNL     1     -18.954 -15.188 -39.832  1.00  0.00     0.703 C
HETATM   29  C7  UNL     1     -19.700 -12.912 -39.683  1.00  0.00     0.196 A
HETATM   30  N6  UNL     1     -18.128 -15.299 -38.752  1.00  0.00    -0.133 N
HETATM   31  C5  UNL     1     -17.888 -14.343 -37.826  1.00  0.00     0.387 C
ATOM     32  H6  UNL     1     -17.644 -16.190 -38.632  1.00  0.00     0.189 HD
HETATM   33  O1  UNL     1     -16.813 -14.410 -37.189  1.00  0.00    -0.237 OA
HETATM   34  O2  UNL     1     -18.711 -13.345 -37.555  1.00  0.00    -0.221 OA
HETATM   35  C6  UNL     1     -19.593 -12.689 -38.313  1.00  0.00     0.325 C
HETATM   36  O3  UNL     1     -20.354 -11.851 -37.838  1.00  0.00    -0.257 OA
BRANCH  28  37
HETATM   37  N5  UNL     1     -19.345 -16.256 -40.395  1.00  0.00    -0.233 N
ATOM     38  H52 UNL     1     -18.688 -16.744 -41.004  1.00  0.00     0.174 HD
ATOM     39  H51 UNL     1     -20.304 -16.545 -40.202  1.00  0.00     0.174 HD
ENDBRANCH  28  37
ENDBRANCH  20  22
ENDBRANCH  18  20
ENDBRANCH  16  18
ENDBRANCH  15  16
BRANCH  15  40
HETATM   40  O5  UNL     1     -20.318  -9.983 -43.931  1.00  0.00    -0.357 OA
ATOM     41  H5  UNL     1     -20.641  -9.491 -44.677  1.00  0.00     0.217 HD
ENDBRANCH  15  40
ENDBRANCH  14  15
BRANCH  14  42
HETATM   42  O6  UNL     1     -18.255  -9.065 -45.200  1.00  0.00    -0.370 OA
ATOM     43  H6  UNL     1     -17.309  -9.126 -45.255  1.00  0.00     0.212 HD
ENDBRANCH  14  42
ENDBRANCH   1  14
BRANCH   6  44
HETATM   44  N9  UNL     1     -13.354  -7.424 -41.342  1.00  0.00    -0.234 N
ATOM     45  H92 UNL     1     -12.681  -7.646 -42.076  1.00  0.00     0.174 HD
ATOM     46  H91 UNL     1     -13.113  -7.555 -40.359  1.00  0.00     0.174 HD
ENDBRANCH   6  44
TORSDOF 10
ENDMDL