MODEL 5
REMARK VINA RESULT: -5.635584574      2.088      2.727
REMARK  12 active torsions:
REMARK  status: ('A' for Active; 'I' for Inactive)
REMARK    1  A    between atoms: N1_1  and  C1_5
REMARK    2  A    between atoms: C3_7  and  N2_8
REMARK    3  A    between atoms: C4_12  and  O1_13
REMARK    4  A    between atoms: C5_15  and  N3_16
REMARK       I    between atoms: N3_16  and  C6_18
REMARK    5  A    between atoms: C6_18  and  C7_20
REMARK    6  A    between atoms: C7_20  and  C8_21
REMARK    7  A    between atoms: N4_23  and  C10_24
REMARK    8  A    between atoms: C10_24  and  C11_25
REMARK    9  A    between atoms: C11_25  and  N5_26
REMARK   10  A    between atoms: C13_33  and  O4_34
REMARK   11  A    between atoms: C14_36  and  O5_37
REMARK   12  A    between atoms: C15_39  and  N6_40
ROOT
HETATM    1  C8  UNL     1     -21.548 -12.828 -42.352  1.00  0.00     0.053 A
HETATM    2  C9  UNL     1     -22.022 -13.418 -41.193  1.00  0.00     0.138 A
HETATM    3  N4  UNL     1     -21.022 -14.032 -40.574  1.00  0.00    -0.282 N
HETATM    4  N7  UNL     1     -19.953 -13.826 -41.333  1.00  0.00    -0.241 N
ATOM      5  H7  UNL     1     -19.022 -14.181 -41.115  1.00  0.00     0.208 HD
HETATM    6  N8  UNL     1     -20.236 -13.116 -42.391  1.00  0.00    -0.289 N
ATOM      7  H8  UNL     1     -19.579 -12.831 -43.118  1.00  0.00     0.188 HD
ENDROOT
BRANCH   1   8
HETATM    8  C7  UNL     1     -22.335 -12.041 -43.339  1.00  0.00     0.162 C
BRANCH   8   9
HETATM    9  C6  UNL     1     -21.903 -10.618 -43.247  1.00  0.00     0.223 C
HETATM   10  N3  UNL     1     -20.560 -10.225 -43.501  1.00  0.00    -0.354 N
ATOM     11  H3  UNL     1     -19.870 -10.932 -43.754  1.00  0.00     0.163 HD
HETATM   12  O2  UNL     1     -22.738  -9.703 -42.932  1.00  0.00    -0.273 OA
BRANCH  10  13
HETATM   13  C5  UNL     1     -20.156  -8.836 -43.407  1.00  0.00     0.117 C
HETATM   14  C4  UNL     1     -18.965  -8.639 -44.320  1.00  0.00     0.171 C
HETATM   15  C3  UNL     1     -17.726  -8.961 -43.490  1.00  0.00     0.216 C
HETATM   16  C2  UNL     1     -17.518  -7.779 -42.562  1.00  0.00     0.068 C
HETATM   17  C1  UNL     1     -18.775  -7.499 -41.796  1.00  0.00     0.187 C
HETATM   18  C16 UNL     1     -19.822  -8.564 -41.962  1.00  0.00     0.060 C
BRANCH  14  19
HETATM   19  O1  UNL     1     -19.077  -9.524 -45.401  1.00  0.00    -0.391 OA
ATOM     20  H1  UNL     1     -18.337 -10.119 -45.424  1.00  0.00     0.210 HD
ENDBRANCH  14  19
BRANCH  15  21
HETATM   21  N2  UNL     1     -16.570  -9.175 -44.323  1.00  0.00    -0.072 N
ATOM     22  H23 UNL     1     -16.738  -9.899 -45.021  1.00  0.00     0.274 HD
ATOM     23  H22 UNL     1     -16.409  -8.388 -44.951  1.00  0.00     0.274 HD
ATOM     24  H21 UNL     1     -15.746  -9.381 -43.759  1.00  0.00     0.274 HD
ENDBRANCH  15  21
BRANCH  17  25
HETATM   25  N1  UNL     1     -18.448  -7.413 -40.384  1.00  0.00    -0.075 N
ATOM     26  H13 UNL     1     -19.189  -7.783 -39.788  1.00  0.00     0.274 HD
ATOM     27  H12 UNL     1     -17.711  -8.064 -40.114  1.00  0.00     0.274 HD
ATOM     28  H11 UNL     1     -18.215  -6.445 -40.162  1.00  0.00     0.274 HD
ENDBRANCH  17  25
ENDBRANCH  10  13
ENDBRANCH   8   9
ENDBRANCH   1   8
BRANCH   3  29
HETATM   29  C10 UNL     1     -21.017 -14.784 -39.369  1.00  0.00     0.220 C
BRANCH  29  30
HETATM   30  C11 UNL     1     -19.815 -14.855 -38.530  1.00  0.00     0.274 C
HETATM   31  O3  UNL     1     -19.112 -13.619 -38.517  1.00  0.00    -0.332 OA
HETATM   32  C12 UNL     1     -18.362 -13.452 -37.382  1.00  0.00     0.228 C
HETATM   33  S1  UNL     1     -19.250 -12.631 -36.026  1.00  0.00    -0.060 SA
HETATM   34  C13 UNL     1     -17.646 -14.695 -36.925  1.00  0.00     0.189 C
HETATM   35  C14 UNL     1     -17.481 -15.575 -38.132  1.00  0.00     0.185 C
HETATM   36  C15 UNL     1     -18.895 -16.002 -38.589  1.00  0.00     0.279 C
BRANCH  30  37
HETATM   37  N5  UNL     1     -20.376 -14.887 -37.131  1.00  0.00    -0.043 N
ATOM     38  H53 UNL     1     -20.131 -14.081 -36.556  1.00  0.00     0.278 HD
ATOM     39  H52 UNL     1     -21.385 -14.751 -37.074  1.00  0.00     0.278 HD
ATOM     40  H51 UNL     1     -20.047 -15.782 -36.770  1.00  0.00     0.278 HD
ENDBRANCH  30  37
BRANCH  34  41
HETATM   41  O4  UNL     1     -16.366 -14.304 -36.442  1.00  0.00    -0.389 OA
ATOM     42  H4  UNL     1     -16.021 -13.648 -37.037  1.00  0.00     0.210 HD
ENDBRANCH  34  41
BRANCH  35  43
HETATM   43  O5  UNL     1     -16.693 -16.674 -37.897  1.00  0.00    -0.391 OA
ATOM     44  H5  UNL     1     -16.635 -17.260 -38.643  1.00  0.00     0.210 HD
ENDBRANCH  35  43
BRANCH  36  45
HETATM   45  N6  UNL     1     -18.717 -16.675 -39.832  1.00  0.00    -0.068 N
ATOM     46  H63 UNL     1     -18.458 -17.644 -39.649  1.00  0.00     0.275 HD
ATOM     47  H62 UNL     1     -19.628 -16.793 -40.276  1.00  0.00     0.275 HD
ATOM     48  H61 UNL     1     -18.067 -16.283 -40.514  1.00  0.00     0.275 HD
ENDBRANCH  36  45
ENDBRANCH  29  30
ENDBRANCH   3  29
TORSDOF 12
ENDMDL