MODEL 3
REMARK VINA RESULT: -6.391431216      2.851      3.990
REMARK  10 active torsions:
REMARK  status: ('A' for Active; 'I' for Inactive)
REMARK    1  A    between atoms: N1_2  and  C2_3
REMARK    2  A    between atoms: N1_2  and  C5_8
REMARK    3  A    between atoms: C2_3  and  C3_4
REMARK    4  A    between atoms: C3_4  and  C4_5
REMARK    5  A    between atoms: C4_5  and  O1_6
REMARK    6  A    between atoms: C6_11  and  N3_12
REMARK    7  A    between atoms: C7_17  and  N5_18
REMARK    8  A    between atoms: C12_28  and  N8_29
REMARK    9  A    between atoms: C15_38  and  C16_39
REMARK   10  A    between atoms: C17_42  and  O5_43
ROOT
HETATM    1  C5  UNL     1     -20.671  -7.819 -34.750  1.00  0.00     0.153 C
HETATM    2  N2  UNL     1     -21.947  -8.189 -34.911  1.00  0.00    -0.174 N
ATOM      3  H2  UNL     1     -22.604  -7.440 -35.129  1.00  0.00     0.186 HD
HETATM    4  C6  UNL     1     -22.482  -9.438 -34.820  1.00  0.00     0.679 C
HETATM    5  N4  UNL     1     -21.867 -10.570 -35.143  1.00  0.00    -0.176 N
ATOM      6  H4  UNL     1     -22.488 -11.339 -35.393  1.00  0.00     0.186 HD
HETATM    7  C7  UNL     1     -20.512 -10.873 -35.193  1.00  0.00     0.141 C
HETATM    8  C15 UNL     1     -19.507 -10.045 -34.802  1.00  0.00     0.122 C
HETATM    9  C17 UNL     1     -19.559  -8.664 -34.822  1.00  0.00     0.131 C
ENDROOT
BRANCH   7  10
HETATM   10  N5  UNL     1     -20.253 -12.157 -35.699  1.00  0.00    -0.327 N
HETATM   11  C8  UNL     1     -19.973 -13.575 -35.729  1.00  0.00     0.314 A
HETATM   12  N6  UNL     1     -18.682 -14.159 -35.727  1.00  0.00    -0.030 N
HETATM   13  C14 UNL     1     -20.145 -12.819 -36.992  1.00  0.00     0.153 A
HETATM   14  C9  UNL     1     -17.974 -13.829 -36.918  1.00  0.00     0.311 A
ATOM     15  H62 UNL     1     -18.154 -13.905 -34.893  1.00  0.00     0.282 HD
ATOM     16  H61 UNL     1     -18.724 -15.168 -35.582  1.00  0.00     0.282 HD
HETATM   17  C10 UNL     1     -18.848 -12.948 -37.696  1.00  0.00     0.132 A
HETATM   18  N10 UNL     1     -18.047 -14.827 -37.955  1.00  0.00    -0.256 N
HETATM   19  C11 UNL     1     -18.833 -14.052 -38.670  1.00  0.00     0.115 A
HETATM   20  N7  UNL     1     -19.282 -14.500 -39.889  1.00  0.00    -0.180 N
HETATM   21  C12 UNL     1     -18.940 -15.704 -40.364  1.00  0.00     0.681 A
ATOM     22  H7  UNL     1     -19.891 -13.900 -40.445  1.00  0.00     0.185 HD
HETATM   23  N9  UNL     1     -18.137 -16.473 -39.612  1.00  0.00    -0.141 N
HETATM   24  C13 UNL     1     -17.694 -16.048 -38.425  1.00  0.00     0.344 A
ATOM     25  H9  UNL     1     -17.861 -17.395 -39.951  1.00  0.00     0.189 HD
HETATM   26  O2  UNL     1     -16.940 -16.764 -37.717  1.00  0.00    -0.246 OA
BRANCH  21  27
HETATM   27  N8  UNL     1     -19.395 -16.065 -41.511  1.00  0.00    -0.234 N
ATOM     28  H82 UNL     1     -18.850 -16.020 -42.372  1.00  0.00     0.174 HD
ATOM     29  H81 UNL     1     -20.351 -16.416 -41.569  1.00  0.00     0.174 HD
ENDBRANCH  21  27
ENDBRANCH   7  10
BRANCH   8  30
HETATM   30  C16 UNL     1     -18.286 -10.708 -34.323  1.00  0.00     0.216 C
HETATM   31  O3  UNL     1     -17.229 -10.669 -35.239  1.00  0.00    -0.644 OA
HETATM   32  O4  UNL     1     -17.941 -10.467 -33.021  1.00  0.00    -0.644 OA
ENDBRANCH   8  30
BRANCH   4  33
HETATM   33  N3  UNL     1     -23.684  -9.534 -34.382  1.00  0.00    -0.234 N
ATOM     34  H32 UNL     1     -24.400  -9.805 -35.056  1.00  0.00     0.174 HD
ATOM     35  H31 UNL     1     -23.840  -9.334 -33.394  1.00  0.00     0.174 HD
ENDBRANCH   4  33
BRANCH   9  36
HETATM   36  O5  UNL     1     -18.362  -7.999 -34.927  1.00  0.00    -0.356 OA
ATOM     37  H5  UNL     1     -17.672  -8.511 -35.333  1.00  0.00     0.218 HD
ENDBRANCH   9  36
BRANCH   1  38
HETATM   38  N1  UNL     1     -20.464  -6.444 -34.483  1.00  0.00    -0.369 N
HETATM   39  C1  UNL     1     -20.702  -5.498 -35.573  1.00  0.00     0.151 C
BRANCH  38  40
HETATM   40  C2  UNL     1     -20.032  -5.925 -33.202  1.00  0.00     0.126 C
BRANCH  40  41
HETATM   41  C3  UNL     1     -20.727  -6.659 -32.059  1.00  0.00     0.046 C
BRANCH  41  42
HETATM   42  C4  UNL     1     -19.700  -7.161 -31.079  1.00  0.00     0.165 C
BRANCH  42  43
HETATM   43  O1  UNL     1     -18.798  -8.006 -31.703  1.00  0.00    -0.401 OA
ATOM     44  H1  UNL     1     -18.061  -8.192 -31.133  1.00  0.00     0.209 HD
ENDBRANCH  42  43
ENDBRANCH  41  42
ENDBRANCH  40  41
ENDBRANCH  38  40
ENDBRANCH   1  38
TORSDOF 10
ENDMDL