MODEL 5
REMARK VINA RESULT: -6.233000484      5.979      8.899
REMARK  14 active torsions:
REMARK  status: ('A' for Active; 'I' for Inactive)
REMARK    1  A    between atoms: N1_1  and  C1_5
REMARK    2  A    between atoms: C4_8  and  O1_9
REMARK    3  A    between atoms: O1_9  and  C5_10
REMARK    4  A    between atoms: C7_12  and  N2_13
REMARK    5  A    between atoms: C8_17  and  O2_18
REMARK    6  A    between atoms: C8_17  and  O3_20
REMARK    7  A    between atoms: C9_22  and  O4_23
REMARK    8  A    between atoms: C10_27  and  C11_28
REMARK    9  A    between atoms: C11_28  and  O7_29
REMARK   10  A    between atoms: O7_29  and  C12_30
REMARK   11  A    between atoms: C13_32  and  C14_33
REMARK   12  A    between atoms: C14_33  and  O9_34
REMARK   13  A    between atoms: C15_36  and  O10_37
REMARK   14  A    between atoms: C17_40  and  N3_41
ROOT
HETATM    1  C1  UNL     1     -19.145 -16.800 -31.311  1.00  0.00     0.214 C
HETATM    2  C2  UNL     1     -20.037 -16.766 -30.082  1.00  0.00     0.040 C
HETATM    3  C3  UNL     1     -21.006 -15.595 -30.300  1.00  0.00     0.063 C
HETATM    4  C4  UNL     1     -20.294 -14.572 -31.118  1.00  0.00     0.263 C
HETATM    5  O6  UNL     1     -20.119 -15.040 -32.413  1.00  0.00    -0.352 OA
HETATM    6  C10 UNL     1     -20.081 -16.453 -32.488  1.00  0.00     0.178 C
ENDROOT
BRANCH   4   7
HETATM    7  O1  UNL     1     -20.995 -13.375 -31.233  1.00  0.00    -0.331 OA
BRANCH   7   8
HETATM    8  C5  UNL     1     -20.299 -12.374 -31.846  1.00  0.00     0.268 C
HETATM    9  C6  UNL     1     -21.148 -11.541 -32.781  1.00  0.00     0.099 C
HETATM   10  C7  UNL     1     -20.456 -10.275 -33.201  1.00  0.00     0.255 C
HETATM   11  C8  UNL     1     -19.056 -10.161 -32.697  1.00  0.00     0.239 C
HETATM   12  C9  UNL     1     -18.814 -10.756 -31.353  1.00  0.00     0.324 C
HETATM   13  O5  UNL     1     -19.838 -11.515 -30.849  1.00  0.00    -0.326 OA
BRANCH  10  14
HETATM   14  N2  UNL     1     -21.252  -9.085 -32.922  1.00  0.00    -0.070 N
ATOM     15  H23 UNL     1     -21.967  -8.946 -33.636  1.00  0.00     0.275 HD
ATOM     16  H22 UNL     1     -21.856  -9.230 -32.112  1.00  0.00     0.275 HD
ATOM     17  H21 UNL     1     -20.678  -8.249 -32.809  1.00  0.00     0.275 HD
ENDBRANCH  10  14
BRANCH  11  18
HETATM   18  O2  UNL     1     -18.679  -8.800 -32.628  1.00  0.00    -0.360 OA
ATOM     19  H2  UNL     1     -17.805  -8.726 -32.264  1.00  0.00     0.213 HD
ENDBRANCH  11  18
BRANCH  11  20
HETATM   20  O3  UNL     1     -18.154 -10.749 -33.615  1.00  0.00    -0.360 OA
ATOM     21  H3  UNL     1     -17.585 -10.086 -33.988  1.00  0.00     0.213 HD
ENDBRANCH  11  20
BRANCH  12  22
HETATM   22  O4  UNL     1     -18.523  -9.768 -30.384  1.00  0.00    -0.366 OA
ATOM     23  H4  UNL     1     -17.974 -10.107 -29.687  1.00  0.00     0.212 HD
ENDBRANCH  12  22
ENDBRANCH   7   8
ENDBRANCH   4   7
BRANCH   6  24
HETATM   24  C11 UNL     1     -19.497 -16.758 -33.815  1.00  0.00     0.205 C
BRANCH  24  25
HETATM   25  O7  UNL     1     -19.929 -16.081 -34.909  1.00  0.00    -0.357 OA
BRANCH  25  26
HETATM   26  C12 UNL     1     -18.948 -15.341 -35.569  1.00  0.00     0.290 C
HETATM   27  O8  UNL     1     -18.315 -16.221 -36.419  1.00  0.00    -0.349 OA
HETATM   28  C13 UNL     1     -17.473 -15.707 -37.343  1.00  0.00     0.177 C
HETATM   29  C15 UNL     1     -17.790 -14.326 -37.829  1.00  0.00     0.151 C
HETATM   30  C16 UNL     1     -19.279 -14.117 -37.677  1.00  0.00     0.072 C
HETATM   31  C17 UNL     1     -19.525 -14.142 -36.167  1.00  0.00     0.240 C
BRANCH  28  32
HETATM   32  C14 UNL     1     -17.446 -16.628 -38.545  1.00  0.00     0.198 C
BRANCH  32  33
HETATM   33  O9  UNL     1     -16.414 -17.541 -38.505  1.00  0.00    -0.398 OA
ATOM     34  H9  UNL     1     -16.529 -18.261 -39.115  1.00  0.00     0.209 HD
ENDBRANCH  32  33
ENDBRANCH  28  32
BRANCH  29  35
HETATM   35  O10 UNL     1     -17.134 -13.327 -37.154  1.00  0.00    -0.393 OA
ATOM     36  H10 UNL     1     -17.608 -12.505 -37.117  1.00  0.00     0.210 HD
ENDBRANCH  29  35
BRANCH  31  37
HETATM   37  N3  UNL     1     -19.126 -12.881 -35.567  1.00  0.00    -0.070 N
ATOM     38  H33 UNL     1     -18.395 -12.446 -36.129  1.00  0.00     0.274 HD
ATOM     39  H32 UNL     1     -19.872 -12.194 -35.674  1.00  0.00     0.274 HD
ATOM     40  H31 UNL     1     -18.833 -12.927 -34.590  1.00  0.00     0.274 HD
ENDBRANCH  31  37
ENDBRANCH  25  26
ENDBRANCH  24  25
ENDBRANCH   6  24
BRANCH   1  41
HETATM   41  N1  UNL     1     -18.530 -18.083 -31.439  1.00  0.00    -0.072 N
ATOM     42  H13 UNL     1     -18.032 -18.353 -30.590  1.00  0.00     0.274 HD
ATOM     43  H12 UNL     1     -19.218 -18.835 -31.458  1.00  0.00     0.274 HD
ATOM     44  H11 UNL     1     -17.922 -18.103 -32.258  1.00  0.00     0.274 HD
ENDBRANCH   1  41
TORSDOF 14
ENDMDL