MODEL 2
REMARK VINA RESULT: -5.360842685      0.968      1.516
REMARK  15 active torsions:
REMARK  status: ('A' for Active; 'I' for Inactive)
REMARK    1  A    between atoms: N1_7  and  C6_8
REMARK    2  A    between atoms: C6_8  and  O2_9
REMARK    3  A    between atoms: C6_8  and  C7_11
REMARK    4  A    between atoms: N3_14  and  N4_15
REMARK    5  A    between atoms: C8_18  and  N5_19
REMARK    6  A    between atoms: C9_22  and  N6_23
REMARK    7  A    between atoms: C10_27  and  C11_28
REMARK    8  A    between atoms: C11_28  and  O3_29
REMARK    9  A    between atoms: C11_28  and  N7_31
REMARK   10  A    between atoms: N7_31  and  C12_34
REMARK   11  A    between atoms: C12_34  and  C13_35
REMARK   12  A    between atoms: C12_34  and  C14_38
REMARK   13  A    between atoms: C13_35  and  O4_36
REMARK   14  A    between atoms: C14_38  and  O5_39
REMARK   15  A    between atoms: C14_38  and  O6_41
ROOT
HETATM    1  C1  UNL     1     -18.751 -10.343 -33.326  1.00  0.00     0.078 C
HETATM    2  C2  UNL     1     -17.972 -10.397 -34.626  1.00  0.00     0.158 C
HETATM    3  C3  UNL     1     -16.562  -9.919 -34.351  1.00  0.00     0.078 C
HETATM    4  O1  UNL     1     -18.542  -9.512 -35.509  1.00  0.00    -0.346 OA
HETATM    5  C4  UNL     1     -19.276 -10.283 -36.394  1.00  0.00     0.185 C
HETATM    6  C5  UNL     1     -18.451 -10.506 -37.621  1.00  0.00     0.311 C
HETATM    7  N1  UNL     1     -19.068 -11.717 -38.187  1.00  0.00     0.138 N
HETATM    8  C10 UNL     1     -19.275 -12.548 -37.011  1.00  0.00     0.314 C
HETATM    9  C15 UNL     1     -19.245 -11.698 -35.795  1.00  0.00     0.194 C
HETATM   10  O7  UNL     1     -17.989 -11.668 -35.177  1.00  0.00    -0.346 OA
ENDROOT
BRANCH   7  11
HETATM   11  C6  UNL     1     -20.344 -11.316 -38.681  1.00  0.00     0.417 C
BRANCH  11  12
HETATM   12  O2  UNL     1     -20.145 -10.266 -39.623  1.00  0.00    -0.363 OA
ATOM     13  H2  UNL     1     -20.782 -10.369 -40.320  1.00  0.00     0.212 HD
ENDBRANCH  11  12
BRANCH  11  14
HETATM   14  C7  UNL     1     -20.943 -12.423 -39.525  1.00  0.00     0.129 A
HETATM   15  N2  UNL     1     -21.883 -13.243 -39.077  1.00  0.00    -0.271 N
HETATM   16  N3  UNL     1     -22.480 -14.207 -39.705  1.00  0.00    -0.183 N
ATOM     17  H2  UNL     1     -22.175 -13.096 -38.111  1.00  0.00     0.189 HD
HETATM   18  C8  UNL     1     -22.292 -14.617 -40.968  1.00  0.00     0.172 A
HETATM   19  C9  UNL     1     -21.359 -14.013 -41.835  1.00  0.00     0.117 A
HETATM   20  S1  UNL     1     -20.508 -12.730 -41.135  1.00  0.00    -0.050 SA
BRANCH  16  21
HETATM   21  N4  UNL     1     -23.455 -14.931 -38.959  1.00  0.00    -0.322 N
ATOM     22  H42 UNL     1     -23.238 -15.080 -37.973  1.00  0.00     0.179 HD
ATOM     23  H41 UNL     1     -24.282 -15.231 -39.474  1.00  0.00     0.179 HD
ENDBRANCH  16  21
BRANCH  18  24
HETATM   24  N5  UNL     1     -22.992 -15.604 -41.428  1.00  0.00    -0.380 N
ATOM     25  H52 UNL     1     -23.879 -15.386 -41.882  1.00  0.00     0.158 HD
ATOM     26  H51 UNL     1     -22.644 -16.557 -41.322  1.00  0.00     0.158 HD
ENDBRANCH  18  24
BRANCH  19  27
HETATM   27  N6  UNL     1     -21.237 -14.466 -43.035  1.00  0.00    -0.390 N
ATOM     28  H62 UNL     1     -20.877 -15.378 -43.316  1.00  0.00     0.157 HD
ATOM     29  H61 UNL     1     -21.520 -13.877 -43.818  1.00  0.00     0.157 HD
ENDBRANCH  19  27
ENDBRANCH  11  14
ENDBRANCH   7  11
BRANCH   8  30
HETATM   30  C11 UNL     1     -18.252 -13.637 -37.032  1.00  0.00     0.355 C
BRANCH  30  31
HETATM   31  O3  UNL     1     -18.515 -14.634 -36.086  1.00  0.00    -0.368 OA
ATOM     32  H3  UNL     1     -17.824 -14.711 -35.439  1.00  0.00     0.212 HD
ENDBRANCH  30  31
BRANCH  30  33
HETATM   33  N7  UNL     1     -18.126 -14.234 -38.371  1.00  0.00    -0.036 N
ATOM     34  H72 UNL     1     -18.730 -13.785 -39.060  1.00  0.00     0.281 HD
ATOM     35  H71 UNL     1     -17.231 -14.023 -38.813  1.00  0.00     0.281 HD
BRANCH  33  36
HETATM   36  C12 UNL     1     -18.371 -15.666 -38.258  1.00  0.00     0.266 C
BRANCH  36  37
HETATM   37  C13 UNL     1     -19.344 -16.093 -39.324  1.00  0.00     0.202 C
BRANCH  37  38
HETATM   38  O4  UNL     1     -18.689 -16.151 -40.558  1.00  0.00    -0.399 OA
ATOM     39  H4  UNL     1     -19.327 -16.096 -41.259  1.00  0.00     0.209 HD
ENDBRANCH  37  38
ENDBRANCH  36  37
BRANCH  36  40
HETATM   40  C14 UNL     1     -17.090 -16.453 -38.455  1.00  0.00     0.286 C
BRANCH  40  41
HETATM   41  O5  UNL     1     -16.430 -16.485 -37.230  1.00  0.00    -0.369 OA
ATOM     42  H5  UNL     1     -16.381 -17.394 -36.958  1.00  0.00     0.212 HD
ENDBRANCH  40  41
BRANCH  40  43
HETATM   43  O6  UNL     1     -17.391 -17.777 -38.788  1.00  0.00    -0.369 OA
ATOM     44  H6  UNL     1     -16.589 -18.259 -38.953  1.00  0.00     0.212 HD
ENDBRANCH  40  43
ENDBRANCH  36  40
ENDBRANCH  33  36
ENDBRANCH  30  33
ENDBRANCH   8  30
TORSDOF 15
ENDMDL