MODEL 4
REMARK VINA RESULT: -6.085129771      1.696      2.154
REMARK  12 active torsions:
REMARK  status: ('A' for Active; 'I' for Inactive)
REMARK    1  A    between atoms: O1_2  and  C2_3
REMARK    2  A    between atoms: C3_6  and  N2_7
REMARK    3  A    between atoms: N9_30  and  C11_31
REMARK    4  A    between atoms: C11_31  and  O2_32
REMARK    5  A    between atoms: C11_31  and  C12_34
REMARK    6  A    between atoms: C12_34  and  C13_36
REMARK    7  A    between atoms: C13_36  and  O4_37
REMARK    8  A    between atoms: C13_36  and  C14_39
REMARK    9  A    between atoms: C14_39  and  O5_40
REMARK   10  A    between atoms: C14_39  and  C15_42
REMARK   11  A    between atoms: C15_42  and  N10_43
REMARK   12  A    between atoms: C15_42  and  N11_47
ROOT
HETATM    1  C2  UNL     1     -18.827  -8.809 -36.627  1.00  0.00     0.187 A
HETATM    2  N1  UNL     1     -18.062  -8.555 -35.541  1.00  0.00    -0.168 N
ATOM      3  H1  UNL     1     -18.077  -7.625 -35.122  1.00  0.00     0.186 HD
HETATM    4  C3  UNL     1     -17.283  -9.508 -35.006  1.00  0.00     0.678 A
HETATM    5  N3  UNL     1     -17.227 -10.748 -35.521  1.00  0.00    -0.187 N
ATOM      6  H3  UNL     1     -16.627 -11.457 -35.101  1.00  0.00     0.184 HD
HETATM    7  C4  UNL     1     -17.966 -11.036 -36.590  1.00  0.00     0.111 A
HETATM    8  C5  UNL     1     -18.090 -12.224 -37.307  1.00  0.00     0.109 A
HETATM    9  N4  UNL     1     -17.538 -13.427 -37.172  1.00  0.00    -0.335 N
ATOM     10  H4  UNL     1     -16.872 -13.631 -36.428  1.00  0.00     0.168 HD
HETATM   11  C6  UNL     1     -17.908 -14.370 -38.080  1.00  0.00     0.150 A
HETATM   12  N5  UNL     1     -17.385 -15.603 -37.997  1.00  0.00    -0.175 N
ATOM     13  H5  UNL     1     -16.717 -15.828 -37.260  1.00  0.00     0.186 HD
HETATM   14  C7  UNL     1     -17.750 -16.551 -38.902  1.00  0.00     0.677 A
HETATM   15  N6  UNL     1     -17.273 -17.743 -38.858  1.00  0.00    -0.234 N
ATOM     16  H61 UNL     1     -17.546 -18.454 -39.536  1.00  0.00     0.174 HD
ATOM     17  H62 UNL     1     -16.604 -17.961 -38.119  1.00  0.00     0.174 HD
HETATM   18  N7  UNL     1     -18.632 -16.264 -39.878  1.00  0.00    -0.200 N
ATOM     19  H7  UNL     1     -18.885 -16.998 -40.539  1.00  0.00     0.183 HD
HETATM   20  C8  UNL     1     -19.193 -15.053 -40.018  1.00  0.00     0.139 A
HETATM   21  C9  UNL     1     -18.810 -14.084 -39.082  1.00  0.00     0.095 A
HETATM   22  N8  UNL     1     -19.359 -12.864 -39.204  1.00  0.00    -0.336 N
ATOM     23  H8  UNL     1     -20.027 -12.651 -39.945  1.00  0.00     0.168 HD
HETATM   24  C10 UNL     1     -18.988 -11.932 -38.300  1.00  0.00     0.145 A
HETATM   25  N9  UNL     1     -19.404 -10.627 -38.211  1.00  0.00    -0.266 N
HETATM   26  C16 UNL     1     -18.780 -10.070 -37.163  1.00  0.00     0.124 A
ENDROOT
BRANCH  25  27
HETATM   27  C11 UNL     1     -20.338  -9.987 -39.089  1.00  0.00     0.199 C
BRANCH  27  28
HETATM   28  O2  UNL     1     -21.485 -10.719 -39.373  1.00  0.00    -0.343 OA
ATOM     29  H2  UNL     1     -22.297 -10.226 -39.356  1.00  0.00     0.219 HD
ENDBRANCH  27  28
BRANCH  27  30
HETATM   30  C12 UNL     1     -19.754  -9.257 -40.218  1.00  0.00     0.231 C
HETATM   31  O3  UNL     1     -19.401  -8.107 -40.031  1.00  0.00    -0.286 OA
BRANCH  30  32
HETATM   32  C13 UNL     1     -19.569  -9.825 -41.563  1.00  0.00     0.228 C
BRANCH  32  33
HETATM   33  O4  UNL     1     -19.461 -11.206 -41.457  1.00  0.00    -0.385 OA
ATOM     34  H4  UNL     1     -18.931 -11.529 -42.176  1.00  0.00     0.210 HD
ENDBRANCH  32  33
BRANCH  32  35
HETATM   35  C14 UNL     1     -20.751  -9.563 -42.475  1.00  0.00     0.212 C
BRANCH  35  36
HETATM   36  O5  UNL     1     -21.754  -8.865 -41.825  1.00  0.00    -0.389 OA
ATOM     37  H5  UNL     1     -21.434  -8.045 -41.466  1.00  0.00     0.210 HD
ENDBRANCH  35  36
BRANCH  35  38
HETATM   38  C15 UNL     1     -21.320 -10.936 -42.849  1.00  0.00     0.409 C
BRANCH  38  39
HETATM   39  N10 UNL     1     -22.649 -11.102 -42.282  1.00  0.00    -0.048 N
ATOM     40 3H10 UNL     1     -22.829 -12.068 -42.010  1.00  0.00     0.276 HD
ATOM     41 2H10 UNL     1     -22.728 -10.669 -41.362  1.00  0.00     0.276 HD
ATOM     42 1H10 UNL     1     -23.356 -10.751 -42.929  1.00  0.00     0.276 HD
ENDBRANCH  38  39
BRANCH  38  43
HETATM   43  N11 UNL     1     -21.375 -11.106 -44.282  1.00  0.00    -0.048 N
ATOM     44 3H11 UNL     1     -20.560 -10.698 -44.740  1.00  0.00     0.276 HD
ATOM     45 2H11 UNL     1     -21.233 -12.080 -44.550  1.00  0.00     0.276 HD
ATOM     46 1H11 UNL     1     -22.245 -10.736 -44.665  1.00  0.00     0.276 HD
ENDBRANCH  38  43
ENDBRANCH  35  38
ENDBRANCH  32  35
ENDBRANCH  30  32
ENDBRANCH  27  30
ENDBRANCH  25  27
BRANCH   1  47
HETATM   47  O1  UNL     1     -19.632  -7.808 -37.169  1.00  0.00    -0.339 OA
HETATM   48  C1  UNL     1     -20.475  -7.092 -36.290  1.00  0.00     0.211 C
ENDBRANCH   1  47
BRANCH   4  49
HETATM   49  N2  UNL     1     -16.585  -9.202 -33.980  1.00  0.00    -0.234 N
ATOM     50  H22 UNL     1     -16.474  -8.226 -33.703  1.00  0.00     0.174 HD
ATOM     51  H21 UNL     1     -16.150  -9.961 -33.456  1.00  0.00     0.174 HD
ENDBRANCH   4  49
TORSDOF 12
ENDMDL