MODEL 1
REMARK VINA RESULT: -6.281907105      0.000      0.000
REMARK  12 active torsions:
REMARK  status: ('A' for Active; 'I' for Inactive)
REMARK    1  A    between atoms: C1_2  and  C2_4
REMARK    2  A    between atoms: N4_8  and  C3_9
REMARK    3  A    between atoms: C3_9  and  C4_10
REMARK    4  A    between atoms: C4_10  and  O2_11
REMARK    5  A    between atoms: C4_10  and  C5_13
REMARK    6  A    between atoms: C5_13  and  O3_14
REMARK    7  A    between atoms: C5_13  and  C6_16
REMARK    8  A    between atoms: N5_18  and  C8_19
REMARK    9  A    between atoms: C9_20  and  C10_21
REMARK   10  A    between atoms: C10_21  and  N6_22
REMARK   11  A    between atoms: C10_21  and  O4_26
REMARK   12  A    between atoms: C15_38  and  O7_39
ROOT
HETATM    1  C6  UNL     1     -20.766 -11.104 -39.062  1.00  0.00     0.080 A
HETATM    2  C7  UNL     1     -19.880 -12.198 -39.040  1.00  0.00     0.121 A
HETATM    3  N5  UNL     1     -20.296 -13.419 -38.631  1.00  0.00    -0.271 N
HETATM    4  C13 UNL     1     -21.575 -13.566 -38.255  1.00  0.00     0.334 A
HETATM    5  O5  UNL     1     -22.039 -14.674 -37.879  1.00  0.00    -0.246 OA
HETATM    6  N8  UNL     1     -22.467 -12.525 -38.253  1.00  0.00    -0.274 N
ATOM      7  H8  UNL     1     -23.429 -12.678 -37.952  1.00  0.00     0.173 HD
HETATM    8  C14 UNL     1     -22.077 -11.309 -38.647  1.00  0.00     0.263 A
HETATM    9  O6  UNL     1     -22.832 -10.311 -38.679  1.00  0.00    -0.267 OA
ENDROOT
BRANCH   1  10
HETATM   10  C5  UNL     1     -20.332  -9.745 -39.411  1.00  0.00     0.094 C
BRANCH  10  11
HETATM   11  C4  UNL     1     -19.012  -9.361 -38.865  1.00  0.00     0.215 C
BRANCH  11  12
HETATM   12  C3  UNL     1     -18.836  -8.851 -37.524  1.00  0.00     0.128 C
BRANCH  12  13
HETATM   13  N4  UNL     1     -18.176  -9.621 -36.518  1.00  0.00    -0.228 N
HETATM   14  N3  UNL     1     -17.820 -10.891 -36.597  1.00  0.00    -0.013 NA
HETATM   15  N2  UNL     1     -17.226 -11.260 -35.457  1.00  0.00    -0.275 N
HETATM   16  C2  UNL     1     -17.215 -10.183 -34.635  1.00  0.00     0.164 A
ATOM     17  H2  UNL     1     -16.851 -12.184 -35.245  1.00  0.00     0.184 HD
HETATM   18  C15 UNL     1     -17.804  -9.147 -35.291  1.00  0.00     0.193 A
BRANCH  16  19
HETATM   19  C1  UNL     1     -16.741 -10.249 -33.252  1.00  0.00     0.286 C
HETATM   20  N1  UNL     1     -17.073  -9.247 -32.277  1.00  0.00    -0.056 NA
HETATM   21  O1  UNL     1     -16.024 -11.214 -32.871  1.00  0.00    -0.269 OA
ENDBRANCH  16  19
BRANCH  18  22
HETATM   22  O7  UNL     1     -17.982  -7.863 -34.802  1.00  0.00    -0.343 OA
ATOM     23  H7  UNL     1     -18.779  -7.348 -34.852  1.00  0.00     0.219 HD
ENDBRANCH  18  22
ENDBRANCH  12  13
ENDBRANCH  11  12
BRANCH  11  24
HETATM   24  O2  UNL     1     -18.384  -8.465 -39.808  1.00  0.00    -0.384 OA
ATOM     25  H2  UNL     1     -19.018  -8.199 -40.464  1.00  0.00     0.211 HD
ENDBRANCH  11  24
ENDBRANCH  10  11
BRANCH  10  26
HETATM   26  O3  UNL     1     -20.864  -9.176 -40.494  1.00  0.00    -0.361 OA
ATOM     27  H3  UNL     1     -20.630  -9.428 -41.380  1.00  0.00     0.217 HD
ENDBRANCH  10  26
ENDBRANCH   1  10
BRANCH   3  28
HETATM   28  C8  UNL     1     -19.333 -14.510 -38.467  1.00  0.00     0.085 A
HETATM   29  C9  UNL     1     -18.984 -15.369 -39.445  1.00  0.00     0.033 A
HETATM   30  C11 UNL     1     -18.028 -16.321 -39.115  1.00  0.00     0.065 A
HETATM   31  S1  UNL     1     -17.662 -15.989 -37.504  1.00  0.00    -0.084 SA
HETATM   32  C12 UNL     1     -18.704 -14.660 -37.248  1.00  0.00     0.115 A
HETATM   33  N7  UNL     1     -18.780 -13.948 -36.011  1.00  0.00    -0.092 NA
BRANCH  29  34
HETATM   34  C10 UNL     1     -19.475 -15.366 -40.892  1.00  0.00     0.353 C
BRANCH  34  35
HETATM   35  N6  UNL     1     -20.799 -15.839 -41.061  1.00  0.00    -0.049 N
ATOM     36  H63 UNL     1     -20.828 -16.856 -40.976  1.00  0.00     0.277 HD
ATOM     37  H62 UNL     1     -21.375 -15.581 -40.259  1.00  0.00     0.277 HD
ATOM     38  H61 UNL     1     -21.245 -15.542 -41.930  1.00  0.00     0.277 HD
ENDBRANCH  34  35
BRANCH  34  39
HETATM   39  O4  UNL     1     -18.662 -16.211 -41.691  1.00  0.00    -0.366 OA
ATOM     40  H4  UNL     1     -19.175 -16.933 -42.036  1.00  0.00     0.212 HD
ENDBRANCH  34  39
ENDBRANCH  29  34
ENDBRANCH   3  28
TORSDOF 12
ENDMDL