MODEL 3
REMARK VINA RESULT: -5.342892084      2.431      3.858
REMARK  13 active torsions:
REMARK  status: ('A' for Active; 'I' for Inactive)
REMARK    1  A    between atoms: C3_4  and  C4_5
REMARK    2  A    between atoms: C4_5  and  O2_6
REMARK    3  A    between atoms: C4_5  and  C5_8
REMARK    4  A    between atoms: C5_8  and  O3_9
REMARK    5  A    between atoms: C5_8  and  C6_11
REMARK    6  A    between atoms: C6_11  and  O4_12
REMARK    7  A    between atoms: C6_11  and  C7_14
REMARK    8  A    between atoms: C7_14  and  O5_15
REMARK    9  A    between atoms: C10_21  and  O8_22
REMARK   10  A    between atoms: C10_21  and  O9_24
REMARK   11  A    between atoms: C11_26  and  C12_27
REMARK   12  A    between atoms: C12_27  and  O10_28
REMARK   13  A    between atoms: C12_27  and  O11_30
ROOT
HETATM    1  O1  UNL     1     -18.947 -10.457 -38.978  1.00  0.00    -0.271 OA
HETATM    2  C1  UNL     1     -18.746 -10.928 -37.807  1.00  0.00     0.245 C
HETATM    3  C2  UNL     1     -18.457 -10.026 -36.661  1.00  0.00     0.139 C
HETATM    4  C3  UNL     1     -17.904 -10.897 -35.553  1.00  0.00     0.168 C
HETATM    5  O6  UNL     1     -18.759 -11.918 -35.212  1.00  0.00    -0.319 OA
HETATM    6  C8  UNL     1     -19.105 -12.759 -36.221  1.00  0.00     0.338 C
HETATM    7  O7  UNL     1     -18.598 -14.023 -35.939  1.00  0.00    -0.322 OA
HETATM    8  C9  UNL     1     -17.379 -14.309 -36.479  1.00  0.00     0.243 C
HETATM    9  C10 UNL     1     -17.438 -15.344 -37.580  1.00  0.00     0.192 C
HETATM   10  C11 UNL     1     -18.810 -15.530 -38.150  1.00  0.00     0.140 C
HETATM   11  C13 UNL     1     -19.410 -14.296 -38.752  1.00  0.00     0.186 C
HETATM   12  N1  UNL     1     -18.538 -13.193 -38.602  1.00  0.00    -0.310 N
ATOM     13  H1  UNL     1     -17.755 -13.045 -39.238  1.00  0.00     0.182 HD
HETATM   14  N2  UNL     1     -18.791 -12.323 -37.559  1.00  0.00    -0.192 N
HETATM   15  S1  UNL     1     -21.117 -14.007 -38.213  1.00  0.00    -0.063 SA
HETATM   16  S2  UNL     1     -20.933 -13.036 -36.292  1.00  0.00    -0.001 SA
ENDROOT
BRANCH   4  17
HETATM   17  C4  UNL     1     -17.742 -10.008 -34.329  1.00  0.00     0.179 C
BRANCH  17  18
HETATM   18  O2  UNL     1     -17.998  -8.706 -34.749  1.00  0.00    -0.390 OA
ATOM     19  H2  UNL     1     -18.382  -8.254 -34.008  1.00  0.00     0.210 HD
ENDBRANCH  17  18
BRANCH  17  20
HETATM   20  C5  UNL     1     -18.723 -10.363 -33.242  1.00  0.00     0.180 C
BRANCH  20  21
HETATM   21  O3  UNL     1     -19.972  -9.822 -33.441  1.00  0.00    -0.390 OA
ATOM     22  H3  UNL     1     -20.543  -9.910 -32.686  1.00  0.00     0.210 HD
ENDBRANCH  20  21
BRANCH  20  23
HETATM   23  C6  UNL     1     -18.176  -9.748 -31.951  1.00  0.00     0.173 C
BRANCH  23  24
HETATM   24  O4  UNL     1     -16.949  -9.132 -32.171  1.00  0.00    -0.391 OA
ATOM     25  H4  UNL     1     -16.496  -8.969 -31.351  1.00  0.00     0.210 HD
ENDBRANCH  23  24
BRANCH  23  26
HETATM   26  C7  UNL     1     -19.137  -8.720 -31.395  1.00  0.00     0.198 C
BRANCH  26  27
HETATM   27  O5  UNL     1     -19.125  -7.571 -32.197  1.00  0.00    -0.398 OA
ATOM     28  H5  UNL     1     -19.866  -7.017 -31.980  1.00  0.00     0.209 HD
ENDBRANCH  26  27
ENDBRANCH  23  26
ENDBRANCH  20  23
ENDBRANCH  17  20
ENDBRANCH   4  17
BRANCH   9  29
HETATM   29  O8  UNL     1     -16.602 -14.936 -38.621  1.00  0.00    -0.363 OA
ATOM     30  H8  UNL     1     -15.952 -15.612 -38.770  1.00  0.00     0.213 HD
ENDBRANCH   9  29
BRANCH   9  31
HETATM   31  O9  UNL     1     -16.965 -16.581 -37.150  1.00  0.00    -0.363 OA
ATOM     32  H9  UNL     1     -16.103 -16.768 -37.503  1.00  0.00     0.213 HD
ENDBRANCH   9  31
BRANCH  10  33
HETATM   33  C12 UNL     1     -18.724 -16.659 -39.177  1.00  0.00     0.266 C
BRANCH  33  34
HETATM   34  O10 UNL     1     -17.575 -17.429 -38.938  1.00  0.00    -0.371 OA
ATOM     35  H10 UNL     1     -17.494 -18.100 -39.606  1.00  0.00     0.212 HD
ENDBRANCH  33  34
BRANCH  33  36
HETATM   36  O11 UNL     1     -18.709 -16.209 -40.475  1.00  0.00    -0.371 OA
ATOM     37  H11 UNL     1     -17.940 -15.690 -40.681  1.00  0.00     0.212 HD
ENDBRANCH  33  36
ENDBRANCH  10  33
TORSDOF 13
ENDMDL