MODEL 3
REMARK VINA RESULT: -6.591223548      3.724      7.213
REMARK  10 active torsions:
REMARK  status: ('A' for Active; 'I' for Inactive)
REMARK    1  A    between atoms: N1_1  and  C1_4
REMARK    2  A    between atoms: C4_12  and  C5_13
REMARK    3  A    between atoms: C5_13  and  N4_14
REMARK    4  A    between atoms: N4_14  and  C6_15
REMARK    5  A    between atoms: N4_14  and  C7_18
REMARK    6  A    between atoms: C6_15  and  O2_16
REMARK    7  A    between atoms: C7_18  and  C8_19
REMARK    8  A    between atoms: C10_21  and  N5_22
REMARK    9  A    between atoms: C12_28  and  N8_29
REMARK   10  A    between atoms: C13_34  and  N10_35
ROOT
HETATM    1  N4  UNL     1     -17.991 -15.286 -36.907  1.00  0.00    -0.342 N
ENDROOT
BRANCH   1   2
HETATM    2  C5  UNL     1     -17.833 -15.935 -38.158  1.00  0.00     0.207 C
BRANCH   2   3
HETATM    3  C4  UNL     1     -18.611 -15.361 -39.266  1.00  0.00     0.115 A
HETATM    4  N3  UNL     1     -19.006 -14.074 -39.231  1.00  0.00    -0.336 N
HETATM    5  C3  UNL     1     -19.721 -13.614 -40.297  1.00  0.00     0.149 A
ATOM      6  H3  UNL     1     -18.780 -13.470 -38.441  1.00  0.00     0.167 HD
HETATM    7  C2  UNL     1     -20.166 -12.305 -40.340  1.00  0.00     0.290 A
HETATM    8  C15 UNL     1     -20.029 -14.423 -41.366  1.00  0.00     0.168 A
HETATM    9  N2  UNL     1     -20.865 -11.903 -41.412  1.00  0.00    -0.154 N
HETATM   10  O1  UNL     1     -19.891 -11.552 -39.368  1.00  0.00    -0.265 OA
HETATM   11  C1  UNL     1     -21.155 -12.719 -42.449  1.00  0.00     0.680 A
ATOM     12  H2  UNL     1     -21.194 -10.938 -41.445  1.00  0.00     0.187 HD
HETATM   13  N14 UNL     1     -20.726 -13.986 -42.412  1.00  0.00    -0.173 N
ATOM     14  H14 UNL     1     -20.934 -14.618 -43.186  1.00  0.00     0.186 HD
HETATM   15  N13 UNL     1     -19.611 -15.713 -41.361  1.00  0.00    -0.282 N
HETATM   16  N12 UNL     1     -18.917 -16.164 -40.329  1.00  0.00    -0.286 N
ATOM     17  H13 UNL     1     -19.830 -16.329 -42.143  1.00  0.00     0.188 HD
ATOM     18  H12 UNL     1     -18.604 -17.134 -40.326  1.00  0.00     0.188 HD
BRANCH  11  19
HETATM   19  N1  UNL     1     -21.826 -12.284 -43.448  1.00  0.00    -0.234 N
ATOM     20  H12 UNL     1     -22.173 -11.326 -43.465  1.00  0.00     0.174 HD
ATOM     21  H11 UNL     1     -22.023 -12.894 -44.243  1.00  0.00     0.174 HD
ENDBRANCH  11  19
ENDBRANCH   2   3
ENDBRANCH   1   2
BRANCH   1  22
HETATM   22  C6  UNL     1     -17.044 -14.336 -36.512  1.00  0.00     0.225 C
BRANCH  22  23
HETATM   23  O2  UNL     1     -17.351 -13.022 -36.903  1.00  0.00    -0.356 OA
ATOM     24  H2  UNL     1     -16.652 -12.398 -36.747  1.00  0.00     0.218 HD
ENDBRANCH  22  23
ENDBRANCH   1  22
BRANCH   1  25
HETATM   25  C7  UNL     1     -18.815 -15.942 -35.986  1.00  0.00     0.097 C
BRANCH  25  26
HETATM   26  C8  UNL     1     -19.966 -15.131 -35.506  1.00  0.00     0.167 C
HETATM   27  C9  UNL     1     -20.691 -14.362 -36.607  1.00  0.00     0.093 C
HETATM   28  C10 UNL     1     -20.774 -13.327 -35.494  1.00  0.00     0.251 C
HETATM   29  O3  UNL     1     -19.597 -13.862 -35.010  1.00  0.00    -0.354 OA
BRANCH  28  30
HETATM   30  N5  UNL     1     -20.690 -11.958 -35.900  1.00  0.00    -0.230 N
HETATM   31  N6  UNL     1     -21.475 -11.288 -36.714  1.00  0.00    -0.236 N
HETATM   32  N7  UNL     1     -21.054 -10.024 -36.834  1.00  0.00    -0.279 N
ATOM     33  H6  UNL     1     -22.290 -11.676 -37.187  1.00  0.00     0.208 HD
HETATM   34  C11 UNL     1     -19.959  -9.883 -36.067  1.00  0.00     0.140 A
ATOM     35  H7  UNL     1     -21.486  -9.297 -37.405  1.00  0.00     0.189 HD
HETATM   36  C12 UNL     1     -19.113  -8.839 -35.795  1.00  0.00     0.147 A
HETATM   37  C14 UNL     1     -19.739 -11.098 -35.487  1.00  0.00     0.173 A
HETATM   38  N9  UNL     1     -18.094  -9.073 -34.958  1.00  0.00    -0.175 N
HETATM   39  C13 UNL     1     -17.873 -10.264 -34.386  1.00  0.00     0.679 A
ATOM     40  H9  UNL     1     -17.454  -8.306 -34.745  1.00  0.00     0.186 HD
HETATM   41  N11 UNL     1     -18.702 -11.285 -34.654  1.00  0.00    -0.173 N
ATOM     42  H11 UNL     1     -18.547 -12.198 -34.226  1.00  0.00     0.186 HD
BRANCH  36  43
HETATM   43  N8  UNL     1     -19.277  -7.668 -36.318  1.00  0.00    -0.383 N
ATOM     44  H82 UNL     1     -20.127  -7.134 -36.137  1.00  0.00     0.157 HD
ATOM     45  H81 UNL     1     -18.574  -7.240 -36.921  1.00  0.00     0.157 HD
ENDBRANCH  36  43
BRANCH  39  46
HETATM   46  N10 UNL     1     -16.869 -10.445 -33.578  1.00  0.00    -0.234 N
ATOM     47 2H10 UNL     1     -16.246  -9.665 -33.365  1.00  0.00     0.174 HD
ATOM     48 1H10 UNL     1     -16.694 -11.356 -33.154  1.00  0.00     0.174 HD
ENDBRANCH  39  46
ENDBRANCH  28  30
ENDBRANCH  25  26
ENDBRANCH   1  25
TORSDOF 10
ENDMDL