MODEL 4
REMARK VINA RESULT: -5.478946600      0.919      1.200
REMARK  3 active torsions:
REMARK  status: ('A' for Active; 'I' for Inactive)
REMARK    1  A    between atoms: S1_2  and  C2_3
REMARK    2  A    between atoms: C5_8  and  C6_9
REMARK    3  A    between atoms: C7_10  and  C8_11
ROOT
HETATM    1  C2  UNL     1      14.736  10.372   1.247  1.00  0.00     0.222 C
HETATM    2  C3  UNL     1      16.124  10.410   1.745  1.00  0.00     0.102 C
HETATM    3  N1  UNL     1      17.177  10.369   0.817  1.00  0.00    -0.376 N
ATOM      4  H1  UNL     1      18.145  10.393   1.138  1.00  0.00     0.164 HD
HETATM    5  C4  UNL     1      16.890  10.296  -0.558  1.00  0.00     0.096 C
HETATM    6  C5  UNL     1      15.516   9.710  -0.781  1.00  0.00     0.184 C
HETATM    7  O1  UNL     1      14.636  10.604  -0.146  1.00  0.00    -0.356 OA
ENDROOT
BRANCH   6   8
HETATM    8  C6  UNL     1      15.166   9.558  -2.209  1.00  0.00     0.006 C
HETATM    9  C7  UNL     1      14.162   8.834  -2.649  1.00  0.00    -0.023 C
BRANCH   9  10
HETATM   10  C8  UNL     1      13.842   8.707  -4.090  1.00  0.00     0.008 A
HETATM   11  C9  UNL     1      12.828   9.601  -4.715  1.00  0.00     0.009 A
HETATM   12  C10 UNL     1      14.315   9.881  -4.916  1.00  0.00     0.009 A
ENDBRANCH   9  10
ENDBRANCH   6   8
BRANCH   1  13
HETATM   13  S1  UNL     1      13.885   8.806   1.542  1.00  0.00    -0.137 SA
HETATM   14  C1  UNL     1      12.330   8.962   2.383  1.00  0.00     0.093 C
ENDBRANCH   1  13
TORSDOF 3
ENDMDL