MODEL 1
REMARK VINA RESULT: -5.492857068      0.000      0.000
REMARK  3 active torsions:
REMARK  status: ('A' for Active; 'I' for Inactive)
REMARK    1  A    between atoms: C4_4  and  S1_5
REMARK    2  A    between atoms: S1_5  and  C5_6
REMARK    3  A    between atoms: C5_6  and  C6_7
ROOT
HETATM    1  C6  UNL     1      14.486  10.340  -2.457  1.00  0.00     0.004 C
HETATM    2  C7  UNL     1      13.093   9.930  -2.189  1.00  0.00     0.050 C
HETATM    3  C8  UNL     1      12.234   9.625  -3.355  1.00  0.00     0.060 C
HETATM    4  N1  UNL     1      12.861   9.345  -4.575  1.00  0.00    -0.382 N
ATOM      5  H1  UNL     1      12.319   9.336  -5.439  1.00  0.00     0.163 HD
HETATM    6  C9  UNL     1      14.234   9.076  -4.604  1.00  0.00     0.060 C
HETATM    7  C10 UNL     1      14.995  10.100  -3.831  1.00  0.00     0.050 C
ENDROOT
BRANCH   1   8
HETATM    8  C5  UNL     1      15.417   9.600  -1.486  1.00  0.00     0.079 C
BRANCH   8   9
HETATM    9  S1  UNL     1      14.424   8.457  -0.515  1.00  0.00    -0.164 SA
BRANCH   9  10
HETATM   10  C4  UNL     1      14.710   8.814   1.232  1.00  0.00     0.047 C
HETATM   11  C3  UNL     1      13.668   8.106   2.032  1.00  0.00     0.015 C
HETATM   12  C2  UNL     1      12.534   9.080   2.156  1.00  0.00     0.001 C
HETATM   13  C1  UNL     1      12.979  10.378   1.563  1.00  0.00     0.001 C
HETATM   14  C11 UNL     1      14.477  10.292   1.451  1.00  0.00     0.015 C
ENDBRANCH   9  10
ENDBRANCH   8   9
ENDBRANCH   1   8
TORSDOF 3
ENDMDL