MODEL 2
REMARK VINA RESULT: -5.922704118      1.660      2.553
REMARK  4 active torsions:
REMARK  status: ('A' for Active; 'I' for Inactive)
REMARK    1  A    between atoms: C2_2  and  C3_3
REMARK    2  A    between atoms: C3_3  and  C4_4
REMARK    3  A    between atoms: C4_4  and  N1_5
REMARK    4  A    between atoms: N1_5  and  C6_7
ROOT
HETATM    1  C6  UNL     1      14.073   9.636   0.569  1.00  0.00     0.084 C
HETATM    2  N2  UNL     1      14.971  10.402   1.079  1.00  0.00    -0.369 N
ATOM      3  H2  UNL     1      15.514  11.096   0.565  1.00  0.00     0.161 HD
HETATM    4  C7  UNL     1      15.091  10.129   2.487  1.00  0.00     0.044 C
HETATM    5  C8  UNL     1      16.489  10.341   3.001  1.00  0.00     0.040 C
HETATM    6  C9  UNL     1      14.076  10.997   3.174  1.00  0.00     0.149 C
HETATM    7  N3  UNL     1      12.729  10.606   3.003  1.00  0.00    -0.399 N
ATOM      8  H3  UNL     1      11.975  11.214   3.325  1.00  0.00     0.158 HD
HETATM    9  C10 UNL     1      12.432   9.384   2.393  1.00  0.00     0.068 C
HETATM   10  C11 UNL     1      13.511   8.735   1.610  1.00  0.00     0.093 C
HETATM   11  C12 UNL     1      14.731   8.662   2.549  1.00  0.00     0.050 C
ENDROOT
BRANCH   1  12
HETATM   12  N1  UNL     1      13.750   9.697  -0.814  1.00  0.00    -0.375 N
HETATM   13  C5  UNL     1      12.737  10.608  -1.275  1.00  0.00     0.150 C
BRANCH  12  14
HETATM   14  C4  UNL     1      14.455   8.834  -1.753  1.00  0.00     0.123 C
BRANCH  14  15
HETATM   15  C3  UNL     1      14.020   9.163  -3.173  1.00  0.00     0.019 C
BRANCH  15  16
HETATM   16  C2  UNL     1      15.121   9.909  -3.871  1.00  0.00    -0.003 C
HETATM   17  C1  UNL     1      15.064   9.819  -5.368  1.00  0.00     0.005 C
ENDBRANCH  15  16
ENDBRANCH  14  15
ENDBRANCH  12  14
ENDBRANCH   1  12
TORSDOF 4
ENDMDL