MODEL 1
REMARK VINA RESULT: -5.784168073      0.000      0.000
REMARK  4 active torsions:
REMARK  status: ('A' for Active; 'I' for Inactive)
REMARK    1  A    between atoms: N1_1  and  C1_5
REMARK    2  A    between atoms: C6_11  and  C7_12
REMARK    3  A    between atoms: C7_12  and  C8_13
REMARK    4  A    between atoms: C8_13  and  C9_14
ROOT
HETATM    1  C1  UNL     1      14.128   8.560  -0.121  1.00  0.00     0.194 C
HETATM    2  C2  UNL     1      13.525   9.137   1.186  1.00  0.00     0.034 C
HETATM    3  C3  UNL     1      14.597   9.024   2.246  1.00  0.00     0.009 C
HETATM    4  C4  UNL     1      15.709  10.030   1.953  1.00  0.00     0.079 C
HETATM    5  C5  UNL     1      15.652  10.415   0.518  1.00  0.00     0.133 C
HETATM    6  O1  UNL     1      15.946  11.531   0.187  1.00  0.00    -0.298 OA
HETATM    7  C6  UNL     1      15.232   9.441  -0.538  1.00  0.00     0.085 C
ENDROOT
BRANCH   7   8
HETATM    8  C7  UNL     1      15.149  10.098  -1.873  1.00  0.00     0.015 C
BRANCH   8   9
HETATM    9  C8  UNL     1      13.862  10.309  -2.526  1.00  0.00     0.017 C
BRANCH   9  10
HETATM   10  C9  UNL     1      13.626   9.991  -3.948  1.00  0.00     0.056 A
HETATM   11  C10 UNL     1      13.797   8.479  -4.226  1.00  0.00     0.089 A
HETATM   12  S1  UNL     1      14.874   9.632  -5.125  1.00  0.00    -0.162 SA
ENDBRANCH   9  10
ENDBRANCH   8   9
ENDBRANCH   7   8
BRANCH   1  13
HETATM   13  N1  UNL     1      14.587   7.253   0.271  1.00  0.00    -0.074 N
ATOM     14  H13 UNL     1      13.865   6.532   0.266  1.00  0.00     0.274 HD
ATOM     15  H12 UNL     1      15.196   6.798  -0.408  1.00  0.00     0.274 HD
ATOM     16  H11 UNL     1      15.016   7.417   1.182  1.00  0.00     0.274 HD
ENDBRANCH   1  13
TORSDOF 4
ENDMDL