MODEL 1
REMARK VINA RESULT: -6.455791643      0.000      0.000
REMARK  3 active torsions:
REMARK  status: ('A' for Active; 'I' for Inactive)
REMARK    1  A    between atoms: C2_2  and  C3_3
REMARK    2  A    between atoms: C3_3  and  C4_4
REMARK    3  A    between atoms: C4_4  and  C5_5
ROOT
HETATM    1  C5  UNL     1      15.772  10.938   0.571  1.00  0.00     0.040 C
HETATM    2  C6  UNL     1      16.878  10.361  -0.341  1.00  0.00     0.130 C
HETATM    3  N1  UNL     1      18.128  11.015  -0.049  1.00  0.00    -0.364 N
ATOM      4  H1  UNL     1      18.705  11.440  -0.774  1.00  0.00     0.162 HD
HETATM    5  C7  UNL     1      18.469  11.023   1.213  1.00  0.00     0.187 C
HETATM    6  N2  UNL     1      19.677  11.633   1.645  1.00  0.00    -0.064 NA
HETATM    7  N3  UNL     1      17.568  10.397   2.119  1.00  0.00    -0.342 N
HETATM    8  C8  UNL     1      18.171   9.641   3.227  1.00  0.00     0.154 C
HETATM    9  C9  UNL     1      16.119  10.493   1.979  1.00  0.00     0.199 C
HETATM   10  C10 UNL     1      15.704  11.471   2.981  1.00  0.00     0.085 C
HETATM   11  N4  UNL     1      15.359  12.266   3.776  1.00  0.00    -0.195 NA
ENDROOT
BRANCH   1  12
HETATM   12  C4  UNL     1      14.512  10.322   0.064  1.00  0.00     0.009 C
BRANCH  12  13
HETATM   13  C3  UNL     1      13.785  11.055  -1.002  1.00  0.00     0.000 C
BRANCH  13  14
HETATM   14  C2  UNL     1      12.733  10.235  -1.662  1.00  0.00    -0.005 C
HETATM   15  C1  UNL     1      13.158   9.882  -3.092  1.00  0.00     0.005 C
ENDBRANCH  13  14
ENDBRANCH  12  13
ENDBRANCH   1  12
TORSDOF 3
ENDMDL