MODEL 5
REMARK VINA RESULT: -5.421708592      2.098      4.935
REMARK  4 active torsions:
REMARK  status: ('A' for Active; 'I' for Inactive)
REMARK    1  A    between atoms: C2_2  and  C3_3
REMARK    2  A    between atoms: C3_3  and  C4_4
REMARK    3  A    between atoms: C4_4  and  C5_5
REMARK    4  A    between atoms: N1_6  and  O1_7
ROOT
HETATM    1  C5  UNL     1      14.419  10.585  -0.381  1.00  0.00     0.118 C
HETATM    2  N1  UNL     1      15.051   9.320  -0.783  1.00  0.00    -0.132 NA
HETATM    3  S1  UNL     1      14.192   8.409   0.460  1.00  0.00    -0.043 SA
HETATM    4  C6  UNL     1      14.318  10.116   1.022  1.00  0.00     0.044 C
HETATM    5  C7  UNL     1      13.187  10.621   1.850  1.00  0.00     0.023 C
HETATM    6  C8  UNL     1      13.737  10.602   3.281  1.00  0.00     0.002 C
HETATM    7  C9  UNL     1      15.165  11.072   3.085  1.00  0.00     0.002 C
HETATM    8  C10 UNL     1      15.565  10.402   1.804  1.00  0.00     0.023 C
ENDROOT
BRANCH   1   9
HETATM    9  C4  UNL     1      13.134  10.743  -1.150  1.00  0.00     0.024 C
BRANCH   9  10
HETATM   10  C3  UNL     1      13.447  10.339  -2.595  1.00  0.00     0.001 C
BRANCH  10  11
HETATM   11  C2  UNL     1      12.287   9.588  -3.206  1.00  0.00    -0.004 C
HETATM   12  C1  UNL     1      12.438   9.456  -4.697  1.00  0.00     0.005 C
ENDBRANCH  10  11
ENDBRANCH   9  10
ENDBRANCH   1   9
BRANCH   2  13
HETATM   13  O1  UNL     1      16.393   9.351  -0.639  1.00  0.00    -0.302 OA
ATOM     14  H1  UNL     1      16.660   9.843   0.129  1.00  0.00     0.238 HD
ENDBRANCH   2  13
TORSDOF 4
ENDMDL