MODEL 3
REMARK VINA RESULT: -6.136658138      1.940      4.075
REMARK  3 active torsions:
REMARK  status: ('A' for Active; 'I' for Inactive)
REMARK    1  A    between atoms: C2_2  and  C3_3
REMARK    2  A    between atoms: C3_3  and  C4_4
REMARK    3  A    between atoms: C4_4  and  C5_5
ROOT
HETATM    1  C4  UNL     1      14.792   9.937   1.783  1.00  0.00     0.025 C
HETATM    2  C6  UNL     1      13.903  10.654   2.783  1.00  0.00     0.022 C
HETATM    3  C7  UNL     1      14.836  11.551   3.544  1.00  0.00    -0.013 C
HETATM    4  C8  UNL     1      15.404  10.691   4.684  1.00  0.00     0.005 C
HETATM    5  C9  UNL     1      16.194   9.657   3.851  1.00  0.00     0.006 C
HETATM    6  C10 UNL     1      16.112  10.090   2.416  1.00  0.00     0.002 C
HETATM    7  C11 UNL     1      16.138  11.613   2.723  1.00  0.00     0.010 C
ENDROOT
BRANCH   1   8
HETATM    8  C3  UNL     1      14.653  10.665   0.473  1.00  0.00     0.017 C
BRANCH   8   9
HETATM    9  C2  UNL     1      13.228  10.679  -0.067  1.00  0.00    -0.003 C
HETATM   10  C1  UNL     1      13.246  10.709  -1.579  1.00  0.00     0.005 C
ENDBRANCH   8   9
ENDBRANCH   1   8
BRANCH   1  11
HETATM   11  C5  UNL     1      14.331   8.508   1.631  1.00  0.00     0.119 A
HETATM   12  N1  UNL     1      13.318   7.895   2.346  1.00  0.00    -0.270 N
HETATM   13  N2  UNL     1      13.216   6.645   1.904  1.00  0.00    -0.005 NA
ATOM     14  H1  UNL     1      12.753   8.324   3.078  1.00  0.00     0.185 HD
HETATM   15  N3  UNL     1      14.126   6.421   0.927  1.00  0.00    -0.225 N
HETATM   16  N4  UNL     1      14.735   7.579   0.832  1.00  0.00    -0.274 N
ATOM     17  H3  UNL     1      14.297   5.566   0.398  1.00  0.00     0.205 HD
ATOM     18  H4  UNL     1      15.488   7.736   0.162  1.00  0.00     0.189 HD
ENDBRANCH   1  11
TORSDOF 3
ENDMDL