MODEL 3
REMARK VINA RESULT: -6.462971729      1.211      1.832
REMARK  3 active torsions:
REMARK  status: ('A' for Active; 'I' for Inactive)
REMARK    1  A    between atoms: C2_2  and  N1_3
REMARK    2  A    between atoms: C5_6  and  N2_7
REMARK    3  A    between atoms: N2_7  and  N3_9
ROOT
HETATM    1  N2  UNL     1      15.071  10.223   0.720  1.00  0.00    -0.332 N
ATOM      2  H2  UNL     1      14.334  10.128   1.418  1.00  0.00     0.180 HD
ENDROOT
BRANCH   1   3
HETATM    3  C5  UNL     1      14.784  10.646  -0.640  1.00  0.00     0.102 C
HETATM    4  C4  UNL     1      13.378  10.248  -0.946  1.00  0.00     0.057 C
HETATM    5  C3  UNL     1      13.084  10.183  -2.423  1.00  0.00     0.274 C
HETATM    6  N1  UNL     1      14.070   9.384  -3.132  1.00  0.00     0.088 N
HETATM    7  C12 UNL     1      15.402   9.907  -2.965  1.00  0.00     0.274 C
HETATM    8  C11 UNL     1      15.816  10.070  -1.537  1.00  0.00     0.057 C
BRANCH   6   9
HETATM    9  C2  UNL     1      13.741   9.495  -4.546  1.00  0.00     0.268 C
HETATM   10  C1  UNL     1      14.952   9.873  -5.369  1.00  0.00     0.037 C
ENDBRANCH   6   9
ENDBRANCH   1   3
BRANCH   1  11
HETATM   11  N3  UNL     1      16.408   9.953   1.023  1.00  0.00    -0.313 N
HETATM   12  C6  UNL     1      17.030  10.518   1.998  1.00  0.00     0.003 C
HETATM   13  C7  UNL     1      16.443  11.517   2.927  1.00  0.00     0.054 C
HETATM   14  C10 UNL     1      18.436  10.326   2.426  1.00  0.00     0.054 C
HETATM   15  C8  UNL     1      17.276  11.399   4.186  1.00  0.00     0.006 C
HETATM   16  C9  UNL     1      18.309  10.351   3.933  1.00  0.00     0.006 C
ATOM     17  H3  UNL     1      16.913   9.279   0.447  1.00  0.00     0.186 HD
ENDBRANCH   1  11
TORSDOF 3
ENDMDL