MODEL 3
REMARK VINA RESULT: -6.288652107      2.074      5.781
REMARK  4 active torsions:
REMARK  status: ('A' for Active; 'I' for Inactive)
REMARK    1  A    between atoms: C2_2  and  N1_3
REMARK    2  A    between atoms: C5_8  and  N3_9
REMARK    3  A    between atoms: N3_9  and  C6_11
REMARK    4  A    between atoms: C6_11  and  C7_12
ROOT
HETATM    1  N3  UNL     1      15.667   9.878   0.293  1.00  0.00    -0.226 N
ATOM      2  H3  UNL     1      16.307   9.104   0.117  1.00  0.00     0.177 HD
ENDROOT
BRANCH   1   3
HETATM    3  C5  UNL     1      15.284  10.180   1.631  1.00  0.00     0.672 C
HETATM    4  N1  UNL     1      13.946  10.055   2.128  1.00  0.00    -0.217 N
HETATM    5  C3  UNL     1      13.868  11.095   3.171  1.00  0.00     0.161 C
HETATM    6  C4  UNL     1      15.259  10.862   3.803  1.00  0.00     0.158 C
HETATM    7  N2  UNL     1      16.052  10.646   2.588  1.00  0.00    -0.225 N
ATOM      8  H2  UNL     1      17.051  10.831   2.500  1.00  0.00     0.177 HD
BRANCH   4   9
HETATM    9  C2  UNL     1      12.938   9.130   1.684  1.00  0.00     0.137 C
HETATM   10  C1  UNL     1      13.305   7.718   2.008  1.00  0.00     0.027 C
ENDBRANCH   4   9
ENDBRANCH   1   3
BRANCH   1  11
HETATM   11  C6  UNL     1      15.161  10.652  -0.819  1.00  0.00     0.142 C
BRANCH  11  12
HETATM   12  C7  UNL     1      14.599   9.680  -1.900  1.00  0.00     0.004 C
HETATM   13  C8  UNL     1      13.147  10.094  -2.023  1.00  0.00     0.006 C
HETATM   14  C9  UNL     1      12.465   9.710  -3.281  1.00  0.00     0.000 C
HETATM   15  C10 UNL     1      13.338   9.151  -4.344  1.00  0.00     0.000 C
HETATM   16  C11 UNL     1      14.687   9.825  -4.434  1.00  0.00     0.000 C
HETATM   17  C12 UNL     1      15.415   9.893  -3.119  1.00  0.00     0.006 C
ENDBRANCH  11  12
ENDBRANCH   1  11
TORSDOF 4
ENDMDL