MODEL 1
REMARK VINA RESULT: -6.217606111      0.000      0.000
REMARK  2 active torsions:
REMARK  status: ('A' for Active; 'I' for Inactive)
REMARK    1  A    between atoms: C2_2  and  N3_7
REMARK    2  A    between atoms: N3_7  and  C5_9
ROOT
HETATM    1  C1  UNL     1     -17.154  -0.709   1.954  1.00  0.00     0.072 C
HETATM    2  C2  UNL     1     -17.741  -0.662   0.556  1.00  0.00     0.202 C
HETATM    3  C3  UNL     1     -19.074  -1.273   0.665  1.00  0.00     0.106 C
HETATM    4  N1  UNL     1     -20.122  -1.754   0.756  1.00  0.00    -0.193 NA
HETATM    5  C4  UNL     1     -17.883   0.786   0.237  1.00  0.00     0.106 C
HETATM    6  N2  UNL     1     -17.981   1.907  -0.014  1.00  0.00    -0.193 NA
ENDROOT
BRANCH   2   7
HETATM    7  N3  UNL     1     -16.940  -1.218  -0.450  1.00  0.00    -0.386 N
ATOM      8  H3  UNL     1     -17.333  -1.942  -1.052  1.00  0.00     0.156 HD
BRANCH   7   9
HETATM    9  C5  UNL     1     -15.614  -0.809  -0.654  1.00  0.00     0.079 C
HETATM   10  C6  UNL     1     -14.756  -2.047  -0.319  1.00  0.00     0.025 C
HETATM   11  C7  UNL     1     -13.423  -1.816  -0.952  1.00  0.00     0.002 C
HETATM   12  C8  UNL     1     -13.633  -0.712  -1.953  1.00  0.00     0.002 C
HETATM   13  C9  UNL     1     -15.162  -0.543  -2.046  1.00  0.00     0.025 C
ENDBRANCH   7   9
ENDBRANCH   2   7
TORSDOF 2
ENDMDL