MODEL 2
REMARK VINA RESULT: -5.777917455      3.258      5.139
REMARK  3 active torsions:
REMARK  status: ('A' for Active; 'I' for Inactive)
REMARK    1  A    between atoms: O1_2  and  C2_3
REMARK    2  A    between atoms: C3_5  and  C4_6
REMARK    3  A    between atoms: C9_11  and  N1_12
ROOT
HETATM    1  C2  UNL     1     -17.465   0.668   0.748  1.00  0.00     0.289 C
HETATM    2  O2  UNL     1     -16.077   0.593   0.874  1.00  0.00    -0.353 OA
HETATM    3  C3  UNL     1     -15.971  -0.514   1.685  1.00  0.00     0.134 C
HETATM    4  C8  UNL     1     -16.742  -1.557   0.913  1.00  0.00     0.070 C
HETATM    5  C9  UNL     1     -17.909  -0.712   0.377  1.00  0.00     0.240 C
ENDROOT
BRANCH   3   6
HETATM    6  C4  UNL     1     -14.594  -0.925   2.041  1.00  0.00    -0.025 C
HETATM    7  C5  UNL     1     -14.358  -1.208   3.479  1.00  0.00     0.017 C
HETATM    8  C6  UNL     1     -13.599   0.147   1.607  1.00  0.00     0.017 C
HETATM    9  C7  UNL     1     -14.250  -2.171   1.248  1.00  0.00     0.017 C
ENDBRANCH   3   6
BRANCH   1  10
HETATM   10  O1  UNL     1     -17.909   1.663  -0.064  1.00  0.00    -0.364 OA
HETATM   11  C1  UNL     1     -17.944   1.378  -1.402  1.00  0.00     0.204 C
ENDBRANCH   1  10
BRANCH   5  12
HETATM   12  N1  UNL     1     -19.097  -1.101   1.148  1.00  0.00    -0.070 N
ATOM     13  H13 UNL     1     -19.749  -1.650   0.586  1.00  0.00     0.274 HD
ATOM     14  H12 UNL     1     -18.876  -1.801   1.855  1.00  0.00     0.274 HD
ATOM     15  H11 UNL     1     -19.547  -0.282   1.556  1.00  0.00     0.274 HD
ENDBRANCH   5  12
TORSDOF 3
ENDMDL