MODEL 5
REMARK VINA RESULT: -4.707648831      1.378      1.819
REMARK  2 active torsions:
REMARK  status: ('A' for Active; 'I' for Inactive)
REMARK    1  A    between atoms: C2_2  and  S1_3
REMARK    2  A    between atoms: S1_3  and  C3_4
ROOT
HETATM    1  C3  UNL     1     -14.566  -0.914   2.064  1.00  0.00     0.279 C
HETATM    2  C4  UNL     1     -16.060  -0.802   2.009  1.00  0.00     0.113 C
HETATM    3  C5  UNL     1     -15.702  -0.135   0.712  1.00  0.00     0.132 C
HETATM    4  C6  UNL     1     -15.592  -1.212  -0.337  1.00  0.00     0.060 C
HETATM    5  C7  UNL     1     -14.700  -2.335   0.120  1.00  0.00     0.239 C
HETATM    6  N1  UNL     1     -14.032  -2.047   1.365  1.00  0.00    -0.033 N
ATOM      7  H11 UNL     1     -14.026  -2.870   1.968  1.00  0.00     0.281 HD
ATOM      8  H12 UNL     1     -13.029  -1.936   1.216  1.00  0.00     0.281 HD
HETATM    9  O1  UNL     1     -14.476   0.207   1.267  1.00  0.00    -0.341 OA
ENDROOT
BRANCH   1  10
HETATM   10  S1  UNL     1     -13.973  -0.757   3.751  1.00  0.00    -0.102 SA
BRANCH  10  11
HETATM   11  C2  UNL     1     -12.895  -2.118   4.184  1.00  0.00     0.074 C
HETATM   12  C1  UNL     1     -11.489  -1.710   4.517  1.00  0.00     0.016 C
ENDBRANCH  10  11
ENDBRANCH   1  10
TORSDOF 2
ENDMDL