MODEL 1
REMARK VINA RESULT: -5.696727452      0.000      0.000
REMARK  2 active torsions:
REMARK  status: ('A' for Active; 'I' for Inactive)
REMARK    1  A    between atoms: C3_5  and  N2_6
REMARK    2  A    between atoms: N2_6  and  C5_8
ROOT
HETATM    1  C1  UNL     1     -11.628  -1.537   4.880  1.00  0.00     0.091 C
HETATM    2  C2  UNL     1     -12.999  -1.241   4.370  1.00  0.00     0.108 A
HETATM    3  N1  UNL     1     -13.364  -1.364   3.082  1.00  0.00    -0.178 N
ATOM      4  H1  UNL     1     -12.753  -1.668   2.325  1.00  0.00     0.185 HD
HETATM    5  C3  UNL     1     -14.657  -1.025   2.946  1.00  0.00     0.696 A
HETATM    6  N3  UNL     1     -15.055  -0.697   4.183  1.00  0.00    -0.131 N
ATOM      7  H3  UNL     1     -15.996  -0.390   4.425  1.00  0.00     0.205 HD
HETATM    8  N4  UNL     1     -14.074  -0.823   5.036  1.00  0.00    -0.275 N
ATOM      9  H4  UNL     1     -14.123  -0.634   6.038  1.00  0.00     0.189 HD
ENDROOT
BRANCH   5  10
HETATM   10  N2  UNL     1     -15.405  -1.027   1.730  1.00  0.00    -0.212 N
HETATM   11  C4  UNL     1     -16.824  -0.701   1.789  1.00  0.00     0.169 C
BRANCH  10  12
HETATM   12  C5  UNL     1     -14.869  -1.326   0.445  1.00  0.00     0.038 C
HETATM   13  C6  UNL     1     -14.719  -2.840   0.337  1.00  0.00     0.038 C
HETATM   14  C7  UNL     1     -13.577  -0.685   0.098  1.00  0.00     0.038 C
HETATM   15  C8  UNL     1     -15.898  -0.878  -0.600  1.00  0.00     0.038 C
ENDBRANCH  10  12
ENDBRANCH   5  10
TORSDOF 2
ENDMDL