MODEL 4
REMARK VINA RESULT: -5.017379549      2.290      2.779
REMARK  1 active torsions:
REMARK  status: ('A' for Active; 'I' for Inactive)
REMARK    1  A    between atoms: N2_9  and  C5_10
ROOT
HETATM    1  C5  UNL     1     -17.115  -0.395  -1.108  1.00  0.00     0.248 C
HETATM    2  C6  UNL     1     -17.583   0.758  -0.359  1.00  0.00     0.079 C
HETATM    3  N3  UNL     1     -17.954   1.659   0.252  1.00  0.00    -0.196 NA
ENDROOT
BRANCH   1   4
HETATM    4  N2  UNL     1     -15.668  -0.468  -1.193  1.00  0.00    -0.349 N
HETATM    5  C4  UNL     1     -15.070  -0.134  -2.435  1.00  0.00     0.136 C
HETATM    6  S1  UNL     1     -13.330  -0.653  -2.527  1.00  0.00    -0.094 SA
HETATM    7  N1  UNL     1     -15.622   0.456  -3.419  1.00  0.00    -0.380 N
HETATM    8  C3  UNL     1     -13.284  -2.155  -1.513  1.00  0.00     0.088 C
HETATM    9  C2  UNL     1     -13.942  -1.973  -0.188  1.00  0.00     0.009 C
HETATM   10  C1  UNL     1     -14.597  -3.280   0.225  1.00  0.00     0.012 C
HETATM   11  C7  UNL     1     -14.857  -0.841  -0.042  1.00  0.00     0.131 C
ATOM     12  H12 UNL     1     -15.191   0.696  -4.312  1.00  0.00     0.158 HD
ATOM     13  H11 UNL     1     -16.597   0.747  -3.367  1.00  0.00     0.158 HD
ENDBRANCH   1   4
TORSDOF 1
ENDMDL