MODEL 3
REMARK VINA RESULT: -4.769884222      1.638      4.714
REMARK  1 active torsions:
REMARK  status: ('A' for Active; 'I' for Inactive)
REMARK    1  A    between atoms: C2_2  and  N1_4
ROOT
HETATM    1  N1  UNL     1     -12.273  -0.914   2.908  1.00  0.00    -0.367 N
ATOM      2  H1  UNL     1     -11.372  -0.767   2.452  1.00  0.00     0.162 HD
HETATM    3  C4  UNL     1     -13.355  -0.637   2.282  1.00  0.00     0.140 C
HETATM    4  N2  UNL     1     -13.681  -0.131   1.000  1.00  0.00    -0.353 N
ATOM      5  H2  UNL     1     -13.303   0.594   0.391  1.00  0.00     0.163 HD
HETATM    6  C5  UNL     1     -14.756  -1.057   0.918  1.00  0.00     0.081 C
HETATM    7  C6  UNL     1     -15.856  -0.768  -0.046  1.00  0.00     0.051 C
HETATM    8  C7  UNL     1     -14.305  -2.515   0.772  1.00  0.00     0.051 C
HETATM    9  S1  UNL     1     -15.119  -0.727   2.659  1.00  0.00    -0.064 SA
ENDROOT
BRANCH   1  10
HETATM   10  C2  UNL     1     -12.321  -1.433   4.253  1.00  0.00     0.075 C
HETATM   11  C1  UNL     1     -10.932  -1.488   4.867  1.00  0.00     0.032 C
HETATM   12  C3  UNL     1     -12.854  -2.850   4.232  1.00  0.00     0.032 C
ENDBRANCH   1  10
TORSDOF 1
ENDMDL