MODEL 2
REMARK VINA RESULT: -5.648876124      1.364      4.124
REMARK  1 active torsions:
REMARK  status: ('A' for Active; 'I' for Inactive)
REMARK    1  A    between atoms: N3_8  and  C5_9
ROOT
HETATM    1  N1  UNL     1     -16.222   0.555   0.571  1.00  0.00    -0.064 NA
HETATM    2  C1  UNL     1     -15.481  -0.543   0.036  1.00  0.00     0.186 C
HETATM    3  N2  UNL     1     -15.527  -0.832  -1.215  1.00  0.00    -0.364 N
ATOM      4  H2  UNL     1     -16.108  -0.261  -1.829  1.00  0.00     0.162 HD
HETATM    5  C2  UNL     1     -14.799  -1.918  -1.778  1.00  0.00     0.124 C
HETATM    6  C3  UNL     1     -13.899  -2.668  -0.862  1.00  0.00     0.039 C
HETATM    7  C4  UNL     1     -14.497  -2.734   0.526  1.00  0.00     0.127 C
HETATM    8  N3  UNL     1     -14.685  -1.313   0.903  1.00  0.00    -0.351 N
ENDROOT
BRANCH   8   9
HETATM    9  C5  UNL     1     -14.097  -0.773   2.081  1.00  0.00     0.087 C
HETATM   10  C6  UNL     1     -12.730  -1.219   2.435  1.00  0.00     0.025 C
HETATM   11  C7  UNL     1     -12.671  -1.044   3.939  1.00  0.00     0.002 C
HETATM   12  C8  UNL     1     -14.058  -1.433   4.400  1.00  0.00     0.002 C
HETATM   13  C9  UNL     1     -14.972  -0.961   3.308  1.00  0.00     0.025 C
ENDBRANCH   8   9
TORSDOF 1
ENDMDL