MODEL 1
REMARK VINA RESULT: -5.033458590      0.000      0.000
REMARK  2 active torsions:
REMARK  status: ('A' for Active; 'I' for Inactive)
REMARK    1  A    between atoms: C2_2  and  C3_3
REMARK    2  A    between atoms: C7_9  and  N2_10
ROOT
HETATM    1  C3  UNL     1     -14.401  -1.057   0.516  1.00  0.00     0.066 A
HETATM    2  C4  UNL     1     -14.157  -2.435   1.068  1.00  0.00     0.041 C
HETATM    3  C5  UNL     1     -13.931  -0.865  -0.876  1.00  0.00     0.123 A
HETATM    4  C6  UNL     1     -13.363  -2.112  -1.510  1.00  0.00     0.035 C
HETATM    5  N1  UNL     1     -15.095  -0.485  -1.619  1.00  0.00    -0.220 N
ATOM      6  H1  UNL     1     -15.085  -0.264  -2.615  1.00  0.00     0.178 HD
HETATM    7  C7  UNL     1     -16.149  -0.454  -0.897  1.00  0.00     0.672 A
HETATM    8  N3  UNL     1     -15.807  -0.813   0.430  1.00  0.00    -0.211 N
HETATM    9  C9  UNL     1     -16.759  -0.911   1.510  1.00  0.00     0.169 C
ENDROOT
BRANCH   1  10
HETATM   10  C2  UNL     1     -13.694  -0.074   1.430  1.00  0.00     0.029 C
HETATM   11  C1  UNL     1     -12.707  -0.719   2.341  1.00  0.00     0.007 C
ENDBRANCH   1  10
BRANCH   7  12
HETATM   12  N2  UNL     1     -17.484  -0.108  -1.351  1.00  0.00    -0.231 N
HETATM   13  C8  UNL     1     -17.884   1.275  -1.342  1.00  0.00     0.165 C
ATOM     14  H2  UNL     1     -18.128  -0.832  -1.669  1.00  0.00     0.177 HD
ENDBRANCH   7  12
TORSDOF 2
ENDMDL