MODEL 4
REMARK VINA RESULT: -5.555003018      3.362      5.044
REMARK  1 active torsions:
REMARK  status: ('A' for Active; 'I' for Inactive)
REMARK    1  A    between atoms: C2_3  and  C3_4
ROOT
HETATM    1  N1  UNL     1     -17.795   1.455   0.417  1.00  0.00    -0.197 NA
HETATM    2  C1  UNL     1     -17.485   0.338   0.368  1.00  0.00     0.060 C
HETATM    3  C2  UNL     1     -17.113  -1.086   0.298  1.00  0.00     0.148 C
ENDROOT
BRANCH   3   4
HETATM    4  C3  UNL     1     -15.707  -1.167   0.920  1.00  0.00     0.062 C
HETATM    5  C4  UNL     1     -15.239  -2.516   0.713  1.00  0.00     0.070 C
HETATM    6  N2  UNL     1     -14.859  -3.613   0.548  1.00  0.00    -0.196 NA
HETATM    7  C5  UNL     1     -15.863  -0.797   2.344  1.00  0.00     0.027 C
HETATM    8  C6  UNL     1     -14.724  -0.964   3.238  1.00  0.00     0.029 C
HETATM    9  C7  UNL     1     -13.363  -0.892   2.663  1.00  0.00     0.232 C
HETATM   10  N3  UNL     1     -13.151   0.130   1.694  1.00  0.00    -0.075 N
HETATM   11  C8  UNL     1     -13.429  -0.443   0.385  1.00  0.00     0.234 C
ATOM     12  H32 UNL     1     -13.691   0.975   1.881  1.00  0.00     0.277 HD
ATOM     13  H31 UNL     1     -12.223   0.550   1.755  1.00  0.00     0.277 HD
HETATM   14  C9  UNL     1     -14.884  -0.192   0.111  1.00  0.00     0.053 C
ENDBRANCH   3   4
TORSDOF 1
ENDMDL