MODEL 1
REMARK VINA RESULT: -5.855605232      0.000      0.000
REMARK  3 active torsions:
REMARK  status: ('A' for Active; 'I' for Inactive)
REMARK    1  A    between atoms: C2_2  and  O1_5
REMARK    2  A    between atoms: O1_5  and  N1_6
REMARK    3  A    between atoms: C5_8  and  C6_9
ROOT
HETATM    1  N1  UNL     1     -14.868  -0.246   1.505  1.00  0.00    -0.281 N
ATOM      2  H1  UNL     1     -14.054  -0.413   0.914  1.00  0.00     0.193 HD
HETATM    3  C5  UNL     1     -14.831  -0.753   2.668  1.00  0.00     0.093 C
ENDROOT
BRANCH   3   4
HETATM    4  C6  UNL     1     -13.656  -1.528   3.085  1.00  0.00     0.053 C
HETATM    5  C7  UNL     1     -13.387  -1.448   4.569  1.00  0.00     0.039 C
HETATM    6  C8  UNL     1     -11.929  -1.909   4.593  1.00  0.00     0.233 C
HETATM    7  N2  UNL     1     -11.339  -1.184   3.486  1.00  0.00    -0.074 N
HETATM    8  C9  UNL     1     -12.370  -1.022   2.488  1.00  0.00     0.242 C
ATOM      9  H22 UNL     1     -10.913  -0.302   3.768  1.00  0.00     0.277 HD
ATOM     10  H21 UNL     1     -10.495  -1.626   3.122  1.00  0.00     0.277 HD
ENDBRANCH   3   4
BRANCH   1  11
HETATM   11  O1  UNL     1     -15.859   0.489   0.960  1.00  0.00    -0.271 OA
BRANCH  11  12
HETATM   12  C2  UNL     1     -16.873  -0.005   0.109  1.00  0.00     0.078 C
HETATM   13  C1  UNL     1     -16.263  -0.603  -1.162  1.00  0.00     0.048 C
HETATM   14  C3  UNL     1     -17.742  -0.991   0.828  1.00  0.00     0.048 C
HETATM   15  C4  UNL     1     -17.757   1.141  -0.340  1.00  0.00     0.048 C
ENDBRANCH  11  12
ENDBRANCH   1  11
TORSDOF 3
ENDMDL