MODEL 3
REMARK VINA RESULT: -5.930644055      3.652      4.340
REMARK  3 active torsions:
REMARK  status: ('A' for Active; 'I' for Inactive)
REMARK    1  A    between atoms: C2_2  and  O1_4
REMARK    2  A    between atoms: O1_4  and  N1_5
REMARK    3  A    between atoms: N2_10  and  O2_12
ROOT
HETATM    1  N1  UNL     1      13.904   8.647   5.460  1.00  0.00    -0.182 NA
HETATM    2  C4  UNL     1      13.179   9.284   6.481  1.00  0.00     0.089 C
HETATM    3  C5  UNL     1      13.173   8.376   7.693  1.00  0.00     0.028 C
HETATM    4  C6  UNL     1      14.600   8.006   8.095  1.00  0.00     0.058 C
HETATM    5  C7  UNL     1      15.573   8.384   7.059  1.00  0.00     0.030 C
HETATM    6  N2  UNL     1      16.774   8.000   7.125  1.00  0.00    -0.276 N
ATOM      7  H2  UNL     1      17.020   7.422   7.928  1.00  0.00     0.193 HD
HETATM    8  C8  UNL     1      15.114   9.223   5.939  1.00  0.00     0.135 C
HETATM    9  C9  UNL     1      14.255  10.299   6.624  1.00  0.00     0.050 C
ENDROOT
BRANCH   1  10
HETATM   10  O1  UNL     1      13.573   8.611   4.235  1.00  0.00    -0.298 OA
BRANCH  10  11
HETATM   11  C2  UNL     1      14.285   9.237   3.278  1.00  0.00     0.137 C
HETATM   12  C1  UNL     1      14.191   8.404   1.992  1.00  0.00     0.041 C
HETATM   13  C3  UNL     1      13.695  10.603   2.895  1.00  0.00     0.041 C
ENDBRANCH  10  11
ENDBRANCH   1  10
BRANCH   6  14
HETATM   14  O2  UNL     1      17.772   8.267   6.251  1.00  0.00    -0.290 OA
ATOM     15  H2  UNL     1      18.265   7.645   5.730  1.00  0.00     0.244 HD
ENDBRANCH   6  14
TORSDOF 3
ENDMDL