MODEL 5
REMARK VINA RESULT: -5.335783237      2.048      3.596
REMARK  2 active torsions:
REMARK  status: ('A' for Active; 'I' for Inactive)
REMARK    1  A    between atoms: O1_2  and  N1_3
REMARK    2  A    between atoms: N2_9  and  O2_11
ROOT
HETATM    1  N1  UNL     1      15.342  10.605   0.627  1.00  0.00    -0.174 NA
HETATM    2  C2  UNL     1      14.363  10.155  -0.284  1.00  0.00     0.037 C
HETATM    3  C3  UNL     1      14.543   8.735  -0.751  1.00  0.00     0.034 C
HETATM    4  C4  UNL     1      14.240  11.020  -1.535  1.00  0.00     0.034 C
HETATM    5  C5  UNL     1      13.057  10.246   0.492  1.00  0.00     0.083 C
HETATM    6  C6  UNL     1      13.457  10.629   1.891  1.00  0.00     0.036 C
HETATM    7  N2  UNL     1      12.714  11.116   2.796  1.00  0.00    -0.275 N
ATOM      8  H2  UNL     1      13.101  11.336   3.714  1.00  0.00     0.193 HD
HETATM    9  C7  UNL     1      14.926  10.297   1.957  1.00  0.00     0.072 C
HETATM   10  C8  UNL     1      15.571  11.142   3.016  1.00  0.00     0.041 C
HETATM   11  C9  UNL     1      15.024   8.856   2.331  1.00  0.00     0.041 C
ENDROOT
BRANCH   7  12
HETATM   12  O2  UNL     1      11.402  11.345   2.537  1.00  0.00    -0.290 OA
ATOM     13  H2  UNL     1      10.812  11.558   3.252  1.00  0.00     0.244 HD
ENDBRANCH   7  12
BRANCH   1  14
HETATM   14  O1  UNL     1      16.599  10.394   0.330  1.00  0.00    -0.307 OA
HETATM   15  C1  UNL     1      17.194  11.635   0.014  1.00  0.00     0.229 C
ENDBRANCH   1  14
TORSDOF 2
ENDMDL