MODEL 4
REMARK VINA RESULT: -5.909823336      1.834      2.980
REMARK  1 active torsions:
REMARK  status: ('A' for Active; 'I' for Inactive)
REMARK    1  A    between atoms: O1_2  and  C2_3
ROOT
HETATM    1  C2  UNL     1      15.824  10.583  -0.659  1.00  0.00     0.272 C
HETATM    2  C3  UNL     1      14.984  10.450   0.583  1.00  0.00     0.100 C
HETATM    3  C4  UNL     1      13.761   9.602   0.388  1.00  0.00     0.076 C
HETATM    4  C5  UNL     1      14.095   8.159   0.157  1.00  0.00     0.039 C
HETATM    5  C6  UNL     1      14.033   7.569   1.537  1.00  0.00     0.003 C
HETATM    6  C7  UNL     1      12.787   8.237   2.108  1.00  0.00     0.003 C
HETATM    7  C8  UNL     1      12.934   9.677   1.647  1.00  0.00     0.039 C
HETATM    8  O2  UNL     1      13.009  10.097  -0.707  1.00  0.00    -0.305 OA
HETATM    9  C9  UNL     1      13.723  10.263  -1.907  1.00  0.00     0.261 C
HETATM   10  N1  UNL     1      13.117  10.361  -3.036  1.00  0.00    -0.359 N
ATOM     11  H11 UNL     1      13.635  10.482  -3.906  1.00  0.00     0.160 HD
ATOM     12  H12 UNL     1      12.099  10.319  -3.084  1.00  0.00     0.160 HD
HETATM   13  O3  UNL     1      15.089  10.319  -1.843  1.00  0.00    -0.285 OA
ENDROOT
BRANCH   1  14
HETATM   14  O1  UNL     1      16.388  11.834  -0.649  1.00  0.00    -0.365 OA
HETATM   15  C1  UNL     1      17.507  11.954   0.136  1.00  0.00     0.204 C
ENDBRANCH   1  14
TORSDOF 1
ENDMDL