MODEL 2
REMARK VINA RESULT: -6.175382650      3.784      5.562
REMARK  1 active torsions:
REMARK  status: ('A' for Active; 'I' for Inactive)
REMARK    1  A    between atoms: C2_2  and  C3_3
ROOT
HETATM    1  C3  UNL     1      14.837   9.752  -0.333  1.00  0.00     0.126 C
HETATM    2  N1  UNL     1      16.255   9.879  -0.236  1.00  0.00    -0.386 N
ATOM      3  H1  UNL     1      16.822   9.449  -0.967  1.00  0.00     0.160 HD
HETATM    4  C4  UNL     1      16.861  10.490   0.700  1.00  0.00     0.002 C
HETATM    5  C5  UNL     1      18.335  10.553   0.689  1.00  0.00     0.064 C
HETATM    6  C6  UNL     1      16.032  11.116   1.766  1.00  0.00     0.183 C
HETATM    7  C7  UNL     1      16.871  11.462   2.909  1.00  0.00     0.075 C
HETATM    8  N2  UNL     1      17.522  11.744   3.799  1.00  0.00    -0.196 NA
HETATM    9  C8  UNL     1      14.977  10.136   2.107  1.00  0.00     0.023 C
HETATM   10  N3  UNL     1      14.820   9.810   3.321  1.00  0.00    -0.403 N
ATOM     11  H31 UNL     1      14.092   9.134   3.556  1.00  0.00     0.155 HD
ATOM     12  H32 UNL     1      15.383  10.186   4.084  1.00  0.00     0.155 HD
HETATM   13  C9  UNL     1      14.162   9.591   1.003  1.00  0.00     0.165 C
HETATM   14  C10 UNL     1      13.836   8.180   1.277  1.00  0.00     0.072 C
HETATM   15  N4  UNL     1      13.563   7.069   1.502  1.00  0.00    -0.196 NA
ENDROOT
BRANCH   1  16
HETATM   16  C2  UNL     1      14.217  10.855  -1.107  1.00  0.00    -0.011 C
HETATM   17  C1  UNL     1      12.935  10.876  -1.374  1.00  0.00     0.009 C
ENDBRANCH   1  16
TORSDOF 1
ENDMDL