MODEL 2
REMARK VINA RESULT: -5.097941938      2.285      3.938
REMARK  2 active torsions:
REMARK  status: ('A' for Active; 'I' for Inactive)
REMARK    1  A    between atoms: C5_5  and  O1_6
REMARK    2  A    between atoms: O1_6  and  O2_7
ROOT
HETATM    1  C1  UNL     1      13.937   8.012   1.043  1.00  0.00     0.018 C
HETATM    2  C2  UNL     1      14.019   9.478   0.588  1.00  0.00    -0.010 C
HETATM    3  C3  UNL     1      13.164  10.264   1.543  1.00  0.00     0.018 C
HETATM    4  C4  UNL     1      15.446   9.903   0.697  1.00  0.00     0.050 C
HETATM    5  C5  UNL     1      16.043  10.406  -0.576  1.00  0.00     0.200 C
HETATM    6  C6  UNL     1      15.220   9.998  -1.797  1.00  0.00     0.218 C
HETATM    7  O3  UNL     1      14.490   8.858  -1.592  1.00  0.00    -0.356 OA
HETATM    8  C7  UNL     1      13.488   9.485  -0.823  1.00  0.00     0.195 C
HETATM    9  S1  UNL     1      13.709  11.003  -1.708  1.00  0.00    -0.102 SA
ENDROOT
BRANCH   5  10
HETATM   10  O1  UNL     1      16.018  11.803  -0.580  1.00  0.00    -0.234 OA
BRANCH  10  11
HETATM   11  O2  UNL     1      17.163  12.295  -0.176  1.00  0.00    -0.250 OA
ATOM     12  H2  UNL     1      17.092  12.647   0.704  1.00  0.00     0.253 HD
ENDBRANCH  10  11
ENDBRANCH   5  10
TORSDOF 2
ENDMDL