MODEL 3
REMARK VINA RESULT: -5.387115232      1.822      2.787
REMARK  2 active torsions:
REMARK  status: ('A' for Active; 'I' for Inactive)
REMARK    1  A    between atoms: C2_2  and  C3_3
REMARK    2  A    between atoms: N1_11  and  O3_12
ROOT
HETATM    1  C3  UNL     1      14.712   9.680  -1.252  1.00  0.00     0.142 C
HETATM    2  C4  UNL     1      16.188   9.928  -1.361  1.00  0.00     0.050 C
HETATM    3  C5  UNL     1      14.370   8.363  -0.691  1.00  0.00     0.290 C
HETATM    4  O1  UNL     1      14.813   7.244  -1.110  1.00  0.00    -0.262 OA
HETATM    5  O2  UNL     1      13.494   8.628   0.356  1.00  0.00    -0.291 OA
HETATM    6  C6  UNL     1      13.918   9.864   0.872  1.00  0.00     0.142 C
HETATM    7  C7  UNL     1      12.861  10.561   1.682  1.00  0.00     0.066 C
HETATM    8  C8  UNL     1      15.130   9.628   1.719  1.00  0.00     0.066 C
HETATM    9  N1  UNL     1      14.166  10.635  -0.308  1.00  0.00    -0.142 NA
ENDROOT
BRANCH   1  10
HETATM   10  C2  UNL     1      14.039   9.797  -2.583  1.00  0.00     0.000 C
HETATM   11  C1  UNL     1      14.729   9.961  -3.703  1.00  0.00     0.009 C
ENDBRANCH   1  10
BRANCH   9  12
HETATM   12  O3  UNL     1      12.977  11.057  -0.787  1.00  0.00    -0.309 OA
ATOM     13  H3  UNL     1      13.147  11.709  -1.457  1.00  0.00     0.237 HD
ENDBRANCH   9  12
TORSDOF 2
ENDMDL