MODEL 5
REMARK VINA RESULT: -5.324460910      1.215      1.215
REMARK  2 active torsions:
REMARK  status: ('A' for Active; 'I' for Inactive)
REMARK    1  A    between atoms: C2_2  and  C3_3
REMARK    2  A    between atoms: N3_8  and  O1_9
ROOT
HETATM    1  C3  UNL     1      15.210   9.678   1.483  1.00  0.00     0.148 C
HETATM    2  N1  UNL     1      16.118  10.743   1.233  1.00  0.00    -0.349 N
ATOM      3  H1  UNL     1      16.607  11.162   2.024  1.00  0.00     0.163 HD
HETATM    4  C4  UNL     1      16.347  11.199   0.060  1.00  0.00     0.212 C
HETATM    5  N2  UNL     1      17.285  12.288  -0.128  1.00  0.00    -0.062 NA
HETATM    6  N3  UNL     1      15.740  10.710  -1.096  1.00  0.00    -0.213 N
HETATM    7  C5  UNL     1      14.388  10.195  -1.207  1.00  0.00     0.104 C
HETATM    8  C6  UNL     1      13.516  11.330  -1.697  1.00  0.00     0.053 C
HETATM    9  C7  UNL     1      14.378   9.063  -2.200  1.00  0.00     0.053 C
HETATM   10  S1  UNL     1      13.753   9.678   0.411  1.00  0.00    -0.111 SA
ENDROOT
BRANCH   1  11
HETATM   11  C2  UNL     1      14.714   9.695   2.928  1.00  0.00     0.032 C
HETATM   12  C1  UNL     1      14.141  11.064   3.175  1.00  0.00     0.008 C
ENDBRANCH   1  11
BRANCH   6  13
HETATM   13  O1  UNL     1      16.444  10.702  -2.241  1.00  0.00    -0.283 OA
ATOM     14  H1  UNL     1      16.483  11.498  -2.760  1.00  0.00     0.245 HD
ENDBRANCH   6  13
TORSDOF 2
ENDMDL