MODEL 4
REMARK VINA RESULT: -6.097902727      1.874      2.722
REMARK  1 active torsions:
REMARK  status: ('A' for Active; 'I' for Inactive)
REMARK    1  A    between atoms: C2_2  and  C3_3
ROOT
HETATM    1  C3  UNL     1      13.796   9.099   4.127  1.00  0.00     0.117 A
HETATM    2  N1  UNL     1      13.321   9.249   5.291  1.00  0.00    -0.348 N
ATOM      3  H1  UNL     1      12.315   9.392   5.375  1.00  0.00     0.163 HD
HETATM    4  C4  UNL     1      14.082   9.234   6.490  1.00  0.00     0.120 A
HETATM    5  C5  UNL     1      13.636   8.015   7.276  1.00  0.00     0.055 C
HETATM    6  C6  UNL     1      14.320   8.034   8.626  1.00  0.00     0.004 C
HETATM    7  C7  UNL     1      13.649   9.173   9.370  1.00  0.00     0.000 C
HETATM    8  C8  UNL     1      14.159  10.435   8.717  1.00  0.00     0.004 C
HETATM    9  C9  UNL     1      13.926  10.515   7.258  1.00  0.00     0.055 C
HETATM   10  N2  UNL     1      15.467   9.026   6.215  1.00  0.00    -0.293 N
ATOM     11  H2  UNL     1      16.084   9.001   7.027  1.00  0.00     0.184 HD
HETATM   12  N3  UNL     1      16.016   8.869   5.107  1.00  0.00    -0.243 N
ATOM     13  H3  UNL     1      17.023   8.727   5.029  1.00  0.00     0.208 HD
HETATM   14  N4  UNL     1      15.194   8.898   3.975  1.00  0.00    -0.271 N
ATOM     15  H4  UNL     1      15.596   8.774   3.046  1.00  0.00     0.190 HD
ENDROOT
BRANCH   1  16
HETATM   16  C2  UNL     1      12.982   9.121   2.917  1.00  0.00     0.039 C
HETATM   17  C1  UNL     1      13.048   8.124   2.056  1.00  0.00     0.015 C
ENDBRANCH   1  16
TORSDOF 1
ENDMDL