MODEL 2
REMARK VINA RESULT: -5.783779862      7.559      9.430
REMARK  2 active torsions:
REMARK  status: ('A' for Active; 'I' for Inactive)
REMARK    1  A    between atoms: C6_8  and  C8_10
REMARK    2  A    between atoms: N1_11  and  O3_13
ROOT
HETATM    1  C1  UNL     1      14.586   7.892  -0.765  1.00  0.00     0.019 C
HETATM    2  C2  UNL     1      14.621   9.261  -1.369  1.00  0.00    -0.002 A
HETATM    3  C3  UNL     1      14.057   9.128  -2.791  1.00  0.00     0.019 C
HETATM    4  C4  UNL     1      16.059   9.671  -1.530  1.00  0.00     0.123 A
HETATM    5  C5  UNL     1      16.124  10.969  -0.815  1.00  0.00     0.260 A
HETATM    6  O1  UNL     1      17.164  11.672  -0.770  1.00  0.00    -0.265 OA
HETATM    7  O2  UNL     1      14.923  11.267  -0.238  1.00  0.00    -0.304 OA
HETATM    8  C6  UNL     1      13.924  10.309  -0.584  1.00  0.00     0.108 A
HETATM    9  C7  UNL     1      12.887  11.067  -1.405  1.00  0.00     0.053 C
ENDROOT
BRANCH   8  10
HETATM   10  C8  UNL     1      13.344   9.827   0.692  1.00  0.00     0.125 C
HETATM   11  N1  UNL     1      13.405  10.520   1.772  1.00  0.00    -0.281 N
ATOM     12  H1  UNL     1      13.869  11.428   1.733  1.00  0.00     0.193 HD
BRANCH  11  13
HETATM   13  O3  UNL     1      12.887  10.119   2.967  1.00  0.00    -0.290 OA
ATOM     14  H3  UNL     1      12.571  10.714   3.637  1.00  0.00     0.244 HD
ENDBRANCH  11  13
ENDBRANCH   8  10
TORSDOF 2
ENDMDL