MODEL 5
REMARK VINA RESULT: -5.452024023      2.537      2.903
REMARK  3 active torsions:
REMARK  status: ('A' for Active; 'I' for Inactive)
REMARK    1  A    between atoms: O1_3  and  C2_4
REMARK    2  A    between atoms: C2_4  and  C3_6
REMARK    3  A    between atoms: C3_6  and  N2_7
ROOT
HETATM    1  N1  UNL     1      18.305  12.579  -0.282  1.00  0.00    -0.164 NA
HETATM    2  C1  UNL     1      17.497  12.185   0.446  1.00  0.00     0.234 C
HETATM    3  O1  UNL     1      16.525  11.699   1.304  1.00  0.00    -0.230 OA
ENDROOT
BRANCH   3   4
HETATM    4  C2  UNL     1      15.779  10.641   0.863  1.00  0.00     0.168 C
HETATM    5  S1  UNL     1      15.596  10.394  -0.728  1.00  0.00    -0.053 SA
BRANCH   4   6
HETATM    6  C3  UNL     1      15.153   9.738   1.846  1.00  0.00     0.183 C
HETATM    7  C4  UNL     1      14.433   8.653   1.073  1.00  0.00     0.047 C
HETATM    8  C5  UNL     1      13.290   8.083   1.864  1.00  0.00     0.003 C
HETATM    9  C6  UNL     1      12.247   9.166   2.044  1.00  0.00     0.000 C
HETATM   10  C7  UNL     1      12.826  10.484   2.434  1.00  0.00     0.003 C
HETATM   11  C8  UNL     1      14.269  10.439   2.820  1.00  0.00     0.047 C
BRANCH   6  12
HETATM   12  N2  UNL     1      16.231   9.085   2.605  1.00  0.00    -0.063 N
ATOM     13  H23 UNL     1      17.126   9.100   2.114  1.00  0.00     0.275 HD
ATOM     14  H22 UNL     1      16.518   9.620   3.424  1.00  0.00     0.275 HD
ATOM     15  H21 UNL     1      15.921   8.142   2.836  1.00  0.00     0.275 HD
ENDBRANCH   6  12
ENDBRANCH   4   6
ENDBRANCH   3   4
TORSDOF 3
ENDMDL