MODEL 2
REMARK VINA RESULT: -6.939831910      1.938      2.554
REMARK  6 active torsions:
REMARK  status: ('A' for Active; 'I' for Inactive)
REMARK    1  A    between atoms: C3_5  and  O1_6
REMARK    2  A    between atoms: C4_8  and  C5_9
REMARK    3  A    between atoms: N2_10  and  N3_12
REMARK    4  A    between atoms: N3_12  and  C6_14
REMARK    5  A    between atoms: C6_14  and  N4_16
REMARK    6  A    between atoms: N4_16  and  C7_18
ROOT
HETATM    1  C5  UNL     1      -6.073  52.646  14.736  1.00  0.00     0.130 C
HETATM    2  N2  UNL     1      -4.819  52.722  14.765  1.00  0.00    -0.308 N
ATOM      3  H2  UNL     1      -4.305  52.129  15.416  1.00  0.00     0.186 HD
ENDROOT
BRANCH   2   4
HETATM    4  N3  UNL     1      -4.113  53.584  13.945  1.00  0.00    -0.277 N
ATOM      5  H3  UNL     1      -4.119  54.589  14.122  1.00  0.00     0.189 HD
BRANCH   4   6
HETATM    6  C6  UNL     1      -3.379  53.048  12.853  1.00  0.00     0.186 C
HETATM    7  S1  UNL     1      -1.758  53.118  12.846  1.00  0.00    -0.040 SA
BRANCH   6   8
HETATM    8  N4  UNL     1      -4.052  52.452  11.773  1.00  0.00    -0.361 N
ATOM      9  H4  UNL     1      -4.620  53.024  11.148  1.00  0.00     0.162 HD
BRANCH   8  10
HETATM   10  C7  UNL     1      -3.940  51.029  11.548  1.00  0.00     0.083 C
HETATM   11  C8  UNL     1      -3.708  50.724  10.081  1.00  0.00     0.025 C
HETATM   12  C9  UNL     1      -3.439  49.251   9.957  1.00  0.00     0.002 C
HETATM   13  C10 UNL     1      -4.544  48.491  10.633  1.00  0.00     0.000 C
HETATM   14  C11 UNL     1      -5.691  49.412  10.981  1.00  0.00     0.002 C
HETATM   15  C12 UNL     1      -5.178  50.365  12.068  1.00  0.00     0.025 C
ENDBRANCH   8  10
ENDBRANCH   6   8
ENDBRANCH   4   6
ENDBRANCH   2   4
BRANCH   1  16
HETATM   16  C4  UNL     1      -6.867  53.478  13.819  1.00  0.00     0.074 A
HETATM   17  C3  UNL     1      -7.070  54.839  13.882  1.00  0.00     0.159 A
HETATM   18  N1  UNL     1      -7.810  55.375  12.964  1.00  0.00    -0.334 N
HETATM   19  C2  UNL     1      -8.339  54.619  12.015  1.00  0.00     0.049 A
ATOM     20  H1  UNL     1      -7.986  56.380  12.972  1.00  0.00     0.168 HD
HETATM   21  C1  UNL     1      -9.223  55.046  10.864  1.00  0.00     0.076 C
HETATM   22  S2  UNL     1      -7.766  53.064  12.429  1.00  0.00    -0.071 SA
BRANCH  17  23
HETATM   23  O1  UNL     1      -6.467  55.585  14.934  1.00  0.00    -0.345 OA
ATOM     24  H1  UNL     1      -6.922  55.823  15.734  1.00  0.00     0.219 HD
ENDBRANCH  17  23
ENDBRANCH   1  16
TORSDOF 6
ENDMDL