MODEL 5
REMARK VINA RESULT: -6.374312962      1.926      4.370
REMARK  6 active torsions:
REMARK  status: ('A' for Active; 'I' for Inactive)
REMARK    1  A    between atoms: C2_2  and  C3_3
REMARK    2  A    between atoms: C3_3  and  C4_4
REMARK    3  A    between atoms: C4_4  and  C5_5
REMARK    4  A    between atoms: C5_5  and  O1_6
REMARK    5  A    between atoms: C13_15  and  O2_16
REMARK    6  A    between atoms: C17_23  and  O5_24
ROOT
HETATM    1  C5  UNL     1      -4.371  52.500  13.217  1.00  0.00     0.088 C
HETATM    2  C6  UNL     1      -4.510  53.987  13.172  1.00  0.00     0.044 C
HETATM    3  C7  UNL     1      -5.965  54.330  13.612  1.00  0.00     0.025 C
HETATM    4  C8  UNL     1      -6.882  53.962  12.529  1.00  0.00     0.069 C
HETATM    5  C9  UNL     1      -6.615  52.538  12.214  1.00  0.00     0.004 A
HETATM    6  C10 UNL     1      -7.732  52.070  11.591  1.00  0.00     0.077 A
HETATM    7  C11 UNL     1      -7.665  50.762  11.142  1.00  0.00     0.040 A
HETATM    8  C12 UNL     1      -6.513  50.024  11.343  1.00  0.00     0.040 A
HETATM    9  C13 UNL     1      -5.409  50.548  11.987  1.00  0.00     0.075 A
HETATM   10  C14 UNL     1      -5.452  51.869  12.451  1.00  0.00     0.019 A
HETATM   11  O3  UNL     1      -8.734  53.080  11.560  1.00  0.00    -0.342 OA
HETATM   12  C15 UNL     1      -8.345  53.932  12.702  1.00  0.00     0.170 C
HETATM   13  C16 UNL     1      -8.710  55.361  12.352  1.00  0.00     0.204 C
HETATM   14  O4  UNL     1      -7.813  55.762  11.375  1.00  0.00    -0.358 OA
HETATM   15  C17 UNL     1      -6.774  54.843  11.300  1.00  0.00     0.272 C
ENDROOT
BRANCH   1  16
HETATM   16  C4  UNL     1      -2.991  52.009  13.011  1.00  0.00     0.043 C
BRANCH  16  17
HETATM   17  C3  UNL     1      -2.079  53.221  12.716  1.00  0.00     0.003 C
BRANCH  17  18
HETATM   18  C2  UNL     1      -1.288  52.832  11.474  1.00  0.00    -0.004 C
HETATM   19  C1  UNL     1      -1.134  51.344  11.349  1.00  0.00     0.005 C
ENDBRANCH  17  18
ENDBRANCH  16  17
ENDBRANCH   1  16
BRANCH   1  20
HETATM   20  O1  UNL     1      -4.642  52.212  14.600  1.00  0.00    -0.385 OA
ATOM     21  H1  UNL     1      -5.239  52.901  14.867  1.00  0.00     0.211 HD
ENDBRANCH   1  20
BRANCH   9  22
HETATM   22  O2  UNL     1      -4.267  49.830  12.190  1.00  0.00    -0.360 OA
ATOM     23  H2  UNL     1      -4.105  49.343  12.990  1.00  0.00     0.217 HD
ENDBRANCH   9  22
BRANCH  15  24
HETATM   24  O5  UNL     1      -6.998  54.043  10.184  1.00  0.00    -0.370 OA
ATOM     25  H5  UNL     1      -6.322  54.240   9.546  1.00  0.00     0.212 HD
ENDBRANCH  15  24
TORSDOF 6
ENDMDL