MODEL 3
REMARK VINA RESULT: -6.880071929      3.347      5.317
REMARK  6 active torsions:
REMARK  status: ('A' for Active; 'I' for Inactive)
REMARK    1  A    between atoms: C7_8  and  C8_9
REMARK    2  A    between atoms: C9_10  and  C10_11
REMARK    3  A    between atoms: C14_15  and  C15_16
REMARK    4  A    between atoms: C15_16  and  O2_17
REMARK    5  A    between atoms: C16_19  and  O3_20
REMARK    6  A    between atoms: C17_22  and  O4_23
ROOT
HETATM    1  C1  UNL     1     -11.489  52.194  10.460  1.00  0.00     0.050 C
HETATM    2  C2  UNL     1     -10.294  53.107  10.365  1.00  0.00    -0.028 A
HETATM    3  C3  UNL     1     -10.155  54.204   9.553  1.00  0.00     0.152 A
HETATM    4  O1  UNL     1      -8.991  54.691   9.785  1.00  0.00    -0.299 OA
HETATM    5  C4  UNL     1      -8.309  54.005  10.707  1.00  0.00     0.194 A
HETATM    6  C5  UNL     1      -9.132  52.973  11.098  1.00  0.00     0.012 A
HETATM    7  C6  UNL     1      -8.771  51.948  12.114  1.00  0.00     0.082 C
HETATM    8  C7  UNL     1      -7.338  51.573  12.102  1.00  0.00    -0.057 C
HETATM    9  C13 UNL     1      -6.485  52.051  12.998  1.00  0.00    -0.010 C
HETATM   10  C14 UNL     1      -6.831  52.986  14.084  1.00  0.00     0.066 C
HETATM   11  C16 UNL     1      -7.083  54.378  13.667  1.00  0.00     0.183 C
HETATM   12  C17 UNL     1      -6.584  54.816  12.347  1.00  0.00     0.294 C
HETATM   13  O5  UNL     1      -7.056  54.211  11.214  1.00  0.00    -0.296 OA
ENDROOT
BRANCH   8  14
HETATM   14  C8  UNL     1      -6.903  50.636  11.045  1.00  0.00     0.003 C
HETATM   15  C9  UNL     1      -5.933  49.794  11.188  1.00  0.00    -0.022 C
BRANCH  15  16
HETATM   16  C10 UNL     1      -5.564  48.890  10.077  1.00  0.00     0.008 A
HETATM   17  C11 UNL     1      -5.168  47.487  10.355  1.00  0.00     0.009 A
HETATM   18  C12 UNL     1      -6.461  47.806   9.635  1.00  0.00     0.009 A
ENDBRANCH  15  16
ENDBRANCH   8  14
BRANCH  10  19
HETATM   19  C15 UNL     1      -5.759  52.898  15.151  1.00  0.00     0.175 C
BRANCH  19  20
HETATM   20  O2  UNL     1      -4.500  53.219  14.732  1.00  0.00    -0.400 OA
ATOM     21  H2  UNL     1      -4.442  53.524  13.833  1.00  0.00     0.209 HD
ENDBRANCH  19  20
ENDBRANCH  10  19
BRANCH  11  22
HETATM   22  O3  UNL     1      -6.492  55.226  14.636  1.00  0.00    -0.390 OA
ATOM     23  H3  UNL     1      -6.102  55.958  14.173  1.00  0.00     0.210 HD
ENDBRANCH  11  22
BRANCH  12  24
HETATM   24  O4  UNL     1      -5.169  54.683  12.369  1.00  0.00    -0.368 OA
ATOM     25  H4  UNL     1      -4.831  55.154  11.616  1.00  0.00     0.212 HD
ENDBRANCH  12  24
TORSDOF 6
ENDMDL