MODEL 5
REMARK VINA RESULT: -7.237155716      2.349      8.095
REMARK  6 active torsions:
REMARK  status: ('A' for Active; 'I' for Inactive)
REMARK    1  A    between atoms: N1_2  and  O1_3
REMARK       I    between atoms: N1_2  and  C2_5
REMARK    2  A    between atoms: C2_5  and  C3_7
REMARK    3  A    between atoms: C3_7  and  C4_8
REMARK    4  A    between atoms: C4_8  and  N2_9
REMARK    5  A    between atoms: C5_10  and  O3_11
REMARK    6  A    between atoms: C8_15  and  O4_16
ROOT
HETATM    1  N2  UNL     1      -8.167  55.053  11.516  1.00  0.00    -0.307 N
HETATM    2  C5  UNL     1      -9.029  55.555  12.438  1.00  0.00     0.151 A
HETATM    3  C6  UNL     1      -9.892  56.411  11.787  1.00  0.00     0.004 A
HETATM    4  C7  UNL     1      -9.529  56.405  10.473  1.00  0.00     0.008 A
HETATM    5  C8  UNL     1      -8.473  55.574  10.311  1.00  0.00     0.151 A
HETATM    6  C9  UNL     1     -10.221  57.213   9.401  1.00  0.00     0.024 C
HETATM    7  C10 UNL     1     -11.677  56.758   9.490  1.00  0.00     0.014 C
HETATM    8  C11 UNL     1     -12.481  57.489  10.486  1.00  0.00    -0.009 C
HETATM    9  C12 UNL     1     -12.500  58.963  10.020  1.00  0.00     0.010 C
HETATM   10  C13 UNL     1     -11.188  59.046  10.832  1.00  0.00    -0.009 C
HETATM   11  C14 UNL     1     -10.107  58.653   9.909  1.00  0.00     0.014 C
HETATM   12  C15 UNL     1     -11.792  58.014  11.688  1.00  0.00    -0.002 C
HETATM   13  C16 UNL     1     -10.958  57.130  12.485  1.00  0.00     0.049 C
ENDROOT
BRANCH   1  14
HETATM   14  C4  UNL     1      -7.094  54.118  11.755  1.00  0.00     0.142 C
BRANCH  14  15
HETATM   15  C3  UNL     1      -5.879  54.752  12.348  1.00  0.00     0.125 C
BRANCH  15  16
HETATM   16  C2  UNL     1      -5.740  54.315  13.758  1.00  0.00     0.244 C
HETATM   17  N1  UNL     1      -4.971  53.198  14.146  1.00  0.00    -0.233 N
HETATM   18  C1  UNL     1      -4.257  52.393  13.169  1.00  0.00     0.188 C
HETATM   19  O2  UNL     1      -6.336  54.974  14.645  1.00  0.00    -0.271 OA
BRANCH  17  20
HETATM   20  O1  UNL     1      -4.879  52.847  15.429  1.00  0.00    -0.285 OA
ATOM     21  H1  UNL     1      -5.153  51.970  15.671  1.00  0.00     0.245 HD
ENDBRANCH  17  20
ENDBRANCH  15  16
ENDBRANCH  14  15
ENDBRANCH   1  14
BRANCH   2  22
HETATM   22  O3  UNL     1      -9.027  55.252  13.792  1.00  0.00    -0.345 OA
ATOM     23  H3  UNL     1      -8.768  55.843  14.490  1.00  0.00     0.219 HD
ENDBRANCH   2  22
BRANCH   5  24
HETATM   24  O4  UNL     1      -7.828  55.309   9.119  1.00  0.00    -0.345 OA
ATOM     25  H4  UNL     1      -7.300  55.920   8.617  1.00  0.00     0.219 HD
ENDBRANCH   5  24
TORSDOF 6
ENDMDL