MODEL 2
REMARK VINA RESULT: -7.117322575      2.733      3.525
REMARK  5 active torsions:
REMARK  status: ('A' for Active; 'I' for Inactive)
REMARK    1  A    between atoms: C3_5  and  C4_6
REMARK    2  A    between atoms: C12_15  and  C13_16
REMARK    3  A    between atoms: C13_16  and  O1_17
REMARK    4  A    between atoms: C13_16  and  C14_19
REMARK    5  A    between atoms: C14_19  and  N3_20
ROOT
HETATM    1  C4  UNL     1      -6.519  52.975  11.071  1.00  0.00     0.241 C
HETATM    2  C5  UNL     1      -6.737  51.558  10.576  1.00  0.00     0.076 C
HETATM    3  C6  UNL     1      -6.299  50.645  11.720  1.00  0.00     0.155 C
HETATM    4  C7  UNL     1      -5.422  49.622  11.333  1.00  0.00    -0.158 C
HETATM    5  C8  UNL     1      -4.448  48.636  11.063  1.00  0.00     0.086 C
HETATM    6  C9  UNL     1      -3.179  49.043  11.887  1.00  0.00     0.040 C
HETATM    7  C10 UNL     1      -3.539  49.986  13.032  1.00  0.00    -0.009 C
HETATM    8  C11 UNL     1      -4.219  51.248  12.830  1.00  0.00     0.085 C
HETATM    9  N2  UNL     1      -5.588  51.458  12.759  1.00  0.00    -0.346 N
HETATM   10  C12 UNL     1      -6.328  52.426  13.344  1.00  0.00     0.318 C
HETATM   11  N4  UNL     1      -7.207  53.052  12.333  1.00  0.00    -0.042 N
ATOM     12  H41 UNL     1      -8.142  52.644  12.306  1.00  0.00     0.280 HD
ATOM     13  H42 UNL     1      -7.488  54.002  12.579  1.00  0.00     0.280 HD
ENDROOT
BRANCH  10  14
HETATM   14  C13 UNL     1      -5.808  53.489  14.205  1.00  0.00     0.193 C
BRANCH  14  15
HETATM   15  O1  UNL     1      -5.584  53.227  15.532  1.00  0.00    -0.390 OA
ATOM     16  H1  UNL     1      -4.745  52.870  15.801  1.00  0.00     0.210 HD
ENDBRANCH  14  15
BRANCH  14  17
HETATM   17  C14 UNL     1      -6.436  54.856  14.078  1.00  0.00     0.265 C
BRANCH  17  18
HETATM   18  N3  UNL     1      -5.476  55.861  13.665  1.00  0.00    -0.077 N
ATOM     19  H33 UNL     1      -4.724  55.957  14.348  1.00  0.00     0.274 HD
ATOM     20  H32 UNL     1      -4.928  55.541  12.866  1.00  0.00     0.274 HD
ATOM     21  H31 UNL     1      -5.919  56.759  13.474  1.00  0.00     0.274 HD
ENDBRANCH  17  18
ENDBRANCH  14  17
ENDBRANCH  10  14
BRANCH   1  22
HETATM   22  C3  UNL     1      -7.138  53.961  10.095  1.00  0.00     0.047 A
HETATM   23  N1  UNL     1      -6.682  54.056   8.873  1.00  0.00    -0.355 N
HETATM   24  C2  UNL     1      -7.229  54.916   8.038  1.00  0.00     0.047 A
ATOM     25  H1  UNL     1      -5.906  53.469   8.569  1.00  0.00     0.166 HD
HETATM   26  C1  UNL     1      -6.828  55.152   6.603  1.00  0.00     0.076 C
HETATM   27  S1  UNL     1      -8.445  55.640   8.987  1.00  0.00    -0.087 SA
HETATM   28  C15 UNL     1      -8.180  54.781  10.438  1.00  0.00     0.078 A
ENDBRANCH   1  22
TORSDOF 5
ENDMDL