MODEL 2
REMARK VINA RESULT: -7.005608823      1.007      1.085
REMARK  6 active torsions:
REMARK  status: ('A' for Active; 'I' for Inactive)
REMARK    1  A    between atoms: C3_3  and  C4_4
REMARK    2  A    between atoms: C4_4  and  O2_6
REMARK    3  A    between atoms: O2_6  and  C5_7
REMARK    4  A    between atoms: C7_9  and  C8_10
REMARK    5  A    between atoms: C8_10  and  O3_11
REMARK    6  A    between atoms: C14_21  and  O4_22
ROOT
HETATM    1  C5  UNL     1      -4.762  51.917  12.921  1.00  0.00     0.142 C
HETATM    2  C6  UNL     1      -5.107  50.554  12.394  1.00  0.00     0.046 C
HETATM    3  C7  UNL     1      -6.042  50.736  11.199  1.00  0.00     0.057 C
HETATM    4  C9  UNL     1      -7.290  51.307  11.783  1.00  0.00    -0.009 C
HETATM    5  N1  UNL     1      -8.440  50.743  11.566  1.00  0.00    -0.405 N
ATOM      6  H11 UNL     1      -9.294  51.133  11.965  1.00  0.00     0.155 HD
ATOM      7  H12 UNL     1      -8.507  49.901  10.994  1.00  0.00     0.155 HD
HETATM    8  C10 UNL     1      -7.194  52.508  12.601  1.00  0.00     0.042 C
HETATM    9  C11 UNL     1      -7.473  53.710  11.686  1.00  0.00     0.018 C
HETATM   10  C12 UNL     1      -7.839  54.837  12.661  1.00  0.00     0.011 C
HETATM   11  C13 UNL     1      -8.467  55.983  11.950  1.00  0.00     0.012 C
HETATM   12  C14 UNL     1      -6.580  55.183  13.403  1.00  0.00     0.122 C
HETATM   13  C15 UNL     1      -5.472  54.203  13.221  1.00  0.00     0.044 C
HETATM   14  C16 UNL     1      -5.935  52.749  13.314  1.00  0.00    -0.006 C
HETATM   15  C17 UNL     1      -6.175  52.502  14.811  1.00  0.00     0.019 C
ENDROOT
BRANCH   1  16
HETATM   16  O2  UNL     1      -3.938  52.544  11.953  1.00  0.00    -0.312 OA
BRANCH  16  17
HETATM   17  C4  UNL     1      -2.557  52.584  12.033  1.00  0.00     0.282 C
HETATM   18  O1  UNL     1      -1.970  53.477  11.387  1.00  0.00    -0.260 OA
BRANCH  17  19
HETATM   19  C3  UNL     1      -1.829  51.594  12.856  1.00  0.00     0.077 C
HETATM   20  C2  UNL     1      -1.435  50.455  12.371  1.00  0.00    -0.025 C
HETATM   21  C1  UNL     1      -1.657  50.017  10.971  1.00  0.00     0.036 C
ENDBRANCH  17  19
ENDBRANCH  16  17
ENDBRANCH   1  16
BRANCH   3  22
HETATM   22  C8  UNL     1      -6.372  49.401  10.573  1.00  0.00     0.174 C
BRANCH  22  23
HETATM   23  O3  UNL     1      -6.789  49.618   9.279  1.00  0.00    -0.400 OA
ATOM     24  H3  UNL     1      -7.199  50.473   9.235  1.00  0.00     0.209 HD
ENDBRANCH  22  23
ENDBRANCH   3  22
BRANCH  12  25
HETATM   25  O4  UNL     1      -6.899  55.427  14.738  1.00  0.00    -0.395 OA
ATOM     26  H4  UNL     1      -6.100  55.410  15.251  1.00  0.00     0.210 HD
ENDBRANCH  12  25
TORSDOF 6
ENDMDL