MODEL 3
REMARK VINA RESULT: -6.435676664      3.073      4.269
REMARK  6 active torsions:
REMARK  status: ('A' for Active; 'I' for Inactive)
REMARK    1  A    between atoms: C3_3  and  C4_4
REMARK    2  A    between atoms: C4_4  and  O1_7
REMARK    3  A    between atoms: C8_10  and  C9_11
REMARK    4  A    between atoms: C9_11  and  C10_12
REMARK    5  A    between atoms: C10_12  and  O2_13
REMARK    6  A    between atoms: N1_15  and  O3_17
ROOT
HETATM    1  C1  UNL     1      -8.477  51.579  11.960  1.00  0.00     0.027 C
HETATM    2  C2  UNL     1      -7.511  52.553  11.373  1.00  0.00     0.112 C
HETATM    3  C3  UNL     1      -6.458  53.042  12.308  1.00  0.00     0.038 C
HETATM    4  C7  UNL     1      -5.373  52.022  12.596  1.00  0.00     0.015 C
HETATM    5  C8  UNL     1      -4.557  51.803  11.361  1.00  0.00     0.016 C
HETATM    6  C11 UNL     1      -5.288  50.941  10.357  1.00  0.00     0.061 C
HETATM    7  C12 UNL     1      -5.603  49.566  10.837  1.00  0.00     0.032 C
HETATM    8  C13 UNL     1      -4.438  50.870   9.106  1.00  0.00     0.032 C
HETATM    9  S1  UNL     1      -6.766  51.842   9.927  1.00  0.00     0.157 S
HETATM   10  O4  UNL     1      -6.368  52.925   8.965  1.00  0.00    -0.227 OA
HETATM   11  O5  UNL     1      -7.707  50.924   9.209  1.00  0.00    -0.227 OA
ENDROOT
BRANCH   5  12
HETATM   12  C9  UNL     1      -3.151  51.411  11.560  1.00  0.00     0.092 C
BRANCH  12  13
HETATM   13  C10 UNL     1      -2.235  52.374  12.136  1.00  0.00     0.135 C
HETATM   14  N1  UNL     1      -1.792  52.232  13.321  1.00  0.00    -0.251 N
ATOM     15  H1  UNL     1      -2.089  51.425  13.868  1.00  0.00     0.196 HD
BRANCH  13  16
HETATM   16  O2  UNL     1      -1.812  53.472  11.424  1.00  0.00    -0.348 OA
ATOM     17  H2  UNL     1      -1.563  53.403  10.510  1.00  0.00     0.219 HD
ENDBRANCH  13  16
BRANCH  14  18
HETATM   18  O3  UNL     1      -0.926  53.135  13.879  1.00  0.00    -0.288 OA
ATOM     19  H3  UNL     1      -1.016  53.422  14.779  1.00  0.00     0.244 HD
ENDBRANCH  14  18
ENDBRANCH  12  13
ENDBRANCH   5  12
BRANCH   3  20
HETATM   20  C4  UNL     1      -6.979  53.577  13.600  1.00  0.00     0.055 C
HETATM   21  C5  UNL     1      -6.505  52.698  14.738  1.00  0.00     0.045 C
HETATM   22  C6  UNL     1      -6.492  54.978  13.891  1.00  0.00     0.045 C
BRANCH  20  23
HETATM   23  O1  UNL     1      -8.387  53.529  13.633  1.00  0.00    -0.390 OA
ATOM     24  H1  UNL     1      -8.698  53.332  14.508  1.00  0.00     0.210 HD
ENDBRANCH  20  23
ENDBRANCH   3  20
TORSDOF 6
ENDMDL