MODEL 1
REMARK VINA RESULT: -6.537540697      0.000      0.000
REMARK  6 active torsions:
REMARK  status: ('A' for Active; 'I' for Inactive)
REMARK    1  A    between atoms: N2_7  and  C4_8
REMARK    2  A    between atoms: C6_10  and  O2_11
REMARK    3  A    between atoms: C7_13  and  C8_14
REMARK    4  A    between atoms: C8_14  and  S1_15
REMARK    5  A    between atoms: S1_15  and  C9_16
REMARK    6  A    between atoms: C9_16  and  N4_20
ROOT
HETATM    1  C1  UNL     1      -2.592  48.831  10.753  1.00  0.00     0.044 C
HETATM    2  C2  UNL     1      -2.053  49.955  10.357  1.00  0.00     0.038 A
HETATM    3  N1  UNL     1      -1.821  50.129   8.943  1.00  0.00    -0.309 N
ATOM      4  H1  UNL     1      -2.064  49.391   8.283  1.00  0.00     0.170 HD
HETATM    5  C3  UNL     1      -1.249  51.344   8.490  1.00  0.00     0.329 A
HETATM    6  O1  UNL     1      -1.027  51.540   7.250  1.00  0.00    -0.246 OA
HETATM    7  N2  UNL     1      -0.920  52.360   9.435  1.00  0.00    -0.280 N
HETATM    8  C6  UNL     1      -1.164  52.146  10.817  1.00  0.00     0.155 A
HETATM    9  C7  UNL     1      -1.704  51.011  11.297  1.00  0.00     0.029 A
ENDROOT
BRANCH   9  10
HETATM   10  C8  UNL     1      -1.925  50.880  12.746  1.00  0.00     0.127 C
BRANCH  10  11
HETATM   11  S1  UNL     1      -3.662  51.066  13.233  1.00  0.00    -0.090 SA
BRANCH  11  12
HETATM   12  C9  UNL     1      -3.986  52.808  13.429  1.00  0.00     0.136 C
HETATM   13  N3  UNL     1      -3.003  53.604  13.609  1.00  0.00    -0.380 N
ATOM     14  H32 UNL     1      -2.064  53.208  13.632  1.00  0.00     0.158 HD
ATOM     15  H31 UNL     1      -3.188  54.601  13.720  1.00  0.00     0.158 HD
BRANCH  12  16
HETATM   16  N4  UNL     1      -5.287  53.357  13.396  1.00  0.00    -0.362 N
HETATM   17  C10 UNL     1      -6.275  52.920  14.350  1.00  0.00     0.125 C
HETATM   18  C11 UNL     1      -7.592  52.839  13.602  1.00  0.00     0.020 C
HETATM   19  C12 UNL     1      -8.048  54.215  13.244  1.00  0.00     0.003 C
HETATM   20  C13 UNL     1      -6.906  55.117  12.911  1.00  0.00     0.020 C
HETATM   21  C14 UNL     1      -5.666  54.354  12.427  1.00  0.00     0.125 C
ENDBRANCH  12  16
ENDBRANCH  11  12
ENDBRANCH  10  11
ENDBRANCH   9  10
BRANCH   8  22
HETATM   22  O2  UNL     1      -0.826  53.163  11.702  1.00  0.00    -0.345 OA
ATOM     23  H2  UNL     1      -0.625  54.019  11.340  1.00  0.00     0.219 HD
ENDBRANCH   8  22
BRANCH   7  24
HETATM   24  C4  UNL     1      -0.338  53.604   9.000  1.00  0.00     0.131 C
HETATM   25  C5  UNL     1       1.167  53.603   9.109  1.00  0.00     0.027 C
ENDBRANCH   7  24
TORSDOF 6
ENDMDL