MODEL 1
REMARK VINA RESULT: -7.689364701      0.000      0.000
REMARK  6 active torsions:
REMARK  status: ('A' for Active; 'I' for Inactive)
REMARK    1  A    between atoms: O1_1  and  C1_3
REMARK    2  A    between atoms: C3_5  and  O2_6
REMARK    3  A    between atoms: O2_6  and  C4_7
REMARK    4  A    between atoms: C8_11  and  O3_12
REMARK    5  A    between atoms: C9_14  and  O4_15
REMARK    6  A    between atoms: C11_18  and  N1_19
ROOT
HETATM    1  C1  UNL     1      -9.511  56.869   9.640  1.00  0.00     0.070 A
HETATM    2  C2  UNL     1      -8.658  56.298  10.574  1.00  0.00     0.073 A
HETATM    3  C3  UNL     1      -8.978  56.237  11.904  1.00  0.00     0.074 A
HETATM    4  C10 UNL     1     -10.210  56.779  12.290  1.00  0.00     0.066 A
HETATM    5  C11 UNL     1     -11.061  57.345  11.381  1.00  0.00     0.035 A
HETATM    6  C17 UNL     1     -10.715  57.395  10.038  1.00  0.00     0.066 A
ENDROOT
BRANCH   3   7
HETATM    7  O2  UNL     1      -8.146  55.675  12.837  1.00  0.00    -0.343 OA
BRANCH   7   8
HETATM    8  C4  UNL     1      -7.334  54.574  12.743  1.00  0.00     0.160 C
HETATM    9  C5  UNL     1      -7.958  53.300  13.283  1.00  0.00     0.035 C
HETATM   10  C6  UNL     1      -7.102  52.152  12.821  1.00  0.00     0.005 C
HETATM   11  C7  UNL     1      -5.674  52.283  13.265  1.00  0.00     0.034 C
HETATM   12  C8  UNL     1      -5.108  53.649  13.089  1.00  0.00     0.149 C
HETATM   13  C9  UNL     1      -6.036  54.729  13.558  1.00  0.00     0.176 C
BRANCH  12  14
HETATM   14  O3  UNL     1      -3.896  53.706  13.798  1.00  0.00    -0.393 OA
ATOM     15  H3  UNL     1      -3.254  53.201  13.315  1.00  0.00     0.210 HD
ENDBRANCH  12  14
BRANCH  13  16
HETATM   16  O4  UNL     1      -6.385  54.586  14.881  1.00  0.00    -0.390 OA
ATOM     17  H4  UNL     1      -7.329  54.686  14.924  1.00  0.00     0.210 HD
ENDBRANCH  13  16
ENDBRANCH   7   8
ENDBRANCH   3   7
BRANCH   1  18
HETATM   18  O1  UNL     1      -9.160  56.916   8.304  1.00  0.00    -0.361 OA
ATOM     19  H1  UNL     1      -9.821  56.826   7.628  1.00  0.00     0.217 HD
ENDBRANCH   1  18
BRANCH   5  20
HETATM   20  N1  UNL     1     -12.328  57.897  11.749  1.00  0.00    -0.381 N
HETATM   21  C12 UNL     1     -13.362  56.962  12.135  1.00  0.00     0.123 C
HETATM   22  C13 UNL     1     -14.700  57.664  11.904  1.00  0.00     0.020 C
HETATM   23  C14 UNL     1     -14.723  58.849  12.810  1.00  0.00     0.003 C
HETATM   24  C15 UNL     1     -13.652  59.855  12.506  1.00  0.00     0.020 C
HETATM   25  C16 UNL     1     -12.501  59.303  11.727  1.00  0.00     0.123 C
ENDBRANCH   5  20
TORSDOF 6
ENDMDL