MODEL 4
REMARK VINA RESULT: -6.675738931      2.327      6.878
REMARK  5 active torsions:
REMARK  status: ('A' for Active; 'I' for Inactive)
REMARK    1  A    between atoms: C3_3  and  C4_4
REMARK    2  A    between atoms: C4_4  and  N1_5
REMARK    3  A    between atoms: C10_14  and  N3_15
REMARK    4  A    between atoms: N4_18  and  N5_19
REMARK    5  A    between atoms: N5_19  and  C11_21
ROOT
HETATM    1  C1  UNL     1      -6.099  51.652  11.421  1.00  0.00     0.073 C
HETATM    2  C2  UNL     1      -5.774  52.576  12.537  1.00  0.00     0.073 A
HETATM    3  C3  UNL     1      -4.591  52.469  13.281  1.00  0.00     0.079 A
HETATM    4  N2  UNL     1      -4.680  53.423  14.204  1.00  0.00    -0.190 N
ATOM      5  H2  UNL     1      -3.974  53.615  14.915  1.00  0.00     0.184 HD
HETATM    6  C10 UNL     1      -5.830  54.093  14.065  1.00  0.00     0.697 A
HETATM    7  N4  UNL     1      -6.549  53.571  13.003  1.00  0.00    -0.093 N
ENDROOT
BRANCH   3   8
HETATM    8  C4  UNL     1      -3.524  51.467  13.036  1.00  0.00     0.332 C
BRANCH   8   9
HETATM    9  N1  UNL     1      -2.199  52.025  13.059  1.00  0.00     0.098 N
HETATM   10  C5  UNL     1      -2.104  53.085  12.127  1.00  0.00     0.299 C
HETATM   11  C6  UNL     1      -1.217  52.787  10.942  1.00  0.00     0.198 C
HETATM   12  O1  UNL     1      -1.556  51.477  10.536  1.00  0.00    -0.383 OA
HETATM   13  C7  UNL     1      -0.934  50.635  11.461  1.00  0.00     0.145 C
HETATM   14  C8  UNL     1      -1.368  49.224  11.120  1.00  0.00     0.041 C
HETATM   15  C9  UNL     1      -1.265  50.947  12.868  1.00  0.00     0.304 C
ENDBRANCH   8   9
ENDBRANCH   3   8
BRANCH   7  16
HETATM   16  N5  UNL     1      -7.762  54.088  12.579  1.00  0.00    -0.310 N
ATOM     17  H5  UNL     1      -8.484  54.104  13.299  1.00  0.00     0.181 HD
BRANCH  16  18
HETATM   18  C11 UNL     1      -8.183  54.600  11.322  1.00  0.00     0.100 C
HETATM   19  C12 UNL     1      -8.282  56.104  11.416  1.00  0.00     0.026 C
HETATM   20  C13 UNL     1      -9.631  56.413  12.036  1.00  0.00     0.002 C
HETATM   21  C14 UNL     1     -10.639  56.169  10.937  1.00  0.00     0.000 C
HETATM   22  C15 UNL     1     -10.439  54.887  10.221  1.00  0.00     0.002 C
HETATM   23  C16 UNL     1      -9.444  53.954  10.824  1.00  0.00     0.026 C
ENDBRANCH  16  18
ENDBRANCH   7  16
BRANCH   6  24
HETATM   24  N3  UNL     1      -6.250  55.086  14.787  1.00  0.00    -0.233 N
ATOM     25  H32 UNL     1      -7.175  55.113  15.216  1.00  0.00     0.174 HD
ATOM     26  H31 UNL     1      -5.740  55.940  15.017  1.00  0.00     0.174 HD
ENDBRANCH   6  24
TORSDOF 5
ENDMDL