MODEL 5
REMARK VINA RESULT: -5.552889843      1.847      2.751
REMARK  7 active torsions:
REMARK  status: ('A' for Active; 'I' for Inactive)
REMARK    1  A    between atoms: C2_2  and  C3_3
REMARK    2  A    between atoms: C5_7  and  C6_8
REMARK    3  A    between atoms: N2_10  and  N3_12
REMARK    4  A    between atoms: N3_12  and  C8_14
REMARK    5  A    between atoms: C8_14  and  N4_16
REMARK    6  A    between atoms: N4_16  and  C9_18
REMARK    7  A    between atoms: C9_18  and  N5_20
ROOT
HETATM    1  C6  UNL     1      -5.643  53.459  13.531  1.00  0.00     0.055 C
HETATM    2  C7  UNL     1      -6.051  52.859  14.822  1.00  0.00     0.072 C
HETATM    3  N2  UNL     1      -6.427  54.192  12.859  1.00  0.00    -0.300 N
ATOM      4  H2  UNL     1      -7.355  54.348  13.254  1.00  0.00     0.186 HD
ENDROOT
BRANCH   3   5
HETATM    5  N3  UNL     1      -6.163  54.797  11.659  1.00  0.00    -0.276 N
ATOM      6  H3  UNL     1      -5.280  55.281  11.500  1.00  0.00     0.189 HD
BRANCH   5   7
HETATM    7  C8  UNL     1      -7.184  54.730  10.611  1.00  0.00     0.192 C
HETATM    8  S1  UNL     1      -7.464  53.297   9.894  1.00  0.00    -0.039 SA
BRANCH   7   9
HETATM    9  N4  UNL     1      -7.867  55.903  10.280  1.00  0.00    -0.309 N
ATOM     10  H4  UNL     1      -7.444  56.415   9.505  1.00  0.00     0.170 HD
BRANCH   9  11
HETATM   11  C9  UNL     1      -9.007  56.518  10.794  1.00  0.00     0.173 C
HETATM   12  S2  UNL     1      -9.850  57.602   9.829  1.00  0.00    -0.041 SA
BRANCH  11  13
HETATM   13  N5  UNL     1      -9.535  56.314  12.067  1.00  0.00    -0.371 N
HETATM   14  C10 UNL     1     -10.767  57.052  12.441  1.00  0.00     0.148 C
ATOM     15  H5  UNL     1      -9.087  55.675  12.724  1.00  0.00     0.161 HD
ENDBRANCH  11  13
ENDBRANCH   9  11
ENDBRANCH   7   9
ENDBRANCH   5   7
ENDBRANCH   3   5
BRANCH   1  16
HETATM   16  C5  UNL     1      -4.267  53.165  13.049  1.00  0.00     0.098 A
HETATM   17  N1  UNL     1      -3.129  53.679  13.465  1.00  0.00    -0.358 N
HETATM   18  C4  UNL     1      -2.004  53.296  12.916  1.00  0.00     0.103 A
ATOM     19  H1  UNL     1      -3.124  54.373  14.212  1.00  0.00     0.166 HD
HETATM   20  C3  UNL     1      -2.090  52.357  11.915  1.00  0.00    -0.000 A
HETATM   21  S3  UNL     1      -3.767  52.086  11.825  1.00  0.00    -0.074 SA
BRANCH  20  22
HETATM   22  C2  UNL     1      -0.958  51.750  11.124  1.00  0.00     0.043 C
HETATM   23  C1  UNL     1      -0.457  52.732  10.094  1.00  0.00     0.010 C
ENDBRANCH  20  22
ENDBRANCH   1  16
TORSDOF 7
ENDMDL