MODEL 5
REMARK VINA RESULT: -6.352284845      4.181      5.900
REMARK  4 active torsions:
REMARK  status: ('A' for Active; 'I' for Inactive)
REMARK    1  A    between atoms: C2_2  and  C3_3
REMARK    2  A    between atoms: C3_3  and  N1_4
REMARK    3  A    between atoms: C5_8  and  C6_9
REMARK    4  A    between atoms: N2_18  and  O3_20
ROOT
HETATM    1  N1  UNL     1      -3.831  51.407  11.610  1.00  0.00    -0.356 N
HETATM    2  C4  UNL     1      -3.256  52.693  11.910  1.00  0.00     0.138 C
HETATM    3  S1  UNL     1      -1.662  52.902  11.933  1.00  0.00    -0.053 SA
HETATM    4  S2  UNL     1      -4.474  53.983  12.244  1.00  0.00    -0.079 SA
HETATM    5  C5  UNL     1      -5.935  53.272  13.116  1.00  0.00     0.105 C
HETATM    6  C7  UNL     1      -7.159  53.211  12.233  1.00  0.00     0.032 C
HETATM    7  C8  UNL     1      -7.889  51.910  12.278  1.00  0.00     0.002 C
HETATM    8  C9  UNL     1      -7.498  50.843  11.328  1.00  0.00     0.002 C
HETATM    9  C10 UNL     1      -6.082  50.277  11.527  1.00  0.00     0.025 C
HETATM   10  C11 UNL     1      -5.238  51.430  11.790  1.00  0.00     0.088 C
HETATM   11  C12 UNL     1      -5.459  51.834  13.230  1.00  0.00     0.057 C
ENDROOT
BRANCH   1  12
HETATM   12  C3  UNL     1      -3.080  50.286  11.195  1.00  0.00     0.178 C
BRANCH  12  13
HETATM   13  C2  UNL     1      -2.935  49.213  12.167  1.00  0.00     0.024 C
HETATM   14  C1  UNL     1      -2.904  47.810  11.707  1.00  0.00     0.067 C
HETATM   15  N2  UNL     1      -2.836  49.464  13.414  1.00  0.00    -0.276 N
ATOM     16  H2  UNL     1      -2.857  50.427  13.749  1.00  0.00     0.193 HD
BRANCH  15  17
HETATM   17  O3  UNL     1      -2.701  48.428  14.299  1.00  0.00    -0.290 OA
ATOM     18  H3  UNL     1      -1.846  48.239  14.669  1.00  0.00     0.244 HD
ENDBRANCH  15  17
ENDBRANCH  12  13
ENDBRANCH   1  12
BRANCH   5  19
HETATM   19  C6  UNL     1      -6.168  53.911  14.408  1.00  0.00     0.193 C
HETATM   20  O1  UNL     1      -5.636  53.387  15.428  1.00  0.00    -0.647 OA
HETATM   21  O2  UNL     1      -6.937  55.044  14.528  1.00  0.00    -0.647 OA
ENDBRANCH   5  19
TORSDOF 4
ENDMDL