MODEL 2
REMARK VINA RESULT: -6.952480273      2.348      4.589
REMARK  3 active torsions:
REMARK  status: ('A' for Active; 'I' for Inactive)
REMARK       I    between atoms: C1_4  and  N3_6
REMARK    1  A    between atoms: N3_6  and  N4_8
REMARK    2  A    between atoms: C2_10  and  C3_11
REMARK    3  A    between atoms: C5_16  and  C6_17
ROOT
HETATM    1  C3  UNL     1      -6.145  52.090  13.245  1.00  0.00     0.012 A
HETATM    2  C4  UNL     1      -7.406  52.584  13.297  1.00  0.00     0.109 A
HETATM    3  N5  UNL     1      -8.276  52.152  12.384  1.00  0.00    -0.336 N
ATOM      4  H5  UNL     1      -9.256  52.418  12.281  1.00  0.00     0.173 HD
HETATM    5  S1  UNL     1      -7.404  51.078  11.446  1.00  0.00    -0.018 SA
HETATM    6  C5  UNL     1      -5.896  51.184  12.240  1.00  0.00     0.021 A
ENDROOT
BRANCH   1   7
HETATM    7  C2  UNL     1      -5.085  52.490  14.205  1.00  0.00     0.121 C
HETATM    8  N4  UNL     1      -4.049  53.156  13.968  1.00  0.00    -0.309 N
ATOM      9  H4  UNL     1      -3.491  53.287  14.812  1.00  0.00     0.186 HD
BRANCH   8  10
HETATM   10  N3  UNL     1      -3.476  53.742  12.907  1.00  0.00    -0.274 N
HETATM   11  C1  UNL     1      -2.084  53.457  12.648  1.00  0.00     0.200 C
HETATM   12  N1  UNL     1      -1.280  53.062  13.574  1.00  0.00    -0.372 N
HETATM   13  N2  UNL     1      -1.567  53.610  11.339  1.00  0.00    -0.062 NA
ATOM     14  H12 UNL     1      -0.297  52.860  13.391  1.00  0.00     0.158 HD
ATOM     15  H11 UNL     1      -1.652  52.951  14.517  1.00  0.00     0.158 HD
ATOM     16  H3  UNL     1      -4.006  54.369  12.302  1.00  0.00     0.189 HD
ENDBRANCH   8  10
ENDBRANCH   1   7
BRANCH   6  17
HETATM   17  C6  UNL     1      -4.623  50.451  11.897  1.00  0.00    -0.003 C
HETATM   18  C7  UNL     1      -5.127  49.102  11.305  1.00  0.00     0.019 C
HETATM   19  C8  UNL     1      -3.989  48.229  10.907  1.00  0.00    -0.013 C
HETATM   20  C9  UNL     1      -3.071  47.938  12.066  1.00  0.00     0.009 C
HETATM   21  C13 UNL     1      -3.208  48.932   9.803  1.00  0.00     0.009 C
HETATM   22  C10 UNL     1      -2.618  49.272  12.620  1.00  0.00    -0.013 C
HETATM   23  C11 UNL     1      -1.833  50.019  11.592  1.00  0.00     0.009 C
HETATM   24  C15 UNL     1      -3.835  50.036  13.084  1.00  0.00     0.019 C
HETATM   25  C12 UNL     1      -2.695  50.213  10.390  1.00  0.00    -0.013 C
HETATM   26  C14 UNL     1      -3.877  51.067  10.768  1.00  0.00     0.019 C
ENDBRANCH   6  17
TORSDOF 3
ENDMDL