MODEL 2
REMARK VINA RESULT: -6.796350385      4.563      5.723
REMARK  6 active torsions:
REMARK  status: ('A' for Active; 'I' for Inactive)
REMARK    1  A    between atoms: C3_4  and  N1_5
REMARK    2  A    between atoms: N1_5  and  C4_7
REMARK    3  A    between atoms: C7_12  and  C8_13
REMARK    4  A    between atoms: C12_17  and  O1_18
REMARK    5  A    between atoms: C13_20  and  O2_21
REMARK    6  A    between atoms: O2_21  and  C14_22
ROOT
HETATM    1  C1  UNL     1      -7.554  51.471  10.772  1.00  0.00     0.059 C
HETATM    2  C2  UNL     1      -7.242  52.765  10.050  1.00  0.00     0.009 A
HETATM    3  S1  UNL     1      -7.377  53.061   8.381  1.00  0.00    -0.057 SA
HETATM    4  C3  UNL     1      -7.117  54.744   8.399  1.00  0.00     0.145 A
HETATM    5  N2  UNL     1      -6.930  54.996   9.682  1.00  0.00    -0.336 N
ATOM      6  H2  UNL     1      -6.745  55.949   9.993  1.00  0.00     0.168 HD
HETATM    7  C7  UNL     1      -6.982  54.004  10.567  1.00  0.00     0.052 A
ENDROOT
BRANCH   7   8
HETATM    8  C8  UNL     1      -6.531  54.222  12.000  1.00  0.00    -0.020 C
HETATM    9  C9  UNL     1      -5.146  53.812  12.241  1.00  0.00     0.039 C
HETATM   10  C10 UNL     1      -4.919  53.414  13.664  1.00  0.00     0.007 C
HETATM   11  C11 UNL     1      -6.116  53.593  14.532  1.00  0.00     0.035 C
HETATM   12  C12 UNL     1      -6.856  54.851  14.335  1.00  0.00     0.152 C
HETATM   13  C13 UNL     1      -7.154  55.193  12.827  1.00  0.00     0.193 C
BRANCH  12  14
HETATM   14  O1  UNL     1      -6.233  55.907  14.979  1.00  0.00    -0.393 OA
ATOM     15  H1  UNL     1      -6.861  56.443  15.451  1.00  0.00     0.210 HD
ENDBRANCH  12  14
BRANCH  13  16
HETATM   16  O2  UNL     1      -8.625  55.018  12.862  1.00  0.00    -0.294 OA
BRANCH  16  17
HETATM   17  C14 UNL     1      -9.380  56.077  12.397  1.00  0.00     0.373 C
HETATM   18  N3  UNL     1      -9.285  56.598  11.088  1.00  0.00    -0.032 NA
HETATM   19  O3  UNL     1     -10.237  56.667  13.145  1.00  0.00    -0.242 OA
ENDBRANCH  16  17
ENDBRANCH  13  16
ENDBRANCH   7   8
BRANCH   4  20
HETATM   20  N1  UNL     1      -7.087  55.548   7.349  1.00  0.00    -0.366 N
ATOM     21  H1  UNL     1      -6.556  56.417   7.410  1.00  0.00     0.162 HD
BRANCH  20  22
HETATM   22  C4  UNL     1      -7.768  55.243   6.140  1.00  0.00     0.083 A
HETATM   23  C5  UNL     1      -7.095  55.886   4.914  1.00  0.00     0.027 A
HETATM   24  C6  UNL     1      -8.432  56.315   5.322  1.00  0.00     0.027 A
ENDBRANCH  20  22
ENDBRANCH   4  20
TORSDOF 6
ENDMDL