MODEL 5
REMARK VINA RESULT: -6.899585136      1.198      1.440
REMARK  5 active torsions:
REMARK  status: ('A' for Active; 'I' for Inactive)
REMARK    1  A    between atoms: C2_2  and  C3_3
REMARK    2  A    between atoms: C3_3  and  O1_4
REMARK    3  A    between atoms: N1_12  and  C10_13
REMARK    4  A    between atoms: C11_16  and  N3_17
REMARK    5  A    between atoms: C12_22  and  C13_23
ROOT
HETATM    1  C10 UNL     1      -3.025  51.857  11.227  1.00  0.00     0.696 A
HETATM    2  N2  UNL     1      -1.872  51.348  11.642  1.00  0.00    -0.022 N
ATOM      3  H2  UNL     1      -1.779  51.133  12.635  1.00  0.00     0.203 HD
HETATM    4  C11 UNL     1      -0.819  51.093  10.845  1.00  0.00     0.691 A
HETATM    5  N4  UNL     1      -0.947  51.374   9.548  1.00  0.00    -0.179 N
ATOM      6  H4  UNL     1      -0.168  51.194   8.915  1.00  0.00     0.185 HD
HETATM    7  C12 UNL     1      -2.102  51.898   9.056  1.00  0.00     0.117 A
HETATM    8  N5  UNL     1      -3.117  52.131   9.892  1.00  0.00    -0.179 N
ATOM      9  H5  UNL     1      -3.984  52.523   9.525  1.00  0.00     0.185 HD
ENDROOT
BRANCH   1  10
HETATM   10  N1  UNL     1      -4.118  52.114  12.101  1.00  0.00    -0.212 N
HETATM   11  C6  UNL     1      -4.127  52.892  13.303  1.00  0.00     0.102 C
HETATM   12  C5  UNL     1      -4.321  54.350  13.091  1.00  0.00     0.029 C
HETATM   13  C7  UNL     1      -5.205  52.234  14.120  1.00  0.00     0.032 C
HETATM   14  C4  UNL     1      -5.706  54.842  13.438  1.00  0.00     0.040 C
HETATM   15  C3  UNL     1      -6.774  54.302  12.547  1.00  0.00     0.058 C
HETATM   16  C16 UNL     1      -7.285  52.964  12.913  1.00  0.00     0.044 C
HETATM   17  C8  UNL     1      -6.248  51.910  13.112  1.00  0.00     0.009 C
HETATM   18  C9  UNL     1      -5.453  51.589  11.879  1.00  0.00     0.146 C
BRANCH  15  19
HETATM   19  C2  UNL     1      -7.975  55.260  12.546  1.00  0.00     0.033 C
HETATM   20  C1  UNL     1      -8.123  55.979  11.248  1.00  0.00     0.008 C
ENDBRANCH  15  19
BRANCH  15  21
HETATM   21  O1  UNL     1      -6.279  54.358  11.227  1.00  0.00    -0.390 OA
ATOM     22  H1  UNL     1      -6.657  55.151  10.866  1.00  0.00     0.210 HD
ENDBRANCH  15  21
ENDBRANCH   1  10
BRANCH   4  23
HETATM   23  N3  UNL     1       0.294  50.597  11.271  1.00  0.00    -0.234 N
ATOM     24  H32 UNL     1       1.066  50.479  10.614  1.00  0.00     0.174 HD
ATOM     25  H31 UNL     1       0.452  50.311  12.237  1.00  0.00     0.174 HD
ENDBRANCH   4  23
BRANCH   7  26
HETATM   26  C13 UNL     1      -2.144  52.173   7.605  1.00  0.00     0.046 C
HETATM   27  C14 UNL     1      -0.966  53.077   7.236  1.00  0.00     0.017 C
HETATM   28  C15 UNL     1      -1.979  50.888   6.828  1.00  0.00     0.017 C
ENDBRANCH   7  26
TORSDOF 5
ENDMDL