MODEL 5
REMARK VINA RESULT: -6.558516198      4.631      8.009
REMARK  4 active torsions:
REMARK  status: ('A' for Active; 'I' for Inactive)
REMARK    1  A    between atoms: N4_13  and  C6_14
REMARK    2  A    between atoms: C14_23  and  C15_24
REMARK    3  A    between atoms: C15_24  and  C16_25
REMARK    4  A    between atoms: C16_25  and  O1_26
ROOT
HETATM    1  C6  UNL     1      -7.417  53.564  11.330  1.00  0.00     0.109 C
HETATM    2  C7  UNL     1      -6.547  52.284  11.384  1.00  0.00     0.027 C
HETATM    3  C8  UNL     1      -6.839  51.666  12.729  1.00  0.00     0.004 C
HETATM    4  C9  UNL     1      -6.750  52.686  13.838  1.00  0.00     0.019 C
HETATM    5  C10 UNL     1      -6.069  53.943  13.434  1.00  0.00     0.095 C
HETATM    6  C11 UNL     1      -4.597  53.765  13.470  1.00  0.00     0.064 C
HETATM    7  N5  UNL     1      -3.451  53.619  13.491  1.00  0.00    -0.197 NA
HETATM    8  C12 UNL     1      -6.477  54.537  12.140  1.00  0.00     0.046 C
ENDROOT
BRANCH   1   9
HETATM    9  N4  UNL     1      -7.448  54.114  10.022  1.00  0.00    -0.286 N
HETATM   10  N3  UNL     1      -6.513  53.835   9.067  1.00  0.00    -0.308 N
HETATM   11  C5  UNL     1      -6.778  54.444   7.949  1.00  0.00     0.124 A
ATOM     12  H3  UNL     1      -5.707  53.226   9.212  1.00  0.00     0.186 HD
HETATM   13  C4  UNL     1      -7.931  55.176   8.114  1.00  0.00     0.053 A
HETATM   14  C3  UNL     1      -8.665  55.987   7.283  1.00  0.00     0.113 A
HETATM   15  C13 UNL     1      -8.328  54.940   9.450  1.00  0.00     0.074 A
HETATM   16  N1  UNL     1      -9.771  56.554   7.769  1.00  0.00    -0.345 N
HETATM   17  N2  UNL     1      -8.252  56.165   6.072  1.00  0.00    -0.385 N
HETATM   18  C2  UNL     1     -10.182  56.357   9.033  1.00  0.00     0.015 A
ATOM     19  H1  UNL     1     -10.324  57.158   7.160  1.00  0.00     0.167 HD
HETATM   20  C1  UNL     1     -11.432  57.050   9.499  1.00  0.00     0.069 C
HETATM   21  C14 UNL     1      -9.482  55.544   9.925  1.00  0.00    -0.004 A
ATOM     22  H22 UNL     1      -8.797  56.767   5.455  1.00  0.00     0.157 HD
ATOM     23  H21 UNL     1      -7.407  55.731   5.701  1.00  0.00     0.157 HD
BRANCH  21  24
HETATM   24  C15 UNL     1      -9.927  55.310  11.292  1.00  0.00     0.069 C
BRANCH  24  25
HETATM   25  C16 UNL     1      -9.542  56.351  12.312  1.00  0.00     0.168 C
BRANCH  25  26
HETATM   26  O1  UNL     1      -9.333  55.742  13.573  1.00  0.00    -0.401 OA
ATOM     27  H1  UNL     1     -10.118  55.283  13.848  1.00  0.00     0.209 HD
ENDBRANCH  25  26
ENDBRANCH  24  25
ENDBRANCH  21  24
ENDBRANCH   1   9
TORSDOF 4
ENDMDL