MODEL 3
REMARK VINA RESULT: -7.619133598      1.874      2.081
REMARK  6 active torsions:
REMARK  status: ('A' for Active; 'I' for Inactive)
REMARK    1  A    between atoms: C4_5  and  C5_6
REMARK    2  A    between atoms: C6_7  and  C7_8
REMARK    3  A    between atoms: C7_8  and  C9_10
REMARK    4  A    between atoms: C15_17  and  O2_18
REMARK    5  A    between atoms: C16_20  and  O3_21
REMARK    6  A    between atoms: C17_23  and  O4_24
ROOT
HETATM    1  C1  UNL     1      -6.128  50.004   9.222  1.00  0.00     0.060 C
HETATM    2  C2  UNL     1      -5.312  48.914   9.834  1.00  0.00     0.018 C
HETATM    3  C3  UNL     1      -5.350  47.617   9.239  1.00  0.00     0.094 C
HETATM    4  N1  UNL     1      -5.376  46.539   8.766  1.00  0.00    -0.192 NA
HETATM    5  C4  UNL     1      -4.563  49.119  10.904  1.00  0.00     0.017 C
ENDROOT
BRANCH   5   6
HETATM    6  C5  UNL     1      -4.482  50.440  11.566  1.00  0.00    -0.002 C
HETATM    7  C6  UNL     1      -5.100  50.662  12.711  1.00  0.00    -0.022 C
BRANCH   7   8
HETATM    8  C7  UNL     1      -5.007  51.989  13.358  1.00  0.00     0.011 C
HETATM    9  C8  UNL     1      -3.978  52.803  12.646  1.00  0.00     0.015 C
BRANCH   8  10
HETATM   10  C9  UNL     1      -6.386  52.617  13.402  1.00  0.00     0.027 C
HETATM   11  C10 UNL     1      -6.861  53.147  12.121  1.00  0.00     0.048 C
HETATM   12  C11 UNL     1      -7.750  54.335  12.121  1.00  0.00     0.089 C
HETATM   13  C12 UNL     1      -7.743  55.043  10.779  1.00  0.00     0.043 C
HETATM   14  O1  UNL     1      -9.078  53.913  12.169  1.00  0.00    -0.377 OA
HETATM   15  C15 UNL     1      -7.519  55.327  13.208  1.00  0.00     0.183 C
HETATM   16  C13 UNL     1      -8.467  54.032   9.914  1.00  0.00     0.029 C
HETATM   17  C14 UNL     1      -9.397  53.387  10.918  1.00  0.00     0.169 C
HETATM   18  C16 UNL     1      -6.420  54.939  14.163  1.00  0.00     0.178 C
HETATM   19  C17 UNL     1      -6.503  53.522  14.600  1.00  0.00     0.154 C
BRANCH  15  20
HETATM   20  O2  UNL     1      -8.678  55.536  13.954  1.00  0.00    -0.390 OA
ATOM     21  H2  UNL     1      -8.481  55.611  14.880  1.00  0.00     0.210 HD
ENDBRANCH  15  20
BRANCH  18  22
HETATM   22  O3  UNL     1      -6.603  55.741  15.315  1.00  0.00    -0.390 OA
ATOM     23  H3  UNL     1      -6.974  55.169  15.977  1.00  0.00     0.210 HD
ENDBRANCH  18  22
BRANCH  19  24
HETATM   24  O4  UNL     1      -5.437  53.252  15.464  1.00  0.00    -0.393 OA
ATOM     25  H4  UNL     1      -4.642  53.185  14.949  1.00  0.00     0.210 HD
ENDBRANCH  19  24
ENDBRANCH   8  10
ENDBRANCH   7   8
ENDBRANCH   5   6
TORSDOF 6
ENDMDL