MODEL 5
REMARK VINA RESULT: -6.388677200      2.144      5.257
REMARK  5 active torsions:
REMARK  status: ('A' for Active; 'I' for Inactive)
REMARK    1  A    between atoms: C2_2  and  C3_3
REMARK    2  A    between atoms: C3_3  and  N1_4
REMARK    3  A    between atoms: C4_5  and  O1_6
REMARK    4  A    between atoms: C7_10  and  O2_11
REMARK    5  A    between atoms: C8_13  and  C9_14
ROOT
HETATM    1  N1  UNL     1      -5.867  52.919  13.417  1.00  0.00    -0.304 N
HETATM    2  C4  UNL     1      -6.495  51.983  12.664  1.00  0.00     0.154 A
HETATM    3  C5  UNL     1      -5.522  51.272  12.010  1.00  0.00     0.039 A
HETATM    4  C6  UNL     1      -4.288  51.779  12.368  1.00  0.00     0.029 A
HETATM    5  C7  UNL     1      -4.535  52.813  13.254  1.00  0.00     0.153 A
HETATM    6  C8  UNL     1      -3.260  50.996  11.649  1.00  0.00     0.117 C
HETATM    7  C10 UNL     1      -4.016  50.759  10.319  1.00  0.00     0.052 C
HETATM    8  C11 UNL     1      -3.258  49.664   9.681  1.00  0.00     0.012 C
HETATM    9  C12 UNL     1      -2.523  48.957  10.828  1.00  0.00     0.040 C
HETATM   10  C13 UNL     1      -3.267  49.550  12.011  1.00  0.00     0.081 C
HETATM   11  C14 UNL     1      -2.788  49.153  13.326  1.00  0.00     0.048 C
HETATM   12  O5  UNL     1      -4.615  49.171  11.800  1.00  0.00    -0.363 OA
HETATM   13  C15 UNL     1      -5.219  50.151  11.051  1.00  0.00     0.095 C
HETATM   14  C16 UNL     1      -6.335  49.773  10.198  1.00  0.00     0.052 C
ENDROOT
BRANCH   1  15
HETATM   15  C3  UNL     1      -6.520  53.877  14.260  1.00  0.00     0.160 C
BRANCH  15  16
HETATM   16  C2  UNL     1      -6.712  55.180  13.533  1.00  0.00    -0.017 C
HETATM   17  C1  UNL     1      -7.822  55.346  12.814  1.00  0.00     0.008 C
ENDBRANCH  15  16
ENDBRANCH   1  15
BRANCH   2  18
HETATM   18  O1  UNL     1      -7.848  51.757  12.549  1.00  0.00    -0.345 OA
ATOM     19  H1  UNL     1      -8.304  50.924  12.566  1.00  0.00     0.219 HD
ENDBRANCH   2  18
BRANCH   5  20
HETATM   20  O2  UNL     1      -3.584  53.628  13.887  1.00  0.00    -0.345 OA
ATOM     21  H2  UNL     1      -3.681  54.563  14.028  1.00  0.00     0.219 HD
ENDBRANCH   5  20
BRANCH   6  22
HETATM   22  C9  UNL     1      -2.006  51.651  11.442  1.00  0.00     0.190 C
HETATM   23  O3  UNL     1      -1.965  52.639  10.625  1.00  0.00    -0.647 OA
HETATM   24  O4  UNL     1      -0.824  51.327  12.036  1.00  0.00    -0.647 OA
ENDBRANCH   6  22
TORSDOF 5
ENDMDL