MODEL 3
REMARK VINA RESULT: -6.338747827      1.124      1.173
REMARK  5 active torsions:
REMARK  status: ('A' for Active; 'I' for Inactive)
REMARK    1  A    between atoms: C3_3  and  O1_4
REMARK    2  A    between atoms: C7_9  and  O2_10
REMARK    3  A    between atoms: O2_10  and  S1_11
REMARK    4  A    between atoms: S1_11  and  C8_12
REMARK    5  A    between atoms: C14_19  and  O4_20
ROOT
HETATM    1  C1  UNL     1      -6.567  55.126  14.071  1.00  0.00     0.017 C
HETATM    2  C2  UNL     1      -6.648  54.241  13.108  1.00  0.00    -0.054 C
HETATM    3  C3  UNL     1      -7.998  54.146  12.424  1.00  0.00     0.146 C
HETATM    4  C4  UNL     1      -8.421  52.711  12.785  1.00  0.00     0.037 C
HETATM    5  C5  UNL     1      -7.442  51.821  12.124  1.00  0.00     0.011 C
HETATM    6  C6  UNL     1      -6.018  51.906  12.637  1.00  0.00     0.027 C
HETATM    7  C7  UNL     1      -5.279  50.989  11.732  1.00  0.00     0.153 C
HETATM    8  C10 UNL     1      -3.818  50.832  11.934  1.00  0.00     0.082 C
HETATM    9  C11 UNL     1      -3.386  50.127  13.162  1.00  0.00     0.020 C
HETATM   10  C12 UNL     1      -3.196  52.169  11.725  1.00  0.00     0.135 C
HETATM   11  O3  UNL     1      -2.774  52.441  10.590  1.00  0.00    -0.297 OA
HETATM   12  C13 UNL     1      -3.055  53.178  12.779  1.00  0.00     0.111 C
HETATM   13  C14 UNL     1      -4.348  53.642  13.393  1.00  0.00     0.133 C
HETATM   14  C15 UNL     1      -5.581  53.335  12.626  1.00  0.00     0.052 C
ENDROOT
BRANCH   7  15
HETATM   15  O2  UNL     1      -5.917  49.749  11.725  1.00  0.00    -0.314 OA
BRANCH  15  16
HETATM   16  S1  UNL     1      -5.715  48.904  10.251  1.00  0.00    -0.012 SA
BRANCH  16  17
HETATM   17  C8  UNL     1      -5.722  50.035   8.833  1.00  0.00     0.100 C
HETATM   18  C9  UNL     1      -4.342  50.181   8.236  1.00  0.00     0.018 C
ENDBRANCH  16  17
ENDBRANCH  15  16
ENDBRANCH   7  15
BRANCH  13  19
HETATM   19  O4  UNL     1      -4.378  53.269  14.720  1.00  0.00    -0.394 OA
ATOM     20  H4  UNL     1      -4.969  52.531  14.822  1.00  0.00     0.210 HD
ENDBRANCH  13  19
BRANCH   3  21
HETATM   21  O1  UNL     1      -8.883  55.071  12.909  1.00  0.00    -0.391 OA
ATOM     22  H1  UNL     1      -8.714  55.278  13.821  1.00  0.00     0.210 HD
ENDBRANCH   3  21
TORSDOF 5
ENDMDL