MODEL 4
REMARK VINA RESULT: -7.105353936      0.612      1.045
REMARK  8 active torsions:
REMARK  status: ('A' for Active; 'I' for Inactive)
REMARK    1  A    between atoms: N1_1  and  C1_5
REMARK    2  A    between atoms: C1_5  and  C2_6
REMARK    3  A    between atoms: C2_6  and  S1_7
REMARK    4  A    between atoms: S1_7  and  N2_10
REMARK    5  A    between atoms: N2_10  and  C3_12
REMARK    6  A    between atoms: C9_18  and  C10_19
REMARK    7  A    between atoms: C10_19  and  O3_20
REMARK    8  A    between atoms: C10_19  and  C11_22
ROOT
HETATM    1  C3  UNL     1      -5.252  53.561  14.043  1.00  0.00     0.097 C
HETATM    2  C4  UNL     1      -6.151  54.794  14.168  1.00  0.00     0.031 C
HETATM    3  C5  UNL     1      -6.252  54.798  12.683  1.00  0.00     0.000 C
HETATM    4  C6  UNL     1      -5.888  53.322  12.690  1.00  0.00     0.013 C
HETATM    5  C7  UNL     1      -7.202  52.588  12.746  1.00  0.00     0.007 C
HETATM    6  C8  UNL     1      -8.227  53.547  12.140  1.00  0.00     0.008 C
HETATM    7  C9  UNL     1      -7.609  54.891  12.040  1.00  0.00     0.019 C
ENDROOT
BRANCH   1   8
HETATM    8  N2  UNL     1      -3.895  53.748  14.128  1.00  0.00    -0.314 N
ATOM      9  H2  UNL     1      -3.550  54.187  14.983  1.00  0.00     0.172 HD
BRANCH   8  10
HETATM   10  S1  UNL     1      -2.762  53.344  13.007  1.00  0.00     0.228 S
HETATM   11  O1  UNL     1      -2.864  54.157  11.709  1.00  0.00    -0.206 OA
HETATM   12  O2  UNL     1      -1.329  53.567  13.443  1.00  0.00    -0.206 OA
BRANCH  10  13
HETATM   13  C2  UNL     1      -2.877  51.660  12.508  1.00  0.00     0.190 C
BRANCH  13  14
HETATM   14  C1  UNL     1      -1.588  50.967  12.223  1.00  0.00     0.246 C
BRANCH  14  15
HETATM   15  N1  UNL     1      -0.776  51.782  11.321  1.00  0.00    -0.078 N
ATOM     16  H13 UNL     1      -0.207  51.210  10.697  1.00  0.00     0.274 HD
ATOM     17  H12 UNL     1      -1.343  52.253  10.615  1.00  0.00     0.274 HD
ATOM     18  H11 UNL     1      -0.212  52.439  11.861  1.00  0.00     0.274 HD
ENDBRANCH  14  15
ENDBRANCH  13  14
ENDBRANCH  10  13
ENDBRANCH   8  10
ENDBRANCH   1   8
BRANCH   7  19
HETATM   19  C10 UNL     1      -8.407  56.059  12.466  1.00  0.00     0.126 C
BRANCH  19  20
HETATM   20  O3  UNL     1      -9.331  55.832  13.477  1.00  0.00    -0.395 OA
ATOM     21  H3  UNL     1      -9.749  54.979  13.478  1.00  0.00     0.210 HD
ENDBRANCH  19  20
BRANCH  19  22
HETATM   22  C11 UNL     1      -8.973  56.837  11.328  1.00  0.00     0.015 C
HETATM   23  C12 UNL     1     -10.471  56.612  11.182  1.00  0.00     0.007 C
HETATM   24  C13 UNL     1     -10.781  57.081   9.788  1.00  0.00     0.000 C
HETATM   25  C14 UNL     1      -9.487  57.193   9.055  1.00  0.00     0.000 C
HETATM   26  C15 UNL     1      -8.482  56.476   9.970  1.00  0.00     0.007 C
ENDBRANCH  19  22
ENDBRANCH   7  19
TORSDOF 8
ENDMDL