MODEL 4
REMARK VINA RESULT: -6.782249273      3.076      7.372
REMARK  6 active torsions:
REMARK  status: ('A' for Active; 'I' for Inactive)
REMARK    1  A    between atoms: N1_1  and  C1_5
REMARK    2  A    between atoms: C4_8  and  N2_9
REMARK    3  A    between atoms: N2_9  and  C5_12
REMARK    4  A    between atoms: C5_12  and  C6_13
REMARK       I    between atoms: C6_13  and  N3_15
REMARK    5  A    between atoms: N3_15  and  C7_17
REMARK    6  A    between atoms: C11_21  and  N4_22
ROOT
HETATM    1  C6  UNL     1      -7.649  55.359  13.226  1.00  0.00     0.243 C
HETATM    2  O1  UNL     1      -8.529  54.479  13.529  1.00  0.00    -0.272 OA
HETATM    3  N3  UNL     1      -7.902  56.123  12.058  1.00  0.00    -0.353 N
ATOM      4  H3  UNL     1      -7.230  56.847  11.803  1.00  0.00     0.163 HD
ENDROOT
BRANCH   1   5
HETATM    5  C5  UNL     1      -6.480  55.525  14.069  1.00  0.00     0.335 C
BRANCH   5   6
HETATM    6  N2  UNL     1      -5.863  54.288  14.409  1.00  0.00    -0.063 N
ATOM      7  H22 UNL     1      -6.540  53.641  14.815  1.00  0.00     0.278 HD
ATOM      8  H21 UNL     1      -5.240  54.398  15.210  1.00  0.00     0.278 HD
BRANCH   6   9
HETATM    9  C4  UNL     1      -5.166  53.679  13.281  1.00  0.00     0.186 C
HETATM   10  C3  UNL     1      -4.052  54.525  12.744  1.00  0.00     0.035 C
HETATM   11  C2  UNL     1      -2.689  53.863  12.876  1.00  0.00     0.034 C
HETATM   12  C1  UNL     1      -2.632  52.547  12.164  1.00  0.00     0.183 C
HETATM   13  C18 UNL     1      -3.775  51.700  12.657  1.00  0.00     0.034 C
HETATM   14  C17 UNL     1      -4.627  52.330  13.690  1.00  0.00     0.035 C
BRANCH  12  15
HETATM   15  N1  UNL     1      -2.600  52.648  10.742  1.00  0.00    -0.075 N
ATOM     16  H13 UNL     1      -3.547  52.636  10.363  1.00  0.00     0.274 HD
ATOM     17  H12 UNL     1      -2.309  53.583  10.458  1.00  0.00     0.274 HD
ATOM     18  H11 UNL     1      -2.024  51.942  10.282  1.00  0.00     0.274 HD
ENDBRANCH  12  15
ENDBRANCH   6   9
ENDBRANCH   5   6
ENDBRANCH   1   5
BRANCH   3  19
HETATM   19  C7  UNL     1      -9.050  55.939  11.211  1.00  0.00     0.107 C
HETATM   20  C8  UNL     1      -9.418  57.336  10.642  1.00  0.00     0.027 C
HETATM   21  C9  UNL     1      -9.476  57.193   9.166  1.00  0.00     0.004 C
HETATM   22  C10 UNL     1      -9.815  55.729   8.994  1.00  0.00     0.027 C
HETATM   23  C11 UNL     1      -8.816  55.113  10.000  1.00  0.00     0.101 C
BRANCH  23  24
HETATM   24  N4  UNL     1      -8.893  53.745  10.060  1.00  0.00    -0.406 N
HETATM   25  C12 UNL     1      -9.946  53.071  10.661  1.00  0.00     0.117 C
HETATM   26  C13 UNL     1      -9.650  51.566  10.825  1.00  0.00     0.019 C
HETATM   27  C14 UNL     1      -8.330  51.299  11.460  1.00  0.00     0.003 C
HETATM   28  C15 UNL     1      -7.268  52.197  10.914  1.00  0.00     0.019 C
HETATM   29  C16 UNL     1      -7.812  52.912   9.694  1.00  0.00     0.117 C
ENDBRANCH  23  24
ENDBRANCH   3  19
TORSDOF 6
ENDMDL