MODEL 1
REMARK VINA RESULT: -7.739799019      0.000      0.000
REMARK  8 active torsions:
REMARK  status: ('A' for Active; 'I' for Inactive)
REMARK    1  A    between atoms: C2_2  and  C5_5
REMARK    2  A    between atoms: C5_5  and  N1_6
REMARK    3  A    between atoms: C10_11  and  C11_12
REMARK    4  A    between atoms: C10_11  and  C12_19
REMARK    5  A    between atoms: C11_12  and  S1_13
REMARK    6  A    between atoms: S1_13  and  N2_14
REMARK    7  A    between atoms: C12_19  and  O3_20
REMARK    8  A    between atoms: N3_22  and  O4_24
ROOT
HETATM    1  N1  UNL     1      -5.018  52.572  12.944  1.00  0.00    -0.065 N
HETATM    2  C6  UNL     1      -5.897  51.767  12.186  1.00  0.00     0.238 C
HETATM    3  C7  UNL     1      -7.285  52.352  12.498  1.00  0.00     0.035 C
HETATM    4  C8  UNL     1      -7.004  53.453  13.454  1.00  0.00     0.032 C
HETATM    5  C9  UNL     1      -5.772  52.875  14.177  1.00  0.00     0.243 C
HETATM    6  C10 UNL     1      -6.302  54.581  12.737  1.00  0.00     0.070 C
HETATM    7  C13 UNL     1      -5.054  53.890  12.296  1.00  0.00     0.256 C
ENDROOT
BRANCH   6   8
HETATM    8  C11 UNL     1      -7.110  55.187  11.650  1.00  0.00     0.183 C
BRANCH   8   9
HETATM    9  S1  UNL     1      -8.746  55.590  12.166  1.00  0.00     0.225 S
HETATM   10  O1  UNL     1      -8.830  55.608  13.668  1.00  0.00    -0.206 OA
HETATM   11  O2  UNL     1      -9.662  54.483  11.685  1.00  0.00    -0.206 OA
BRANCH   9  12
HETATM   12  N2  UNL     1      -9.290  57.112  11.570  1.00  0.00    -0.328 N
ATOM     13  H22 UNL     1      -8.811  57.611  10.821  1.00  0.00     0.168 HD
ATOM     14  H21 UNL     1     -10.128  57.452  12.042  1.00  0.00     0.168 HD
ENDBRANCH   9  12
ENDBRANCH   8   9
ENDBRANCH   6   8
BRANCH   6  15
HETATM   15  C12 UNL     1      -5.915  55.614  13.715  1.00  0.00     0.147 C
HETATM   16  N3  UNL     1      -6.406  55.654  14.923  1.00  0.00    -0.250 N
ATOM     17  H3  UNL     1      -7.083  54.946  15.210  1.00  0.00     0.196 HD
BRANCH  15  18
HETATM   18  O3  UNL     1      -5.004  56.578  13.349  1.00  0.00    -0.347 OA
ATOM     19  H3  UNL     1      -4.293  56.794  13.941  1.00  0.00     0.219 HD
ENDBRANCH  15  18
BRANCH  16  20
HETATM   20  O4  UNL     1      -6.031  56.626  15.814  1.00  0.00    -0.288 OA
ATOM     21  H4  UNL     1      -6.108  56.494  16.751  1.00  0.00     0.244 HD
ENDBRANCH  16  20
ENDBRANCH   6  15
BRANCH   1  22
HETATM   22  C5  UNL     1      -3.694  52.239  13.151  1.00  0.00     0.245 C
BRANCH  22  23
HETATM   23  C2  UNL     1      -2.966  51.266  12.322  1.00  0.00    -0.027 C
HETATM   24  C1  UNL     1      -2.930  51.579  10.842  1.00  0.00     0.016 C
HETATM   25  C3  UNL     1      -1.494  51.384  12.787  1.00  0.00     0.016 C
HETATM   26  C4  UNL     1      -3.275  49.819  12.587  1.00  0.00     0.016 C
ENDBRANCH  22  23
ENDBRANCH   1  22
TORSDOF 8
ENDMDL