MODEL 4
REMARK VINA RESULT: -6.642431339      2.265      2.883
REMARK  7 active torsions:
REMARK  status: ('A' for Active; 'I' for Inactive)
REMARK    1  A    between atoms: N1_1  and  C1_5
REMARK    2  A    between atoms: C1_5  and  C2_6
REMARK    3  A    between atoms: C2_6  and  C3_7
REMARK       I    between atoms: C3_7  and  N2_9
REMARK    4  A    between atoms: N2_9  and  C4_11
REMARK    5  A    between atoms: C7_14  and  C8_15
REMARK       I    between atoms: C8_15  and  N3_17
REMARK    6  A    between atoms: C16_25  and  C17_26
REMARK    7  A    between atoms: C17_26  and  O3_27
ROOT
HETATM    1  C4  UNL     1      -6.166  54.266  11.969  1.00  0.00     0.090 C
HETATM    2  C5  UNL     1      -6.707  53.853  10.638  1.00  0.00     0.026 C
HETATM    3  C6  UNL     1      -8.211  53.604  10.759  1.00  0.00     0.016 C
HETATM    4  C7  UNL     1      -8.771  54.917  11.247  1.00  0.00     0.078 C
HETATM    5  C15 UNL     1      -8.474  54.930  12.745  1.00  0.00     0.023 C
HETATM    6  C16 UNL     1      -7.156  54.345  13.068  1.00  0.00     0.033 C
ENDROOT
BRANCH   1   7
HETATM    7  N2  UNL     1      -5.128  53.320  12.367  1.00  0.00    -0.356 N
HETATM    8  C3  UNL     1      -3.765  53.700  12.481  1.00  0.00     0.219 C
HETATM    9  O1  UNL     1      -3.428  54.891  12.233  1.00  0.00    -0.274 OA
ATOM     10  H2  UNL     1      -5.390  52.355  12.570  1.00  0.00     0.162 HD
BRANCH   8  11
HETATM   11  C2  UNL     1      -2.733  52.745  12.880  1.00  0.00     0.130 C
BRANCH  11  12
HETATM   12  C1  UNL     1      -1.761  52.402  11.806  1.00  0.00     0.238 C
BRANCH  12  13
HETATM   13  N1  UNL     1      -0.997  53.509  11.325  1.00  0.00    -0.079 N
ATOM     14  H13 UNL     1      -0.955  53.496  10.306  1.00  0.00     0.274 HD
ATOM     15  H12 UNL     1      -1.505  54.381  11.469  1.00  0.00     0.274 HD
ATOM     16  H11 UNL     1      -0.058  53.577  11.717  1.00  0.00     0.274 HD
ENDBRANCH  12  13
ENDBRANCH  11  12
ENDBRANCH   8  11
ENDBRANCH   1   7
BRANCH   6  17
HETATM   17  C17 UNL     1      -6.532  55.216  14.163  1.00  0.00     0.170 C
BRANCH  17  18
HETATM   18  O3  UNL     1      -5.850  56.238  13.472  1.00  0.00    -0.400 OA
ATOM     19  H3  UNL     1      -5.871  56.987  14.057  1.00  0.00     0.209 HD
ENDBRANCH  17  18
ENDBRANCH   6  17
BRANCH   4  20
HETATM   20  C8  UNL     1     -10.159  55.180  10.950  1.00  0.00     0.224 C
HETATM   21  O2  UNL     1     -10.910  54.183  10.689  1.00  0.00    -0.273 OA
HETATM   22  N3  UNL     1     -10.760  56.463  10.925  1.00  0.00    -0.352 N
HETATM   23  C9  UNL     1      -9.963  57.635  11.223  1.00  0.00     0.125 C
HETATM   24  C14 UNL     1     -12.191  56.511  10.602  1.00  0.00     0.125 C
HETATM   25  C10 UNL     1      -9.985  58.540  10.021  1.00  0.00     0.020 C
HETATM   26  C11 UNL     1     -10.965  59.655  10.326  1.00  0.00     0.002 C
HETATM   27  C12 UNL     1     -12.253  59.025  10.835  1.00  0.00     0.002 C
HETATM   28  C13 UNL     1     -12.634  57.816  10.033  1.00  0.00     0.020 C
ENDBRANCH   4  20
TORSDOF 7
ENDMDL