MODEL 2
REMARK VINA RESULT: -5.269561896      2.496      3.849
REMARK  9 active torsions:
REMARK  status: ('A' for Active; 'I' for Inactive)
REMARK    1  A    between atoms: C2_2  and  N1_4
REMARK    2  A    between atoms: N1_4  and  C5_6
REMARK    3  A    between atoms: C5_6  and  C6_7
REMARK    4  A    between atoms: C6_7  and  N2_8
REMARK    5  A    between atoms: N2_8  and  C7_10
REMARK    6  A    between atoms: C7_10  and  N3_12
REMARK    7  A    between atoms: N3_12  and  C8_14
REMARK    8  A    between atoms: C8_14  and  N4_16
REMARK    9  A    between atoms: N4_16  and  C9_18
ROOT
HETATM    1  N3  UNL     1      -5.359  54.782  12.029  1.00  0.00    -0.310 N
ATOM      2  H3  UNL     1      -4.632  55.399  11.664  1.00  0.00     0.170 HD
ENDROOT
BRANCH   1   3
HETATM    3  C7  UNL     1      -5.032  54.174  13.237  1.00  0.00     0.173 C
HETATM    4  S1  UNL     1      -6.322  53.717  14.215  1.00  0.00    -0.041 SA
BRANCH   3   5
HETATM    5  N2  UNL     1      -3.731  53.949  13.719  1.00  0.00    -0.365 N
ATOM      6  H2  UNL     1      -3.605  53.761  14.714  1.00  0.00     0.161 HD
BRANCH   5   7
HETATM    7  C6  UNL     1      -2.545  53.973  12.853  1.00  0.00     0.141 C
BRANCH   7   8
HETATM    8  C5  UNL     1      -2.047  52.590  12.645  1.00  0.00     0.136 C
BRANCH   8   9
HETATM    9  N1  UNL     1      -1.440  52.366  11.371  1.00  0.00    -0.412 N
HETATM   10  C4  UNL     1      -1.004  53.489  10.643  1.00  0.00     0.143 C
BRANCH   9  11
HETATM   11  C2  UNL     1      -0.741  51.140  11.209  1.00  0.00     0.070 C
HETATM   12  C1  UNL     1      -1.663  49.983  11.002  1.00  0.00     0.031 C
HETATM   13  C3  UNL     1       0.282  51.163  10.109  1.00  0.00     0.031 C
ENDBRANCH   9  11
ENDBRANCH   8   9
ENDBRANCH   7   8
ENDBRANCH   5   7
ENDBRANCH   3   5
ENDBRANCH   1   3
BRANCH   1  14
HETATM   14  C8  UNL     1      -6.506  54.705  11.216  1.00  0.00     0.174 C
HETATM   15  S2  UNL     1      -6.971  53.345  10.415  1.00  0.00    -0.041 SA
BRANCH  14  16
HETATM   16  N4  UNL     1      -7.349  55.874  11.053  1.00  0.00    -0.362 N
ATOM     17  H4  UNL     1      -6.901  56.786  10.960  1.00  0.00     0.162 HD
BRANCH  16  18
HETATM   18  C9  UNL     1      -8.790  55.810  11.016  1.00  0.00     0.087 C
HETATM   19  C10 UNL     1      -9.298  56.471  12.267  1.00  0.00     0.051 C
HETATM   20  C11 UNL     1     -10.432  57.399  12.128  1.00  0.00     0.169 C
HETATM   21  O1  UNL     1     -10.610  58.020  10.927  1.00  0.00    -0.391 OA
HETATM   22  C12 UNL     1      -9.504  58.020  10.113  1.00  0.00     0.169 C
HETATM   23  C13 UNL     1      -9.247  56.544   9.768  1.00  0.00     0.051 C
ENDBRANCH  16  18
ENDBRANCH  14  16
ENDBRANCH   1  14
TORSDOF 9
ENDMDL