MODEL 5
REMARK VINA RESULT: -6.204720321      3.812      6.790
REMARK  9 active torsions:
REMARK  status: ('A' for Active; 'I' for Inactive)
REMARK    1  A    between atoms: O1_1  and  C1_3
REMARK    2  A    between atoms: C1_3  and  C2_4
REMARK    3  A    between atoms: C1_3  and  N2_10
REMARK    4  A    between atoms: C2_4  and  N1_5
REMARK    5  A    between atoms: N2_10  and  C7_11
REMARK    6  A    between atoms: N2_10  and  C12_21
REMARK    7  A    between atoms: C7_11  and  C8_12
REMARK    8  A    between atoms: C8_12  and  O2_13
REMARK    9  A    between atoms: C17_26  and  O3_27
ROOT
HETATM    1  N2  UNL     1      -3.230  51.602  12.974  1.00  0.00    -0.354 N
ENDROOT
BRANCH   1   2
HETATM    2  C1  UNL     1      -2.128  52.387  12.605  1.00  0.00     0.142 C
BRANCH   2   3
HETATM    3  O1  UNL     1      -1.079  52.209  13.355  1.00  0.00    -0.348 OA
ATOM      4  H1  UNL     1      -0.885  52.910  13.966  1.00  0.00     0.219 HD
ENDBRANCH   2   3
BRANCH   2   5
HETATM    5  C2  UNL     1      -1.977  53.354  11.531  1.00  0.00     0.355 C
BRANCH   5   6
HETATM    6  N1  UNL     1      -1.179  52.730  10.452  1.00  0.00     0.096 N
HETATM    7  C3  UNL     1      -2.028  52.420   9.320  1.00  0.00     0.273 C
HETATM    8  C4  UNL     1      -1.133  52.555   8.109  1.00  0.00     0.032 C
HETATM    9  C5  UNL     1      -0.320  53.773   8.488  1.00  0.00     0.032 C
HETATM   10  C6  UNL     1      -0.165  53.636   9.965  1.00  0.00     0.273 C
ENDBRANCH   5   6
ENDBRANCH   2   5
ENDBRANCH   1   2
BRANCH   1  11
HETATM   11  C7  UNL     1      -2.979  50.161  13.115  1.00  0.00     0.164 C
BRANCH  11  12
HETATM   12  C8  UNL     1      -2.828  49.386  11.895  1.00  0.00     0.099 C
HETATM   13  C9  UNL     1      -3.723  49.638  10.745  1.00  0.00     0.068 C
HETATM   14  C10 UNL     1      -3.058  48.788   9.651  1.00  0.00     0.235 C
HETATM   15  N3  UNL     1      -1.771  48.369  10.189  1.00  0.00    -0.072 N
HETATM   16  C11 UNL     1      -1.481  49.394  11.216  1.00  0.00     0.271 C
ATOM     17  H32 UNL     1      -1.747  47.408  10.530  1.00  0.00     0.277 HD
ATOM     18  H31 UNL     1      -1.037  48.250   9.489  1.00  0.00     0.277 HD
BRANCH  12  19
HETATM   19  O2  UNL     1      -3.013  48.024  12.257  1.00  0.00    -0.386 OA
ATOM     20  H2  UNL     1      -3.375  47.590  11.494  1.00  0.00     0.210 HD
ENDBRANCH  12  19
ENDBRANCH  11  12
ENDBRANCH   1  11
BRANCH   1  21
HETATM   21  C12 UNL     1      -4.526  52.121  13.160  1.00  0.00     0.115 C
HETATM   22  C13 UNL     1      -5.339  52.440  11.929  1.00  0.00     0.028 C
HETATM   23  C14 UNL     1      -6.798  52.406  12.332  1.00  0.00     0.002 C
HETATM   24  C15 UNL     1      -7.154  53.130  13.569  1.00  0.00     0.003 C
HETATM   25  C16 UNL     1      -6.132  53.103  14.680  1.00  0.00     0.034 C
HETATM   26  C17 UNL     1      -4.729  53.308  14.051  1.00  0.00     0.141 C
BRANCH  26  27
HETATM   27  O3  UNL     1      -4.843  54.523  13.324  1.00  0.00    -0.394 OA
ATOM     28  H3  UNL     1      -4.783  55.289  13.882  1.00  0.00     0.210 HD
ENDBRANCH  26  27
ENDBRANCH   1  21
TORSDOF 9
ENDMDL