MODEL 5
REMARK VINA RESULT: -5.951145856      3.956      9.354
REMARK  7 active torsions:
REMARK  status: ('A' for Active; 'I' for Inactive)
REMARK    1  A    between atoms: C1_2  and  C2_3
REMARK       I    between atoms: C1_2  and  N3_13
REMARK    2  A    between atoms: C2_3  and  N1_4
REMARK    3  A    between atoms: N2_7  and  C5_8
REMARK    4  A    between atoms: C5_8  and  C6_9
REMARK    5  A    between atoms: N3_13  and  C9_15
REMARK    6  A    between atoms: C9_15  and  N4_17
REMARK    7  A    between atoms: N4_17  and  C10_19
ROOT
HETATM    1  O1  UNL     1      -1.116  53.267  13.419  1.00  0.00    -0.271 OA
HETATM    2  C1  UNL     1      -2.124  53.179  12.720  1.00  0.00     0.241 C
HETATM    3  N3  UNL     1      -2.282  52.201  11.727  1.00  0.00    -0.303 N
ATOM      4  H3  UNL     1      -3.155  52.213  11.201  1.00  0.00     0.171 HD
ENDROOT
BRANCH   2   5
HETATM    5  C2  UNL     1      -3.225  54.169  12.951  1.00  0.00     0.220 C
BRANCH   5   6
HETATM    6  N1  UNL     1      -4.473  53.505  13.007  1.00  0.00    -0.401 N
HETATM    7  C3  UNL     1      -5.334  53.632  11.883  1.00  0.00     0.147 C
HETATM    8  C4  UNL     1      -6.302  54.803  12.115  1.00  0.00     0.291 C
HETATM    9  N2  UNL     1      -7.091  54.534  13.287  1.00  0.00     0.092 N
HETATM   10  C7  UNL     1      -6.608  53.458  14.094  1.00  0.00     0.291 C
HETATM   11  C8  UNL     1      -5.119  53.442  14.277  1.00  0.00     0.147 C
BRANCH   9  12
HETATM   12  C5  UNL     1      -8.469  54.310  12.910  1.00  0.00     0.283 C
BRANCH  12  13
HETATM   13  C6  UNL     1      -8.767  54.992  11.602  1.00  0.00     0.116 C
HETATM   14  S1  UNL     1      -9.529  56.584  11.943  1.00  0.00    -0.096 SA
ENDBRANCH  12  13
ENDBRANCH   9  12
ENDBRANCH   5   6
ENDBRANCH   2   5
BRANCH   3  15
HETATM   15  C9  UNL     1      -1.356  51.216  11.395  1.00  0.00     0.174 C
HETATM   16  S2  UNL     1      -1.910  49.642  11.489  1.00  0.00    -0.041 SA
BRANCH  15  17
HETATM   17  N4  UNL     1      -0.037  51.435  10.998  1.00  0.00    -0.362 N
ATOM     18  H4  UNL     1       0.736  51.228  11.630  1.00  0.00     0.162 HD
BRANCH  17  19
HETATM   19  C10 UNL     1       0.221  51.973   9.641  1.00  0.00     0.083 C
HETATM   20  C11 UNL     1      -0.874  51.515   8.725  1.00  0.00     0.025 C
HETATM   21  C12 UNL     1      -1.513  52.768   8.165  1.00  0.00     0.002 C
HETATM   22  C13 UNL     1      -0.394  53.777   8.265  1.00  0.00     0.002 C
HETATM   23  C14 UNL     1       0.130  53.486   9.679  1.00  0.00     0.025 C
ENDBRANCH  17  19
ENDBRANCH  15  17
ENDBRANCH   3  15
TORSDOF 7
ENDMDL