MODEL 1
REMARK VINA RESULT: -7.312382057      0.000      0.000
REMARK  5 active torsions:
REMARK  status: ('A' for Active; 'I' for Inactive)
REMARK    1  A    between atoms: C2_3  and  C3_4
REMARK    2  A    between atoms: C3_4  and  N2_5
REMARK    3  A    between atoms: C3_4  and  C4_11
REMARK    4  A    between atoms: N2_5  and  S1_7
REMARK       I    between atoms: C4_11  and  N3_13
REMARK    5  A    between atoms: N3_13  and  C5_15
ROOT
HETATM    1  N1  UNL     1      -0.373  49.235   9.972  1.00  0.00    -0.197 NA
HETATM    2  C1  UNL     1      -0.206  50.399  10.094  1.00  0.00     0.061 C
HETATM    3  C2  UNL     1       0.039  51.803  10.273  1.00  0.00     0.159 C
ENDROOT
BRANCH   3   4
HETATM    4  C3  UNL     1      -1.132  52.658   9.945  1.00  0.00     0.200 C
BRANCH   4   5
HETATM    5  N2  UNL     1      -1.947  51.990   8.906  1.00  0.00    -0.286 N
ATOM      6  H2  UNL     1      -2.530  51.176   9.101  1.00  0.00     0.175 HD
BRANCH   5   7
HETATM    7  S1  UNL     1      -1.832  52.682   7.378  1.00  0.00     0.205 S
HETATM    8  O1  UNL     1      -3.191  53.270   7.014  1.00  0.00    -0.578 OA
HETATM    9  O2  UNL     1      -1.516  51.670   6.338  1.00  0.00    -0.578 OA
HETATM   10  O3  UNL     1      -0.737  53.950   7.292  1.00  0.00    -0.578 OA
ENDBRANCH   5   7
ENDBRANCH   4   5
BRANCH   4  11
HETATM   11  C4  UNL     1      -2.017  53.009  11.075  1.00  0.00     0.242 C
HETATM   12  O4  UNL     1      -1.443  53.512  12.110  1.00  0.00    -0.271 OA
HETATM   13  N3  UNL     1      -3.401  52.860  11.171  1.00  0.00    -0.354 N
ATOM     14  H3  UNL     1      -3.916  52.458  10.388  1.00  0.00     0.162 HD
BRANCH  13  15
HETATM   15  C5  UNL     1      -4.121  53.264  12.359  1.00  0.00     0.092 C
HETATM   16  C6  UNL     1      -5.196  54.285  12.040  1.00  0.00     0.009 C
HETATM   17  C7  UNL     1      -6.379  53.687  11.356  1.00  0.00     0.011 C
HETATM   18  C11 UNL     1      -5.603  54.900  13.374  1.00  0.00     0.011 C
HETATM   19  C8  UNL     1      -6.996  52.659  12.270  1.00  0.00    -0.013 C
HETATM   20  C9  UNL     1      -7.392  53.267  13.579  1.00  0.00     0.009 C
HETATM   21  C14 UNL     1      -5.965  51.556  12.463  1.00  0.00     0.011 C
HETATM   22  C10 UNL     1      -6.143  53.801  14.257  1.00  0.00    -0.013 C
HETATM   23  C12 UNL     1      -5.175  52.681  14.470  1.00  0.00     0.011 C
HETATM   24  C13 UNL     1      -4.726  52.117  13.117  1.00  0.00     0.009 C
ENDBRANCH  13  15
ENDBRANCH   4  11
ENDBRANCH   3   4
TORSDOF 5
ENDMDL