MODEL 5
REMARK VINA RESULT: -6.102460814      1.953      3.190
REMARK  6 active torsions:
REMARK  status: ('A' for Active; 'I' for Inactive)
REMARK    1  A    between atoms: C1_2  and  C2_4
REMARK    2  A    between atoms: C2_4  and  N1_5
REMARK       I    between atoms: N2_8  and  C5_9
REMARK       I    between atoms: C5_9  and  N3_11
REMARK    3  A    between atoms: N3_11  and  C6_13
REMARK    4  A    between atoms: C13_20  and  C14_21
REMARK    5  A    between atoms: C14_21  and  C15_22
REMARK    6  A    between atoms: C15_22  and  O4_23
ROOT
HETATM    1  N1  UNL     1      -5.729  53.901  12.902  1.00  0.00    -0.342 N
HETATM    2  C3  UNL     1      -6.770  54.727  13.362  1.00  0.00     0.088 C
HETATM    3  C4  UNL     1      -8.154  54.154  13.125  1.00  0.00     0.172 C
HETATM    4  N2  UNL     1      -8.427  54.067  11.707  1.00  0.00    -0.329 N
HETATM    5  C5  UNL     1      -9.227  55.060  11.134  1.00  0.00     0.318 C
HETATM    6  O3  UNL     1      -9.461  54.940   9.873  1.00  0.00    -0.247 OA
HETATM    7  N3  UNL     1      -9.774  56.154  11.844  1.00  0.00    -0.338 N
ATOM      8  H3  UNL     1      -9.579  56.241  12.841  1.00  0.00     0.164 HD
HETATM    9  C12 UNL     1      -7.969  53.061  10.761  1.00  0.00     0.138 C
HETATM   10  C13 UNL     1      -6.613  52.527  11.037  1.00  0.00     0.044 C
HETATM   11  C16 UNL     1      -5.648  53.565  11.561  1.00  0.00     0.075 C
ENDROOT
BRANCH   7  12
HETATM   12  C6  UNL     1     -10.605  57.159  11.200  1.00  0.00     0.086 C
HETATM   13  C7  UNL     1     -11.711  57.656  12.085  1.00  0.00     0.025 C
HETATM   14  C8  UNL     1     -12.772  58.240  11.151  1.00  0.00     0.002 C
HETATM   15  C9  UNL     1     -12.183  58.687   9.850  1.00  0.00     0.000 C
HETATM   16  C10 UNL     1     -10.788  59.253   9.980  1.00  0.00     0.002 C
HETATM   17  C11 UNL     1      -9.831  58.342  10.693  1.00  0.00     0.025 C
ENDBRANCH   7  12
BRANCH  10  18
HETATM   18  C14 UNL     1      -6.555  51.254  11.827  1.00  0.00     0.037 C
BRANCH  18  19
HETATM   19  C15 UNL     1      -5.486  50.326  11.333  1.00  0.00     0.165 C
BRANCH  19  20
HETATM   20  O4  UNL     1      -4.405  50.347  12.249  1.00  0.00    -0.401 OA
ATOM     21  H4  UNL     1      -4.716  50.043  13.093  1.00  0.00     0.209 HD
ENDBRANCH  19  20
ENDBRANCH  18  19
ENDBRANCH  10  18
BRANCH   1  22
HETATM   22  C2  UNL     1      -4.775  53.428  13.810  1.00  0.00     0.179 C
BRANCH  22  23
HETATM   23  C1  UNL     1      -3.405  53.641  13.276  1.00  0.00     0.215 C
HETATM   24  O1  UNL     1      -2.944  54.773  12.978  1.00  0.00    -0.643 OA
HETATM   25  O2  UNL     1      -2.540  52.556  13.075  1.00  0.00    -0.643 OA
ENDBRANCH  22  23
ENDBRANCH   1  22
TORSDOF 6
ENDMDL