MODEL 4
REMARK VINA RESULT: -5.434365053      1.561      3.016
REMARK  2 active torsions:
REMARK  status: ('A' for Active; 'I' for Inactive)
REMARK    1  A    between atoms: C8_10  and  C9_11
REMARK    2  A    between atoms: C9_11  and  N3_12
ROOT
HETATM    1  N1  UNL     1      15.100  12.295   3.576  1.00  0.00    -0.197 NA
HETATM    2  C1  UNL     1      15.163  11.367   2.893  1.00  0.00     0.066 C
HETATM    3  C2  UNL     1      15.239  10.209   2.028  1.00  0.00     0.128 C
HETATM    4  C3  UNL     1      14.027   9.329   2.368  1.00  0.00     0.051 C
HETATM    5  C4  UNL     1      13.632   8.748   1.039  1.00  0.00     0.274 C
HETATM    6  N2  UNL     1      14.637   9.159   0.078  1.00  0.00     0.095 N
HETATM    7  C5  UNL     1      13.972   9.379  -1.194  1.00  0.00     0.273 C
HETATM    8  C6  UNL     1      14.502  10.562  -1.938  1.00  0.00     0.031 C
HETATM    9  C7  UNL     1      15.984  10.709  -1.600  1.00  0.00     0.010 C
HETATM   10  C8  UNL     1      16.037  11.170  -0.159  1.00  0.00     0.046 C
HETATM   11  C10 UNL     1      14.986  10.486   0.597  1.00  0.00     0.246 C
ENDROOT
BRANCH  10  12
HETATM   12  C9  UNL     1      17.429  11.042   0.367  1.00  0.00     0.236 C
BRANCH  12  13
HETATM   13  N3  UNL     1      18.092  12.295   0.574  1.00  0.00    -0.079 N
ATOM     14  H33 UNL     1      17.418  13.022   0.813  1.00  0.00     0.274 HD
ATOM     15  H32 UNL     1      18.635  12.274   1.437  1.00  0.00     0.274 HD
ATOM     16  H31 UNL     1      18.675  12.590  -0.208  1.00  0.00     0.274 HD
ENDBRANCH  12  13
ENDBRANCH  10  12
TORSDOF 2
ENDMDL