MODEL 5
REMARK VINA RESULT: -5.105804776      3.118      4.613
REMARK  2 active torsions:
REMARK  status: ('A' for Active; 'I' for Inactive)
REMARK    1  A    between atoms: O1_2  and  N1_3
REMARK    2  A    between atoms: C2_5  and  C3_6
ROOT
HETATM    1  C3  UNL     1      15.811  10.152   3.236  1.00  0.00     0.026 C
HETATM    2  C4  UNL     1      16.336   8.811   3.711  1.00  0.00     0.248 C
HETATM    3  N2  UNL     1      16.176   8.719   5.154  1.00  0.00    -0.074 N
ATOM      4  H21 UNL     1      16.943   9.187   5.638  1.00  0.00     0.277 HD
ATOM      5  H22 UNL     1      16.332   7.765   5.480  1.00  0.00     0.277 HD
HETATM    6  C5  UNL     1      14.907   9.215   5.603  1.00  0.00     0.237 C
HETATM    7  C6  UNL     1      14.551  10.484   4.850  1.00  0.00     0.022 C
HETATM    8  C7  UNL     1      15.898  11.104   4.440  1.00  0.00     0.024 C
HETATM    9  C8  UNL     1      14.347  10.209   3.390  1.00  0.00    -0.021 A
HETATM   10  C9  UNL     1      13.346  10.833   2.609  1.00  0.00     0.012 A
HETATM   11  C10 UNL     1      13.384   9.297   2.835  1.00  0.00     0.012 A
ENDROOT
BRANCH   1  12
HETATM   12  C2  UNL     1      16.409  10.679   2.009  1.00  0.00     0.099 C
HETATM   13  N1  UNL     1      17.283  10.042   1.349  1.00  0.00    -0.281 N
ATOM     14  H1  UNL     1      17.556   9.130   1.717  1.00  0.00     0.193 HD
BRANCH  13  15
HETATM   15  O1  UNL     1      17.892  10.437   0.213  1.00  0.00    -0.286 OA
HETATM   16  C1  UNL     1      18.297  11.752  -0.081  1.00  0.00     0.237 C
ENDBRANCH  13  15
ENDBRANCH   1  12
TORSDOF 2
ENDMDL