MODEL 4
REMARK VINA RESULT: -5.129036526      4.222      5.976
REMARK  3 active torsions:
REMARK  status: ('A' for Active; 'I' for Inactive)
REMARK    1  A    between atoms: C2_2  and  N1_3
REMARK    2  A    between atoms: N1_3  and  C3_5
REMARK    3  A    between atoms: C4_10  and  C5_11
ROOT
HETATM    1  C3  UNL     1      14.796  10.278   0.305  1.00  0.00     0.696 A
HETATM    2  N2  UNL     1      15.967  10.012  -0.258  1.00  0.00    -0.131 N
ATOM      3  H2  UNL     1      16.136   9.779  -1.237  1.00  0.00     0.205 HD
HETATM    4  N3  UNL     1      16.873  10.107   0.704  1.00  0.00    -0.273 N
ATOM      5  H3  UNL     1      17.875   9.954   0.585  1.00  0.00     0.189 HD
HETATM    6  C4  UNL     1      16.267  10.438   1.869  1.00  0.00     0.122 A
HETATM    7  N4  UNL     1      14.971  10.553   1.637  1.00  0.00    -0.173 N
HETATM    8  C9  UNL     1      13.937  10.883   2.586  1.00  0.00     0.177 C
ENDROOT
BRANCH   1   9
HETATM    9  N1  UNL     1      13.665  10.205  -0.222  1.00  0.00    -0.225 N
ATOM     10  H1  UNL     1      13.053   9.509   0.204  1.00  0.00     0.177 HD
BRANCH   9  11
HETATM   11  C2  UNL     1      13.071  10.917  -1.312  1.00  0.00     0.134 C
HETATM   12  C1  UNL     1      12.960   9.996  -2.500  1.00  0.00     0.027 C
ENDBRANCH   9  11
ENDBRANCH   1   9
BRANCH   6  13
HETATM   13  C5  UNL     1      16.937  10.531   3.184  1.00  0.00     0.009 C
HETATM   14  C6  UNL     1      16.562   9.355   4.061  1.00  0.00     0.023 C
HETATM   15  C7  UNL     1      18.446  10.360   2.921  1.00  0.00     0.023 C
HETATM   16  C8  UNL     1      16.754  11.829   3.864  1.00  0.00     0.023 C
ENDBRANCH   6  13
TORSDOF 3
ENDMDL