MODEL 4
REMARK VINA RESULT: -5.296770857      1.378      3.304
REMARK  2 active torsions:
REMARK  status: ('A' for Active; 'I' for Inactive)
REMARK    1  A    between atoms: C2_2  and  N1_3
REMARK    2  A    between atoms: C4_5  and  N2_6
ROOT
HETATM    1  N1  UNL     1      14.755  10.295   0.944  1.00  0.00    -0.247 NA
HETATM    2  C3  UNL     1      13.375   9.951   0.925  1.00  0.00     0.142 C
HETATM    3  C4  UNL     1      12.746  10.543   2.167  1.00  0.00     0.216 C
HETATM    4  C5  UNL     1      13.922  11.179   2.870  1.00  0.00     0.107 C
HETATM    5  C6  UNL     1      14.358  10.444   4.094  1.00  0.00     0.025 C
HETATM    6  C7  UNL     1      15.704   9.860   3.665  1.00  0.00     0.027 C
HETATM    7  C8  UNL     1      16.176  10.946   2.723  1.00  0.00     0.021 C
HETATM    8  C9  UNL     1      16.454  12.180   3.544  1.00  0.00     0.033 C
HETATM    9  C10 UNL     1      17.382  10.488   1.986  1.00  0.00     0.033 C
HETATM   10  N3  UNL     1      15.017  11.202   1.932  1.00  0.00    -0.234 NA
ENDROOT
BRANCH   3  11
HETATM   11  N2  UNL     1      12.157   9.480   2.930  1.00  0.00    -0.072 N
ATOM     12  H23 UNL     1      11.420   9.808   3.555  1.00  0.00     0.274 HD
ATOM     13  H22 UNL     1      11.589   8.856   2.358  1.00  0.00     0.274 HD
ATOM     14  H21 UNL     1      12.900   8.988   3.426  1.00  0.00     0.274 HD
ENDBRANCH   3  11
BRANCH   1  15
HETATM   15  C2  UNL     1      15.135  10.779  -0.362  1.00  0.00     0.103 C
HETATM   16  C1  UNL     1      13.987  11.054  -1.284  1.00  0.00     0.022 C
ENDBRANCH   1  15
TORSDOF 2
ENDMDL