MODEL 5
REMARK VINA RESULT: -5.075703490      1.821      2.756
REMARK  2 active torsions:
REMARK  status: ('A' for Active; 'I' for Inactive)
REMARK    1  A    between atoms: N1_2  and  C2_4
REMARK    2  A    between atoms: C3_5  and  N2_6
ROOT
HETATM    1  C2  UNL     1      15.249  10.615  -0.299  1.00  0.00     0.081 A
HETATM    2  C3  UNL     1      16.595  10.906  -0.613  1.00  0.00     0.144 A
HETATM    3  N3  UNL     1      16.953  10.840  -1.906  1.00  0.00    -0.284 N
ATOM      4  H3  UNL     1      17.921  11.047  -2.153  1.00  0.00     0.188 HD
HETATM    5  N4  UNL     1      16.113  10.521  -2.872  1.00  0.00    -0.303 N
ATOM      6  H4  UNL     1      16.446  10.488  -3.836  1.00  0.00     0.186 HD
HETATM    7  C6  UNL     1      14.846  10.243  -2.613  1.00  0.00     0.030 A
HETATM    8  C7  UNL     1      13.912   9.890  -3.682  1.00  0.00     0.070 C
HETATM    9  C8  UNL     1      14.360  10.281  -1.294  1.00  0.00    -0.008 A
HETATM   10  C9  UNL     1      12.937   9.964  -1.057  1.00  0.00     0.052 C
ENDROOT
BRANCH   1  11
HETATM   11  N1  UNL     1      14.911  10.675   0.890  1.00  0.00    -0.391 N
HETATM   12  C1  UNL     1      14.672   9.848   1.988  1.00  0.00     0.146 C
ATOM     13  H1  UNL     1      14.757  11.648   1.154  1.00  0.00     0.159 HD
ENDBRANCH   1  11
BRANCH   2  14
HETATM   14  N2  UNL     1      17.502  11.248   0.407  1.00  0.00    -0.373 N
HETATM   15  C4  UNL     1      17.741  12.694   0.586  1.00  0.00     0.150 C
HETATM   16  C5  UNL     1      18.212  10.371   1.280  1.00  0.00     0.150 C
ENDBRANCH   2  14
TORSDOF 2
ENDMDL