MODEL 1
REMARK VINA RESULT: -5.915971386      0.000      0.000
REMARK  2 active torsions:
REMARK  status: ('A' for Active; 'I' for Inactive)
REMARK    1  A    between atoms: N1_1  and  N2_4
REMARK    2  A    between atoms: C1_6  and  N3_7
ROOT
HETATM    1  N3  UNL     1      16.903  10.806   0.943  1.00  0.00    -0.376 N
HETATM    2  C2  UNL     1      16.826  10.746  -0.506  1.00  0.00     0.126 C
HETATM    3  C3  UNL     1      15.384  11.093  -0.867  1.00  0.00     0.058 C
HETATM    4  C4  UNL     1      14.440  10.026  -0.347  1.00  0.00     0.064 C
HETATM    5  C5  UNL     1      14.504   8.862  -1.312  1.00  0.00     0.040 C
HETATM    6  C6  UNL     1      13.700   9.415  -2.486  1.00  0.00     0.029 C
HETATM    7  C7  UNL     1      12.771  10.373  -1.794  1.00  0.00     0.168 C
HETATM    8  O1  UNL     1      13.138  10.447  -0.473  1.00  0.00    -0.380 OA
HETATM    9  C8  UNL     1      14.758   9.629   1.058  1.00  0.00     0.058 C
HETATM   10  C9  UNL     1      15.651  10.691   1.667  1.00  0.00     0.126 C
ENDROOT
BRANCH   1  11
HETATM   11  C1  UNL     1      18.135  10.966   1.588  1.00  0.00     0.194 C
HETATM   12  N2  UNL     1      18.598  12.126   1.884  1.00  0.00    -0.303 N
ATOM     13  H2  UNL     1      19.499  12.217   2.353  1.00  0.00     0.187 HD
BRANCH  12  14
HETATM   14  N1  UNL     1      17.852  13.266   1.554  1.00  0.00    -0.344 N
ATOM     15  H12 UNL     1      17.644  13.955   2.276  1.00  0.00     0.176 HD
ATOM     16  H11 UNL     1      17.528  13.389   0.594  1.00  0.00     0.176 HD
ENDBRANCH  12  14
ENDBRANCH   1  11
TORSDOF 2
ENDMDL