MODEL 3
REMARK VINA RESULT: -5.206578104      1.097      1.454
REMARK  1 active torsions:
REMARK  status: ('A' for Active; 'I' for Inactive)
REMARK    1  A    between atoms: N1_4  and  N2_5
ROOT
HETATM    1  N2  UNL     1      14.945  10.791   0.374  1.00  0.00    -0.282 N
ATOM      2  H2  UNL     1      15.737  11.349   0.691  1.00  0.00     0.189 HD
HETATM    3  C4  UNL     1      14.248  10.173   1.266  1.00  0.00     0.154 C
HETATM    4  N3  UNL     1      13.109   9.343   1.100  1.00  0.00    -0.369 N
ATOM      5  H3  UNL     1      12.455   9.451   0.325  1.00  0.00     0.161 HD
HETATM    6  C5  UNL     1      12.957   8.351   2.098  1.00  0.00     0.132 C
HETATM    7  C6  UNL     1      13.209   8.949   3.464  1.00  0.00     0.102 C
HETATM    8  S1  UNL     1      14.513  10.177   3.045  1.00  0.00    -0.091 SA
ENDROOT
BRANCH   1   9
HETATM    9  N1  UNL     1      14.692  10.749  -0.977  1.00  0.00    -0.326 N
HETATM   10  C3  UNL     1      13.416  11.126  -1.578  1.00  0.00     0.142 C
HETATM   11  C2  UNL     1      12.861  10.016  -2.431  1.00  0.00     0.021 C
HETATM   12  C1  UNL     1      13.939   9.144  -3.031  1.00  0.00     0.003 C
HETATM   13  C8  UNL     1      15.161   9.997  -3.250  1.00  0.00     0.021 C
HETATM   14  C7  UNL     1      15.750  10.305  -1.878  1.00  0.00     0.142 C
ENDBRANCH   1   9
TORSDOF 1
ENDMDL