MODEL 5
REMARK VINA RESULT: -5.408505927      0.333      1.041
REMARK  1 active torsions:
REMARK  status: ('A' for Active; 'I' for Inactive)
REMARK    1  A    between atoms: C6_9  and  N3_10
ROOT
HETATM    1  C1  UNL     1      12.850   8.155   2.076  1.00  0.00     0.068 C
HETATM    2  C2  UNL     1      13.765   9.101   1.351  1.00  0.00     0.013 A
HETATM    3  N1  UNL     1      13.571   9.391   0.050  1.00  0.00    -0.361 N
ATOM      4  H1  UNL     1      12.793   8.966  -0.454  1.00  0.00     0.165 HD
HETATM    5  C3  UNL     1      14.397  10.238  -0.588  1.00  0.00     0.032 A
HETATM    6  C4  UNL     1      14.212  10.576  -2.010  1.00  0.00     0.070 C
HETATM    7  C5  UNL     1      15.439  10.796   0.120  1.00  0.00     0.095 A
HETATM    8  N2  UNL     1      16.302  11.681  -0.548  1.00  0.00    -0.098 NA
HETATM    9  C6  UNL     1      15.669  10.519   1.462  1.00  0.00     0.064 A
HETATM   10  C9  UNL     1      14.800   9.644   2.084  1.00  0.00    -0.011 A
HETATM   11  C10 UNL     1      14.973   9.295   3.511  1.00  0.00     0.052 C
ENDROOT
BRANCH   9  12
HETATM   12  N3  UNL     1      16.730  11.087   2.186  1.00  0.00    -0.388 N
HETATM   13  C7  UNL     1      16.600  12.285   2.980  1.00  0.00     0.149 C
HETATM   14  C8  UNL     1      18.026  10.399   2.110  1.00  0.00     0.149 C
ENDBRANCH   9  12
TORSDOF 1
ENDMDL