MODEL 3
REMARK VINA RESULT: -5.325150104      5.825      7.930
REMARK  1 active torsions:
REMARK  status: ('A' for Active; 'I' for Inactive)
REMARK    1  A    between atoms: C2_2  and  C3_3
ROOT
HETATM    1  C3  UNL     1      15.397   9.884  -0.233  1.00  0.00     0.044 C
HETATM    2  C4  UNL     1      15.588  10.727   0.960  1.00  0.00     0.281 C
HETATM    3  N1  UNL     1      15.007  10.322   2.166  1.00  0.00     0.119 N
HETATM    4  C5  UNL     1      13.667  10.813   2.408  1.00  0.00     0.310 C
HETATM    5  C6  UNL     1      12.834   9.673   1.803  1.00  0.00     0.257 C
HETATM    6  C7  UNL     1      12.949   9.778   0.325  1.00  0.00     0.071 C
HETATM    7  C8  UNL     1      14.131   9.087  -0.269  1.00  0.00     0.195 C
HETATM    8  N2  UNL     1      14.387   7.783   0.261  1.00  0.00    -0.044 N
ATOM      9  H21 UNL     1      15.372   7.687   0.511  1.00  0.00     0.279 HD
ATOM     10  H22 UNL     1      14.325   7.080  -0.475  1.00  0.00     0.279 HD
HETATM   11  C9  UNL     1      13.551   7.421   1.372  1.00  0.00     0.506 C
HETATM   12  N3  UNL     1      13.541   8.520   2.309  1.00  0.00     0.148 N
HETATM   13  C10 UNL     1      14.941   8.946   2.455  1.00  0.00     0.545 C
ENDROOT
BRANCH   1  14
HETATM   14  C2  UNL     1      15.503  10.738  -1.504  1.00  0.00     0.004 C
HETATM   15  C1  UNL     1      15.277   9.935  -2.738  1.00  0.00     0.005 C
ENDBRANCH   1  14
TORSDOF 1
ENDMDL