MODEL 2
REMARK VINA RESULT: -5.582881499      4.354      6.279
REMARK  1 active torsions:
REMARK  status: ('A' for Active; 'I' for Inactive)
REMARK    1  A    between atoms: O1_2  and  C2_3
ROOT
HETATM    1  C2  UNL     1      13.789   9.168   3.826  1.00  0.00     0.561 C
HETATM    2  N1  UNL     1      13.134   9.418   5.075  1.00  0.00    -0.010 N
ATOM      3  H11 UNL     1      12.347   8.791   5.242  1.00  0.00     0.283 HD
ATOM      4  H12 UNL     1      12.613  10.295   5.079  1.00  0.00     0.283 HD
HETATM    5  C3  UNL     1      14.136   9.354   6.118  1.00  0.00     0.157 C
HETATM    6  C4  UNL     1      14.146  10.569   6.958  1.00  0.00     0.041 C
HETATM    7  C5  UNL     1      13.436  10.483   8.254  1.00  0.00     0.002 C
HETATM    8  C6  UNL     1      13.471   9.159   8.925  1.00  0.00     0.000 C
HETATM    9  C7  UNL     1      13.053   8.052   7.975  1.00  0.00     0.002 C
HETATM   10  C8  UNL     1      14.007   8.061   6.826  1.00  0.00     0.041 C
HETATM   11  C9  UNL     1      15.452   9.320   5.328  1.00  0.00     0.316 C
HETATM   12  N2  UNL     1      15.113   9.735   4.000  1.00  0.00     0.143 N
HETATM   13  C10 UNL     1      15.038  11.180   3.859  1.00  0.00     0.316 C
ENDROOT
BRANCH   1  14
HETATM   14  O1  UNL     1      13.174   9.767   2.752  1.00  0.00    -0.342 OA
HETATM   15  C1  UNL     1      12.356   8.826   2.131  1.00  0.00     0.206 C
ENDBRANCH   1  14
TORSDOF 1
ENDMDL