MODEL 5
REMARK VINA RESULT: -5.685233032      1.041      1.138
REMARK  4 active torsions:
REMARK  status: ('A' for Active; 'I' for Inactive)
REMARK    1  A    between atoms: N1_1  and  C1_5
REMARK    2  A    between atoms: C1_5  and  C2_6
REMARK    3  A    between atoms: C2_6  and  N2_7
REMARK    4  A    between atoms: N2_7  and  C3_9
ROOT
HETATM    1  C3  UNL     1       8.422  42.676  21.385  1.00  0.00     0.118 A
HETATM    2  C4  UNL     1       7.528  41.638  21.217  1.00  0.00     0.137 A
HETATM    3  N3  UNL     1       7.307  41.138  19.972  1.00  0.00    -0.348 N
ATOM      4  H3  UNL     1       6.648  40.372  19.840  1.00  0.00     0.166 HD
HETATM    5  C5  UNL     1       7.959  41.655  18.914  1.00  0.00     0.157 A
HETATM    6  N4  UNL     1       7.784  41.189  17.583  1.00  0.00    -0.079 NA
HETATM    7  C6  UNL     1       8.846  42.691  19.108  1.00  0.00     0.159 A
HETATM    8  N5  UNL     1       9.534  43.237  17.997  1.00  0.00    -0.079 NA
HETATM    9  N6  UNL     1       9.089  43.214  20.345  1.00  0.00    -0.327 N
ATOM     10  H6  UNL     1       9.748  43.981  20.476  1.00  0.00     0.168 HD
ENDROOT
BRANCH   1  11
HETATM   11  N2  UNL     1       8.630  43.150  22.566  1.00  0.00    -0.374 N
ATOM     12  H2  UNL     1       7.865  43.622  23.048  1.00  0.00     0.161 HD
BRANCH  11  13
HETATM   13  C2  UNL     1       9.911  43.038  23.236  1.00  0.00     0.148 C
BRANCH  13  14
HETATM   14  C1  UNL     1      10.826  44.069  22.563  1.00  0.00     0.249 C
BRANCH  14  15
HETATM   15  N1  UNL     1      10.209  45.362  22.796  1.00  0.00    -0.078 N
ATOM     16  H13 UNL     1      10.154  45.615  23.782  1.00  0.00     0.274 HD
ATOM     17  H12 UNL     1      10.787  46.148  22.499  1.00  0.00     0.274 HD
ATOM     18  H11 UNL     1       9.300  45.327  22.333  1.00  0.00     0.274 HD
ENDBRANCH  14  15
ENDBRANCH  13  14
ENDBRANCH  11  13
ENDBRANCH   1  11
TORSDOF 4
ENDMDL