MODEL 5
REMARK VINA RESULT: -5.541349173      0.865      1.197
REMARK  2 active torsions:
REMARK  status: ('A' for Active; 'I' for Inactive)
REMARK    1  A    between atoms: C3_8  and  C4_9
REMARK    2  A    between atoms: N4_10  and  N5_12
REMARK       I    between atoms: N5_12  and  C5_14
REMARK       I    between atoms: C5_14  and  N6_15
REMARK       I    between atoms: C5_14  and  N7_19
ROOT
HETATM    1  C4  UNL     1       8.843  43.138  21.288  1.00  0.00     0.139 C
HETATM    2  N4  UNL     1       9.255  44.270  20.875  1.00  0.00    -0.311 N
ATOM      3  H4  UNL     1       9.060  44.496  19.900  1.00  0.00     0.185 HD
ENDROOT
BRANCH   2   4
HETATM    4  N5  UNL     1       9.932  45.219  21.598  1.00  0.00    -0.284 N
HETATM    5  C5  UNL     1      10.398  44.907  22.923  1.00  0.00     0.494 C
HETATM    6  N6  UNL     1      11.311  43.786  22.807  1.00  0.00    -0.032 N
HETATM    7  N7  UNL     1      11.000  46.061  23.509  1.00  0.00    -0.032 N
ATOM      8  H63 UNL     1      10.898  42.984  22.330  1.00  0.00     0.279 HD
ATOM      9  H62 UNL     1      12.069  43.956  22.147  1.00  0.00     0.279 HD
ATOM     10  H61 UNL     1      11.641  43.564  23.746  1.00  0.00     0.279 HD
ATOM     11  H73 UNL     1      11.740  46.445  22.923  1.00  0.00     0.279 HD
ATOM     12  H72 UNL     1      10.373  46.865  23.503  1.00  0.00     0.279 HD
ATOM     13  H71 UNL     1      11.331  45.839  24.448  1.00  0.00     0.279 HD
ATOM     14  H5  UNL     1      10.104  46.141  21.198  1.00  0.00     0.184 HD
ENDBRANCH   2   4
BRANCH   1  15
HETATM   15  C3  UNL     1       8.138  42.266  20.356  1.00  0.00     0.091 A
HETATM   16  C1  UNL     1       8.318  42.169  18.975  1.00  0.00     0.145 A
HETATM   17  N1  UNL     1       9.247  42.933  18.256  1.00  0.00    -0.080 NA
HETATM   18  N2  UNL     1       7.463  41.239  18.501  1.00  0.00    -0.339 N
HETATM   19  C2  UNL     1       6.749  40.747  19.537  1.00  0.00     0.182 A
ATOM     20  H2  UNL     1       7.370  40.956  17.526  1.00  0.00     0.167 HD
HETATM   21  N3  UNL     1       7.168  41.372  20.630  1.00  0.00    -0.348 N
ATOM     22  H3  UNL     1       6.800  41.197  21.565  1.00  0.00     0.167 HD
ENDBRANCH   1  15
TORSDOF 2
ENDMDL