MODEL 4
REMARK VINA RESULT: -5.428189620      3.045      7.299
REMARK  4 active torsions:
REMARK  status: ('A' for Active; 'I' for Inactive)
REMARK    1  A    between atoms: C2_3  and  N2_4
REMARK    2  A    between atoms: C2_3  and  N3_8
REMARK    3  A    between atoms: N3_8  and  N4_10
REMARK    4  A    between atoms: N4_10  and  C3_11
ROOT
HETATM    1  N1  UNL     1      10.495  47.062  23.050  1.00  0.00    -0.193 NA
HETATM    2  C1  UNL     1      10.211  45.974  22.776  1.00  0.00     0.115 C
HETATM    3  C2  UNL     1       9.838  44.587  22.405  1.00  0.00     0.400 C
ENDROOT
BRANCH   3   4
HETATM    4  N2  UNL     1      10.958  43.745  22.758  1.00  0.00    -0.044 N
ATOM      5  H23 UNL     1      11.643  43.651  22.009  1.00  0.00     0.278 HD
ATOM      6  H22 UNL     1      11.578  44.169  23.448  1.00  0.00     0.278 HD
ATOM      7  H21 UNL     1      10.570  42.852  23.062  1.00  0.00     0.278 HD
ENDBRANCH   3   4
BRANCH   3   8
HETATM    8  N3  UNL     1       9.541  44.593  21.011  1.00  0.00    -0.296 N
ATOM      9  H3  UNL     1       9.146  45.410  20.545  1.00  0.00     0.179 HD
BRANCH   8  10
HETATM   10  N4  UNL     1       9.820  43.436  20.336  1.00  0.00    -0.116 NA
BRANCH  10  11
HETATM   11  C3  UNL     1       8.611  42.898  19.780  1.00  0.00     0.216 C
HETATM   12  C4  UNL     1       7.942  41.880  20.655  1.00  0.00     0.166 C
HETATM   13  N5  UNL     1       7.197  41.107  19.680  1.00  0.00    -0.361 N
HETATM   14  C5  UNL     1       7.709  41.246  18.498  1.00  0.00     0.185 C
ATOM     15  H5  UNL     1       6.381  40.533  19.894  1.00  0.00     0.162 HD
HETATM   16  N6  UNL     1       7.248  40.636  17.275  1.00  0.00    -0.064 NA
HETATM   17  N7  UNL     1       8.841  42.121  18.570  1.00  0.00    -0.343 N
ATOM     18  H7  UNL     1       9.627  42.185  17.922  1.00  0.00     0.164 HD
ENDBRANCH  10  11
ENDBRANCH   8  10
ENDBRANCH   3   8
TORSDOF 4
ENDMDL