MODEL 2
REMARK VINA RESULT: -5.184419264      2.768      6.294
REMARK  3 active torsions:
REMARK  status: ('A' for Active; 'I' for Inactive)
REMARK    1  A    between atoms: N1_1  and  N2_4
REMARK       I    between atoms: N2_4  and  C1_5
REMARK       I    between atoms: C1_5  and  N3_6
REMARK       I    between atoms: C1_5  and  N4_10
REMARK    2  A    between atoms: N4_10  and  N5_12
REMARK    3  A    between atoms: C2_14  and  C3_15
ROOT
HETATM    1  N2  UNL     1      14.201  46.898  23.134  1.00  0.00    -0.092 NA
HETATM    2  C1  UNL     1      13.509  45.887  23.894  1.00  0.00     0.410 C
HETATM    3  N3  UNL     1      13.399  46.265  25.288  1.00  0.00    -0.041 N
ATOM      4  H31 UNL     1      12.910  45.550  25.825  1.00  0.00     0.278 HD
ATOM      5  H32 UNL     1      12.962  47.180  25.395  1.00  0.00     0.278 HD
ATOM      6  H33 UNL     1      14.311  46.479  25.691  1.00  0.00     0.278 HD
HETATM    7  N4  UNL     1      12.230  45.522  23.340  1.00  0.00    -0.292 N
ATOM      8  H4  UNL     1      12.080  44.551  23.064  1.00  0.00     0.184 HD
ENDROOT
BRANCH   7   9
HETATM    9  N5  UNL     1      11.188  46.431  23.161  1.00  0.00    -0.310 N
HETATM   10  C2  UNL     1      10.066  46.148  22.638  1.00  0.00     0.156 C
ATOM     11  H5  UNL     1      11.337  47.391  23.473  1.00  0.00     0.185 HD
BRANCH  10  12
HETATM   12  C3  UNL     1       9.685  44.836  22.140  1.00  0.00     0.138 A
HETATM   13  N6  UNL     1       9.216  43.826  22.885  1.00  0.00    -0.335 N
HETATM   14  C4  UNL     1       8.994  42.820  22.055  1.00  0.00     0.199 A
ATOM     15  H6  UNL     1       9.061  43.831  23.893  1.00  0.00     0.168 HD
HETATM   16  N7  UNL     1       9.315  43.178  20.800  1.00  0.00    -0.295 N
HETATM   17  N8  UNL     1       9.741  44.423  20.864  1.00  0.00    -0.283 N
ATOM     18  H7  UNL     1       9.243  42.599  19.963  1.00  0.00     0.187 HD
ATOM     19  H8  UNL     1      10.060  44.982  20.073  1.00  0.00     0.188 HD
ENDBRANCH  10  12
ENDBRANCH   7   9
BRANCH   1  20
HETATM   20  N1  UNL     1      13.598  48.132  23.147  1.00  0.00    -0.345 N
ATOM     21  H12 UNL     1      13.160  48.509  23.988  1.00  0.00     0.172 HD
ATOM     22  H11 UNL     1      13.628  48.626  22.256  1.00  0.00     0.172 HD
ENDBRANCH   1  20
TORSDOF 3
ENDMDL