MODEL 1
REMARK VINA RESULT: -6.002149006      0.000      0.000
REMARK  6 active torsions:
REMARK  status: ('A' for Active; 'I' for Inactive)
REMARK    1  A    between atoms: N1_1  and  C1_4
REMARK    2  A    between atoms: C2_9  and  C3_10
REMARK    3  A    between atoms: C3_10  and  N4_11
REMARK    4  A    between atoms: N4_11  and  N5_12
REMARK    5  A    between atoms: N4_11  and  C4_15
REMARK    6  A    between atoms: N6_16  and  N7_18
ROOT
HETATM    1  C1  UNL     1      11.494  45.380  23.381  1.00  0.00     0.691 A
HETATM    2  N2  UNL     1      10.547  46.234  22.955  1.00  0.00    -0.131 N
ATOM      3  H2  UNL     1      10.479  47.220  23.203  1.00  0.00     0.205 HD
HETATM    4  N3  UNL     1       9.707  45.572  22.150  1.00  0.00    -0.273 N
ATOM      5  H3  UNL     1       8.893  45.974  21.684  1.00  0.00     0.189 HD
HETATM    6  C2  UNL     1      10.108  44.293  22.054  1.00  0.00     0.132 A
HETATM    7  N8  UNL     1      11.208  44.203  22.820  1.00  0.00    -0.177 N
ATOM      8  H8  UNL     1      11.750  43.350  22.955  1.00  0.00     0.185 HD
ENDROOT
BRANCH   6   9
HETATM    9  C3  UNL     1       9.490  43.172  21.270  1.00  0.00     0.227 C
BRANCH   9  10
HETATM   10  N4  UNL     1       8.511  42.480  22.048  1.00  0.00    -0.286 N
BRANCH  10  11
HETATM   11  N5  UNL     1       8.591  42.484  23.433  1.00  0.00    -0.342 N
ATOM     12  H52 UNL     1       9.374  42.951  23.891  1.00  0.00     0.177 HD
ATOM     13  H51 UNL     1       7.872  42.021  23.990  1.00  0.00     0.177 HD
ENDBRANCH  10  11
BRANCH  10  14
HETATM   14  C4  UNL     1       7.458  41.790  21.415  1.00  0.00     0.216 C
HETATM   15  N6  UNL     1       7.512  41.496  20.165  1.00  0.00    -0.301 N
ATOM     16  H6  UNL     1       8.335  41.771  19.628  1.00  0.00     0.187 HD
BRANCH  15  17
HETATM   17  N7  UNL     1       6.482  40.814  19.516  1.00  0.00    -0.344 N
ATOM     18  H72 UNL     1       5.741  41.368  19.085  1.00  0.00     0.176 HD
ATOM     19  H71 UNL     1       6.453  39.796  19.462  1.00  0.00     0.176 HD
ENDBRANCH  15  17
ENDBRANCH  10  14
ENDBRANCH   9  10
ENDBRANCH   6   9
BRANCH   1  20
HETATM   20  N1  UNL     1      12.477  45.697  24.186  1.00  0.00    -0.233 N
ATOM     21  H12 UNL     1      12.822  45.203  25.009  1.00  0.00     0.174 HD
ATOM     22  H11 UNL     1      13.059  46.529  24.092  1.00  0.00     0.174 HD
ENDBRANCH   1  20
TORSDOF 6
ENDMDL