MODEL 2
REMARK VINA RESULT: -5.884976858      1.287      1.791
REMARK  7 active torsions:
REMARK  status: ('A' for Active; 'I' for Inactive)
REMARK    1  A    between atoms: N1_1  and  C1_5
REMARK    2  A    between atoms: C1_5  and  N2_6
REMARK    3  A    between atoms: C1_5  and  C2_10
REMARK    4  A    between atoms: C2_10  and  N3_11
REMARK    5  A    between atoms: C2_10  and  C3_15
REMARK    6  A    between atoms: C6_18  and  O1_19
REMARK    7  A    between atoms: N4_21  and  N5_22
ROOT
HETATM    1  C2  UNL     1       9.503  42.934  22.094  1.00  0.00     0.292 C
ENDROOT
BRANCH   1   2
HETATM    2  C1  UNL     1      10.385  44.129  22.039  1.00  0.00     0.413 C
BRANCH   2   3
HETATM    3  N1  UNL     1       9.682  45.357  22.368  1.00  0.00    -0.048 N
ATOM      4  H13 UNL     1       8.820  45.205  22.892  1.00  0.00     0.276 HD
ATOM      5  H12 UNL     1      10.157  45.921  23.074  1.00  0.00     0.276 HD
ATOM      6  H11 UNL     1       9.541  45.846  21.484  1.00  0.00     0.276 HD
ENDBRANCH   2   3
BRANCH   2   7
HETATM    7  N2  UNL     1      11.409  43.956  23.081  1.00  0.00    -0.048 N
ATOM      8  H23 UNL     1      11.443  43.012  23.464  1.00  0.00     0.276 HD
ATOM      9  H22 UNL     1      12.363  43.979  22.721  1.00  0.00     0.276 HD
ATOM     10  H21 UNL     1      11.221  44.673  23.781  1.00  0.00     0.276 HD
ENDBRANCH   2   7
ENDBRANCH   1   2
BRANCH   1  11
HETATM   11  N3  UNL     1       8.424  43.060  23.055  1.00  0.00    -0.066 N
ATOM     12  H33 UNL     1       7.663  43.621  22.672  1.00  0.00     0.275 HD
ATOM     13  H32 UNL     1       7.938  42.172  23.171  1.00  0.00     0.275 HD
ATOM     14  H31 UNL     1       8.727  43.428  23.956  1.00  0.00     0.275 HD
ENDBRANCH   1  11
BRANCH   1  15
HETATM   15  C3  UNL     1       8.885  42.631  20.782  1.00  0.00     0.070 A
HETATM   16  C4  UNL     1       9.053  43.195  19.540  1.00  0.00     0.034 A
HETATM   17  C5  UNL     1       8.227  42.520  18.637  1.00  0.00     0.060 A
HETATM   18  C6  UNL     1       7.570  41.551  19.361  1.00  0.00     0.161 A
HETATM   19  N4  UNL     1       7.984  41.643  20.633  1.00  0.00    -0.243 N
BRANCH  18  20
HETATM   20  O1  UNL     1       6.635  40.635  18.840  1.00  0.00    -0.345 OA
ATOM     21  H1  UNL     1       6.768  39.698  18.757  1.00  0.00     0.219 HD
ENDBRANCH  18  20
BRANCH  19  22
HETATM   22  N5  UNL     1       7.509  40.794  21.646  1.00  0.00    -0.336 N
ATOM     23  H52 UNL     1       7.829  39.831  21.750  1.00  0.00     0.177 HD
ATOM     24  H51 UNL     1       6.821  41.035  22.360  1.00  0.00     0.177 HD
ENDBRANCH  19  22
ENDBRANCH   1  15
TORSDOF 7
ENDMDL