MODEL 2
REMARK VINA RESULT: -6.458825179      2.523      3.461
REMARK  5 active torsions:
REMARK  status: ('A' for Active; 'I' for Inactive)
REMARK    1  A    between atoms: C2_9  and  C3_10
REMARK    2  A    between atoms: C3_10  and  N5_11
REMARK    3  A    between atoms: C3_10  and  N6_15
REMARK    4  A    between atoms: C4_17  and  C5_18
REMARK    5  A    between atoms: N7_19  and  O1_21
ROOT
HETATM    1  C3  UNL     1       9.335  43.791  22.166  1.00  0.00     0.337 C
ENDROOT
BRANCH   1   2
HETATM    2  C2  UNL     1       9.162  43.417  20.742  1.00  0.00     0.119 A
HETATM    3  C1  UNL     1       8.327  42.511  20.144  1.00  0.00     0.160 A
HETATM    4  N1  UNL     1       7.393  41.700  20.823  1.00  0.00    -0.079 NA
HETATM    5  N2  UNL     1       8.593  42.579  18.829  1.00  0.00    -0.272 N
HETATM    6  N3  UNL     1       9.545  43.478  18.605  1.00  0.00    -0.241 N
ATOM      7  H2  UNL     1       8.132  42.023  18.108  1.00  0.00     0.189 HD
HETATM    8  N4  UNL     1       9.884  43.979  19.757  1.00  0.00    -0.283 N
ATOM      9  H3  UNL     1       9.938  43.730  17.698  1.00  0.00     0.208 HD
ATOM     10  H4  UNL     1      10.596  44.696  19.894  1.00  0.00     0.188 HD
ENDBRANCH   1   2
BRANCH   1  11
HETATM   11  N5  UNL     1       8.677  42.730  22.924  1.00  0.00    -0.053 N
ATOM     12  H53 UNL     1       8.802  42.807  23.933  1.00  0.00     0.277 HD
ATOM     13  H52 UNL     1       7.659  42.796  22.926  1.00  0.00     0.277 HD
ATOM     14  H51 UNL     1       9.032  41.859  22.530  1.00  0.00     0.277 HD
ENDBRANCH   1  11
BRANCH   1  15
HETATM   15  N6  UNL     1      10.677  44.001  22.575  1.00  0.00    -0.366 N
HETATM   16  C4  UNL     1      11.143  45.096  23.002  1.00  0.00     0.104 C
ATOM     17  H6  UNL     1      11.315  43.207  22.521  1.00  0.00     0.161 HD
BRANCH  16  18
HETATM   18  C5  UNL     1      10.363  46.312  23.138  1.00  0.00     0.130 C
HETATM   19  N7  UNL     1      10.391  47.235  22.208  1.00  0.00    -0.279 N
ATOM     20  H7  UNL     1      10.965  47.108  21.374  1.00  0.00     0.193 HD
BRANCH  19  21
HETATM   21  O1  UNL     1       9.647  48.368  22.362  1.00  0.00    -0.290 OA
ATOM     22  H1  UNL     1      10.048  49.216  22.211  1.00  0.00     0.244 HD
ENDBRANCH  19  21
ENDBRANCH  16  18
ENDBRANCH   1  15
TORSDOF 5
ENDMDL