MODEL 1
REMARK VINA RESULT: -7.012705413      0.000      0.000
REMARK  2 active torsions:
REMARK  status: ('A' for Active; 'I' for Inactive)
REMARK    1  A    between atoms: C8_10  and  C9_11
REMARK    2  A    between atoms: C12_17  and  O1_18
ROOT
HETATM    1  C9  UNL     1      19.065  41.501  35.832  1.00  0.00     0.091 A
HETATM    2  N2  UNL     1      17.898  41.198  35.236  1.00  0.00    -0.333 N
ATOM      3  H2  UNL     1      16.976  41.348  35.646  1.00  0.00     0.168 HD
HETATM    4  C10 UNL     1      18.125  40.666  34.018  1.00  0.00     0.166 A
HETATM    5  C11 UNL     1      17.094  40.231  33.115  1.00  0.00     0.122 C
HETATM    6  N3  UNL     1      16.255  39.879  32.397  1.00  0.00    -0.190 NA
HETATM    7  C12 UNL     1      19.501  40.633  33.839  1.00  0.00     0.180 A
HETATM    8  N4  UNL     1      20.022  41.145  34.955  1.00  0.00    -0.324 N
ATOM      9  H4  UNL     1      21.022  41.253  35.123  1.00  0.00     0.169 HD
ENDROOT
BRANCH   7  10
HETATM   10  O1  UNL     1      20.149  40.149  32.697  1.00  0.00    -0.344 OA
ATOM     11  H1  UNL     1      19.766  40.112  31.829  1.00  0.00     0.219 HD
ENDBRANCH   7  10
BRANCH   1  12
HETATM   12  C8  UNL     1      19.187  42.103  37.183  1.00  0.00     0.091 C
HETATM   13  C7  UNL     1      18.202  41.433  38.163  1.00  0.00     0.133 C
HETATM   14  N1  UNL     1      18.883  41.584  39.465  1.00  0.00    -0.392 N
HETATM   15  C6  UNL     1      20.142  42.238  39.251  1.00  0.00     0.016 C
ATOM     16  H1  UNL     1      18.518  41.275  40.366  1.00  0.00     0.159 HD
HETATM   17  C5  UNL     1      20.880  43.001  40.006  1.00  0.00     0.001 C
HETATM   18  C13 UNL     1      20.474  41.823  37.859  1.00  0.00     0.110 C
HETATM   19  C4  UNL     1      22.176  43.631  39.675  1.00  0.00     0.049 C
HETATM   20  C2  UNL     1      23.012  42.828  38.723  1.00  0.00     0.005 C
HETATM   21  C1  UNL     1      24.268  43.547  38.364  1.00  0.00     0.027 C
HETATM   22  C3  UNL     1      23.331  41.487  39.320  1.00  0.00     0.027 C
HETATM   23  S1  UNL     1      21.936  42.619  37.231  1.00  0.00    -0.148 SA
ENDBRANCH   1  12
TORSDOF 2
ENDMDL