MODEL 4
REMARK VINA RESULT: -6.217397957      1.907      2.600
REMARK  5 active torsions:
REMARK  status: ('A' for Active; 'I' for Inactive)
REMARK    1  A    between atoms: C2_2  and  O1_5
REMARK    2  A    between atoms: O1_5  and  C5_6
REMARK    3  A    between atoms: C5_6  and  N1_8
REMARK    4  A    between atoms: N1_8  and  N2_10
REMARK    5  A    between atoms: C11_17  and  O2_18
ROOT
HETATM    1  N2  UNL     1      22.667  43.483  38.857  1.00  0.00    -0.302 N
ATOM      2  H2  UNL     1      23.550  43.015  38.655  1.00  0.00     0.186 HD
HETATM    3  C6  UNL     1      22.271  43.383  40.051  1.00  0.00     0.052 C
HETATM    4  C7  UNL     1      23.080  42.630  41.019  1.00  0.00     0.058 C
HETATM    5  C8  UNL     1      22.179  41.569  41.636  1.00  0.00     0.006 C
HETATM    6  C9  UNL     1      20.961  42.271  42.191  1.00  0.00     0.005 C
HETATM    7  C10 UNL     1      20.161  42.878  41.077  1.00  0.00     0.060 C
HETATM    8  C11 UNL     1      21.019  44.008  40.482  1.00  0.00     0.186 C
HETATM    9  C12 UNL     1      21.294  44.999  41.522  1.00  0.00     0.104 C
HETATM   10  N3  UNL     1      21.521  45.784  42.324  1.00  0.00    -0.194 NA
ENDROOT
BRANCH   8  11
HETATM   11  O2  UNL     1      20.311  44.572  39.416  1.00  0.00    -0.370 OA
ATOM     12  H2  UNL     1      19.376  44.604  39.580  1.00  0.00     0.212 HD
ENDBRANCH   8  11
BRANCH   1  13
HETATM   13  N1  UNL     1      22.094  44.124  37.787  1.00  0.00    -0.270 N
ATOM     14  H1  UNL     1      21.707  45.054  37.948  1.00  0.00     0.190 HD
BRANCH  13  15
HETATM   15  C5  UNL     1      21.999  43.594  36.479  1.00  0.00     0.230 C
HETATM   16  S1  UNL     1      23.234  43.943  35.449  1.00  0.00    -0.032 SA
BRANCH  15  17
HETATM   17  O1  UNL     1      20.932  42.833  36.104  1.00  0.00    -0.316 OA
BRANCH  17  18
HETATM   18  C2  UNL     1      20.622  41.546  36.534  1.00  0.00     0.059 C
HETATM   19  C1  UNL     1      21.831  40.773  37.012  1.00  0.00     0.045 C
HETATM   20  C3  UNL     1      19.977  40.772  35.382  1.00  0.00     0.045 C
HETATM   21  C4  UNL     1      19.574  41.642  37.624  1.00  0.00     0.045 C
ENDBRANCH  17  18
ENDBRANCH  15  17
ENDBRANCH  13  15
ENDBRANCH   1  13
TORSDOF 5
ENDMDL