MODEL 5
REMARK VINA RESULT: -5.485192913      2.921      6.318
REMARK  3 active torsions:
REMARK  status: ('A' for Active; 'I' for Inactive)
REMARK    1  A    between atoms: N1_1  and  C1_4
REMARK    2  A    between atoms: N2_10  and  N3_12
REMARK    3  A    between atoms: N3_12  and  C5_14
ROOT
HETATM    1  C1  UNL     1      19.690  41.874  36.862  1.00  0.00     0.111 A
HETATM    2  S1  UNL     1      19.957  42.194  38.496  1.00  0.00    -0.069 SA
HETATM    3  C2  UNL     1      21.548  42.812  38.656  1.00  0.00     0.004 A
HETATM    4  C3  UNL     1      22.201  42.894  37.447  1.00  0.00     0.044 A
HETATM    5  S2  UNL     1      21.184  42.345  36.201  1.00  0.00    -0.063 SA
HETATM    6  C4  UNL     1      23.565  43.404  37.437  1.00  0.00     0.044 C
HETATM    7  N2  UNL     1      24.080  43.937  36.378  1.00  0.00    -0.302 N
ATOM      8  H2  UNL     1      25.041  44.272  36.443  1.00  0.00     0.186 HD
HETATM    9  C6  UNL     1      24.429  43.337  38.631  1.00  0.00     0.060 C
HETATM   10  C7  UNL     1      23.706  43.029  39.900  1.00  0.00     0.011 C
HETATM   11  C8  UNL     1      22.231  43.231  39.871  1.00  0.00     0.048 C
ENDROOT
BRANCH   7  12
HETATM   12  N3  UNL     1      23.441  44.090  35.172  1.00  0.00    -0.284 N
ATOM     13  H3  UNL     1      22.424  44.047  35.122  1.00  0.00     0.188 HD
BRANCH  12  14
HETATM   14  C5  UNL     1      24.199  44.307  34.003  1.00  0.00     0.164 C
HETATM   15  S3  UNL     1      25.814  44.090  33.951  1.00  0.00    -0.050 SA
HETATM   16  S4  UNL     1      23.383  44.839  32.519  1.00  0.00    -0.019 SA
ENDBRANCH  12  14
ENDBRANCH   7  12
BRANCH   1  17
HETATM   17  N1  UNL     1      18.688  41.411  36.198  1.00  0.00    -0.388 N
ATOM     18  H12 UNL     1      18.399  41.717  35.269  1.00  0.00     0.157 HD
ATOM     19  H11 UNL     1      17.987  40.694  36.387  1.00  0.00     0.157 HD
ENDBRANCH   1  17
TORSDOF 3
ENDMDL