MODEL 4
REMARK VINA RESULT: -5.073114884      2.710      5.403
REMARK  2 active torsions:
REMARK  status: ('A' for Active; 'I' for Inactive)
REMARK    1  A    between atoms: N1_1  and  C1_4
REMARK    2  A    between atoms: C3_8  and  C4_9
ROOT
HETATM    1  C4  UNL     1      20.388  41.801  37.978  1.00  0.00     0.021 A
HETATM    2  C5  UNL     1      19.677  41.959  39.139  1.00  0.00     0.099 A
HETATM    3  N3  UNL     1      18.262  41.919  39.411  1.00  0.00    -0.093 NA
HETATM    4  S1  UNL     1      20.884  42.252  40.323  1.00  0.00    -0.078 SA
HETATM    5  C6  UNL     1      22.247  42.169  39.334  1.00  0.00     0.001 A
HETATM    6  C7  UNL     1      21.747  41.912  38.084  1.00  0.00    -0.029 A
HETATM    7  C8  UNL     1      22.835  41.780  37.029  1.00  0.00     0.051 C
HETATM    8  C9  UNL     1      23.493  43.148  36.820  1.00  0.00     0.079 C
HETATM    9  S2  UNL     1      24.274  43.649  38.417  1.00  0.00    -0.164 SA
HETATM   10  C10 UNL     1      23.742  42.325  39.572  1.00  0.00     0.120 C
ENDROOT
BRANCH   1  11
HETATM   11  C3  UNL     1      19.662  41.516  36.697  1.00  0.00     0.037 A
HETATM   12  C2  UNL     1      18.479  41.985  36.248  1.00  0.00     0.110 A
HETATM   13  N2  UNL     1      18.044  41.564  35.085  1.00  0.00    -0.346 N
HETATM   14  C1  UNL     1      18.781  40.696  34.400  1.00  0.00     0.142 A
ATOM     15  H2  UNL     1      17.155  41.896  34.713  1.00  0.00     0.167 HD
HETATM   16  S3  UNL     1      20.118  40.472  35.426  1.00  0.00    -0.052 SA
BRANCH  14  17
HETATM   17  N1  UNL     1      18.512  40.162  33.225  1.00  0.00    -0.380 N
ATOM     18  H12 UNL     1      18.492  39.184  32.935  1.00  0.00     0.158 HD
ATOM     19  H11 UNL     1      18.265  40.647  32.362  1.00  0.00     0.158 HD
ENDBRANCH  14  17
ENDBRANCH   1  11
TORSDOF 2
ENDMDL