MODEL 1
REMARK VINA RESULT: -7.521687283      0.000      0.000
REMARK  2 active torsions:
REMARK  status: ('A' for Active; 'I' for Inactive)
REMARK    1  A    between atoms: C2_2  and  C5_5
REMARK    2  A    between atoms: N1_10  and  C10_11
ROOT
HETATM    1  C10 UNL     1      22.147  43.160  39.122  1.00  0.00     0.134 A
HETATM    2  N2  UNL     1      21.025  42.842  38.491  1.00  0.00    -0.318 N
ATOM      3  H2  UNL     1      20.167  42.738  39.031  1.00  0.00     0.170 HD
HETATM    4  C11 UNL     1      20.983  42.654  37.188  1.00  0.00     0.178 A
HETATM    5  S1  UNL     1      19.560  42.260  36.452  1.00  0.00    -0.040 SA
HETATM    6  N3  UNL     1      22.079  42.777  36.437  1.00  0.00    -0.320 N
ATOM      7  H3  UNL     1      22.019  42.626  35.430  1.00  0.00     0.169 HD
HETATM    8  C12 UNL     1      23.259  43.098  36.991  1.00  0.00     0.146 A
HETATM    9  N4  UNL     1      24.427  43.231  36.203  1.00  0.00    -0.080 NA
HETATM   10  C13 UNL     1      23.299  43.296  38.377  1.00  0.00     0.131 A
HETATM   11  N5  UNL     1      24.533  43.659  38.989  1.00  0.00    -0.095 NA
ENDROOT
BRANCH   1  12
HETATM   12  N1  UNL     1      22.167  43.345  40.567  1.00  0.00    -0.360 N
HETATM   13  C5  UNL     1      22.272  42.336  41.536  1.00  0.00     0.093 C
HETATM   14  C6  UNL     1      21.519  42.685  42.834  1.00  0.00     0.026 C
HETATM   15  C7  UNL     1      21.795  44.083  43.255  1.00  0.00     0.004 C
HETATM   16  C8  UNL     1      21.394  45.070  42.173  1.00  0.00     0.020 C
HETATM   17  C9  UNL     1      22.125  44.739  40.912  1.00  0.00     0.125 C
BRANCH  13  18
HETATM   18  C2  UNL     1      21.893  40.929  41.146  1.00  0.00    -0.031 C
HETATM   19  C1  UNL     1      20.492  40.832  40.594  1.00  0.00     0.016 C
HETATM   20  C3  UNL     1      21.825  40.126  42.480  1.00  0.00     0.016 C
HETATM   21  C4  UNL     1      22.825  40.167  40.302  1.00  0.00     0.016 C
ENDBRANCH  13  18
ENDBRANCH   1  12
TORSDOF 2
ENDMDL