MODEL 5
REMARK VINA RESULT: -7.185091973      1.836      3.074
REMARK  1 active torsions:
REMARK  status: ('A' for Active; 'I' for Inactive)
REMARK    1  A    between atoms: N1_5  and  N2_7
ROOT
HETATM    1  C1  UNL     1      21.594  40.067  42.734  1.00  0.00     0.011 C
HETATM    2  C2  UNL     1      21.988  41.247  41.856  1.00  0.00    -0.009 C
HETATM    3  C3  UNL     1      22.281  40.717  40.501  1.00  0.00     0.058 C
HETATM    4  C4  UNL     1      22.223  41.707  39.418  1.00  0.00     0.005 C
HETATM    5  N1  UNL     1      22.544  41.371  38.236  1.00  0.00    -0.297 N
ATOM      6  H1  UNL     1      22.836  40.408  38.077  1.00  0.00     0.187 HD
HETATM    7  C7  UNL     1      21.792  43.079  39.718  1.00  0.00     0.063 C
HETATM    8  C8  UNL     1      20.634  43.019  40.686  1.00  0.00    -0.039 C
HETATM    9  C9  UNL     1      19.464  42.339  40.029  1.00  0.00     0.015 C
HETATM   10  C10 UNL     1      20.265  44.457  40.994  1.00  0.00     0.015 C
HETATM   11  C11 UNL     1      20.973  42.305  41.961  1.00  0.00    -0.007 C
HETATM   12  C12 UNL     1      21.369  43.358  42.980  1.00  0.00     0.011 C
ENDROOT
BRANCH   5  13
HETATM   13  N2  UNL     1      22.522  42.239  37.138  1.00  0.00    -0.198 N
HETATM   14  C5  UNL     1      21.611  42.251  36.143  1.00  0.00     0.231 A
HETATM   15  N3  UNL     1      20.477  41.384  35.995  1.00  0.00    -0.060 NA
HETATM   16  N4  UNL     1      21.976  43.241  35.308  1.00  0.00    -0.270 N
HETATM   17  N5  UNL     1      23.066  43.816  35.768  1.00  0.00    -0.272 N
ATOM     18  H4  UNL     1      21.486  43.504  34.453  1.00  0.00     0.189 HD
HETATM   19  C6  UNL     1      23.419  43.204  36.907  1.00  0.00     0.214 A
ATOM     20  H5  UNL     1      23.558  44.596  35.332  1.00  0.00     0.189 HD
HETATM   21  S1  UNL     1      24.736  43.629  37.798  1.00  0.00    -0.037 SA
ENDBRANCH   5  13
TORSDOF 1
ENDMDL