MODEL 5
REMARK VINA RESULT: -5.409850564      7.580     11.660
REMARK  4 active torsions:
REMARK  status: ('A' for Active; 'I' for Inactive)
REMARK    1  A    between atoms: O1_2  and  N1_3
REMARK    2  A    between atoms: N1_3  and  C2_4
REMARK    3  A    between atoms: C2_4  and  C4_6
REMARK    4  A    between atoms: C12_21  and  O2_22
ROOT
HETATM    1  C4  UNL     1      16.331  40.914  31.016  1.00  0.00     0.049 A
HETATM    2  C5  UNL     1      17.316  41.566  30.237  1.00  0.00     0.102 A
HETATM    3  N2  UNL     1      17.950  42.828  30.387  1.00  0.00    -0.093 NA
HETATM    4  S1  UNL     1      17.657  40.506  28.977  1.00  0.00    -0.075 SA
HETATM    5  C6  UNL     1      16.582  39.239  29.400  1.00  0.00     0.030 A
HETATM    6  C7  UNL     1      15.975  39.706  30.544  1.00  0.00     0.039 A
HETATM    7  C8  UNL     1      14.933  38.766  31.015  1.00  0.00     0.107 C
HETATM    8  N3  UNL     1      14.188  38.894  32.029  1.00  0.00    -0.385 N
ATOM      9  H31 UNL     1      13.470  38.246  32.353  1.00  0.00     0.157 HD
ATOM     10  H32 UNL     1      14.369  39.754  32.548  1.00  0.00     0.157 HD
HETATM   11  N4  UNL     1      14.679  37.560  30.287  1.00  0.00    -0.365 N
ATOM     12  H4  UNL     1      14.350  36.720  30.765  1.00  0.00     0.162 HD
HETATM   13  C9  UNL     1      14.901  37.560  28.864  1.00  0.00     0.055 C
HETATM   14  C10 UNL     1      14.717  36.176  28.272  1.00  0.00     0.041 C
HETATM   15  C11 UNL     1      13.999  38.570  28.227  1.00  0.00     0.041 C
HETATM   16  C12 UNL     1      16.357  37.906  28.733  1.00  0.00     0.186 C
ENDROOT
BRANCH   1  17
HETATM   17  C2  UNL     1      15.895  41.697  32.179  1.00  0.00     0.127 C
HETATM   18  C3  UNL     1      14.650  42.500  32.295  1.00  0.00     0.089 C
BRANCH  17  19
HETATM   19  N1  UNL     1      16.530  41.722  33.240  1.00  0.00    -0.286 NA
BRANCH  19  20
HETATM   20  O1  UNL     1      17.160  41.748  34.289  1.00  0.00    -0.214 OA
HETATM   21  C1  UNL     1      18.275  41.065  34.792  1.00  0.00     0.255 C
ENDBRANCH  19  20
ENDBRANCH  17  19
ENDBRANCH   1  17
BRANCH  16  22
HETATM   22  O2  UNL     1      17.113  36.994  29.466  1.00  0.00    -0.388 OA
ATOM     23  H2  UNL     1      16.570  36.755  30.208  1.00  0.00     0.210 HD
ENDBRANCH  16  22
TORSDOF 4
ENDMDL