MODEL 4
REMARK VINA RESULT: -6.720293020      2.541      5.300
REMARK  4 active torsions:
REMARK  status: ('A' for Active; 'I' for Inactive)
REMARK    1  A    between atoms: N1_4  and  N2_6
REMARK    2  A    between atoms: N2_6  and  C4_8
REMARK    3  A    between atoms: C7_19  and  C8_20
REMARK    4  A    between atoms: C8_20  and  O2_23
ROOT
HETATM    1  C4  UNL     1      23.336  42.650  40.017  1.00  0.00     0.157 A
HETATM    2  N3  UNL     1      24.640  42.869  40.262  1.00  0.00    -0.241 N
ATOM      3  H3  UNL     1      25.123  42.692  41.143  1.00  0.00     0.196 HD
HETATM    4  O1  UNL     1      25.181  43.347  39.174  1.00  0.00    -0.217 OA
HETATM    5  C5  UNL     1      24.276  43.452  38.216  1.00  0.00     0.188 A
HETATM    6  N4  UNL     1      24.352  43.877  36.963  1.00  0.00    -0.311 N
ATOM      7  H4  UNL     1      25.240  44.204  36.582  1.00  0.00     0.170 HD
HETATM    8  C6  UNL     1      23.255  43.871  36.209  1.00  0.00     0.178 A
HETATM    9  S1  UNL     1      23.405  44.407  34.665  1.00  0.00    -0.040 SA
HETATM   10  N5  UNL     1      22.083  43.443  36.701  1.00  0.00    -0.333 N
ATOM     11  H5  UNL     1      21.272  43.457  36.084  1.00  0.00     0.168 HD
HETATM   12  C7  UNL     1      21.911  42.991  37.970  1.00  0.00     0.064 A
HETATM   13  C11 UNL     1      23.061  43.005  38.736  1.00  0.00     0.090 A
ENDROOT
BRANCH   1  14
HETATM   14  N2  UNL     1      22.497  42.185  40.842  1.00  0.00    -0.283 N
ATOM     15  H2  UNL     1      21.983  41.347  40.570  1.00  0.00     0.188 HD
BRANCH  14  16
HETATM   16  N1  UNL     1      22.223  42.735  42.097  1.00  0.00    -0.308 N
HETATM   17  C2  UNL     1      21.755  41.985  43.014  1.00  0.00    -0.004 C
HETATM   18  C1  UNL     1      21.493  40.550  42.794  1.00  0.00     0.064 C
HETATM   19  C3  UNL     1      21.464  42.568  44.347  1.00  0.00     0.064 C
ATOM     20  H1  UNL     1      22.396  43.725  42.276  1.00  0.00     0.186 HD
ENDBRANCH  14  16
ENDBRANCH   1  14
BRANCH  12  21
HETATM   21  C8  UNL     1      20.598  42.541  38.463  1.00  0.00     0.094 C
HETATM   22  C9  UNL     1      19.590  42.308  37.396  1.00  0.00     0.052 C
HETATM   23  C10 UNL     1      20.034  43.710  39.299  1.00  0.00     0.052 C
BRANCH  21  24
HETATM   24  O2  UNL     1      20.641  41.538  39.429  1.00  0.00    -0.384 OA
ATOM     25  H2  UNL     1      20.305  40.695  39.149  1.00  0.00     0.211 HD
ENDBRANCH  21  24
ENDBRANCH  12  21
TORSDOF 4
ENDMDL