MODEL 1
REMARK VINA RESULT: -7.469229989      0.000      0.000
REMARK  2 active torsions:
REMARK  status: ('A' for Active; 'I' for Inactive)
REMARK    1  A    between atoms: C6_6  and  O1_7
REMARK    2  A    between atoms: C7_10  and  C8_11
ROOT
HETATM    1  C1  UNL     1      19.096  39.562  36.111  1.00  0.00     0.038 C
HETATM    2  C2  UNL     1      19.258  41.055  36.495  1.00  0.00     0.028 C
HETATM    3  C3  UNL     1      18.469  41.775  35.370  1.00  0.00     0.038 C
HETATM    4  C4  UNL     1      20.694  41.386  36.386  1.00  0.00     0.073 C
HETATM    5  C5  UNL     1      21.275  42.157  37.558  1.00  0.00    -0.001 A
HETATM    6  C6  UNL     1      22.570  42.664  37.515  1.00  0.00     0.115 A
HETATM    7  S1  UNL     1      22.769  43.374  39.034  1.00  0.00    -0.068 SA
HETATM    8  C7  UNL     1      21.243  43.036  39.707  1.00  0.00     0.004 A
HETATM    9  C13 UNL     1      20.592  42.359  38.706  1.00  0.00     0.028 A
HETATM   10  C14 UNL     1      19.183  41.871  38.725  1.00  0.00     0.124 C
HETATM   11  N1  UNL     1      18.419  42.081  39.944  1.00  0.00    -0.082 NA
HETATM   12  N2  UNL     1      18.631  41.300  37.733  1.00  0.00    -0.369 N
ATOM     13  H2  UNL     1      17.664  40.995  37.841  1.00  0.00     0.161 HD
ENDROOT
BRANCH   8  14
HETATM   14  C8  UNL     1      20.794  43.393  41.097  1.00  0.00     0.027 C
HETATM   15  C9  UNL     1      21.236  44.852  41.304  1.00  0.00     0.010 C
HETATM   16  C10 UNL     1      21.659  45.000  42.723  1.00  0.00     0.001 C
HETATM   17  C11 UNL     1      21.805  43.633  43.305  1.00  0.00     0.001 C
HETATM   18  C12 UNL     1      21.627  42.686  42.128  1.00  0.00     0.010 C
ENDBRANCH   8  14
BRANCH   6  19
HETATM   19  O1  UNL     1      23.491  42.593  36.445  1.00  0.00    -0.353 OA
ATOM     20  H1  UNL     1      23.702  41.837  35.910  1.00  0.00     0.218 HD
ENDBRANCH   6  19
TORSDOF 2
ENDMDL