MODEL 2
REMARK VINA RESULT: -6.367670533      3.618      4.621
REMARK  3 active torsions:
REMARK  status: ('A' for Active; 'I' for Inactive)
REMARK    1  A    between atoms: N1_1  and  N2_4
REMARK    2  A    between atoms: C1_5  and  O1_6
REMARK    3  A    between atoms: C2_8  and  C3_9
ROOT
HETATM    1  N2  UNL     1      23.423  43.921  34.628  1.00  0.00    -0.212 N
HETATM    2  C1  UNL     1      22.796  43.656  35.784  1.00  0.00     0.193 A
HETATM    3  C2  UNL     1      23.787  43.583  36.778  1.00  0.00     0.117 A
HETATM    4  N3  UNL     1      24.934  43.811  36.136  1.00  0.00    -0.326 N
ATOM      5  H3  UNL     1      25.848  43.825  36.590  1.00  0.00     0.168 HD
HETATM    6  C12 UNL     1      24.745  44.022  34.818  1.00  0.00     0.200 A
HETATM    7  S1  UNL     1      25.915  44.351  33.706  1.00  0.00    -0.039 SA
ENDROOT
BRANCH   3   8
HETATM    8  C3  UNL     1      23.554  43.225  38.144  1.00  0.00     0.078 C
HETATM    9  C4  UNL     1      24.676  43.138  39.125  1.00  0.00     0.070 C
HETATM   10  C5  UNL     1      23.885  42.562  40.328  1.00  0.00     0.045 C
HETATM   11  C6  UNL     1      22.474  42.922  39.964  1.00  0.00     0.068 C
HETATM   12  C7  UNL     1      21.619  41.743  39.692  1.00  0.00     0.038 C
HETATM   13  C11 UNL     1      21.851  43.666  41.125  1.00  0.00     0.038 C
HETATM   14  O2  UNL     1      22.535  43.773  38.841  1.00  0.00    -0.342 OA
HETATM   15  C8  UNL     1      20.154  42.130  39.900  1.00  0.00     0.003 C
HETATM   16  C9  UNL     1      19.904  42.100  41.386  1.00  0.00     0.000 C
HETATM   17  C10 UNL     1      21.131  42.711  42.043  1.00  0.00     0.003 C
ENDBRANCH   3   8
BRANCH   2  18
HETATM   18  O1  UNL     1      21.449  43.490  35.991  1.00  0.00    -0.343 OA
ATOM     19  H1  UNL     1      20.828  43.025  35.443  1.00  0.00     0.219 HD
ENDBRANCH   2  18
BRANCH   1  20
HETATM   20  N1  UNL     1      22.873  44.065  33.329  1.00  0.00    -0.334 N
ATOM     21  H12 UNL     1      23.383  43.728  32.513  1.00  0.00     0.177 HD
ATOM     22  H11 UNL     1      21.975  44.463  33.055  1.00  0.00     0.177 HD
ENDBRANCH   1  20
TORSDOF 3
ENDMDL