MODEL 1
REMARK VINA RESULT: -5.772300413      0.000      0.000
REMARK  1 active torsions:
REMARK  status: ('A' for Active; 'I' for Inactive)
REMARK    1  A    between atoms: C2_2  and  N1_3
REMARK       I    between atoms: N1_3  and  C3_5
REMARK       I    between atoms: C3_5  and  N2_7
ROOT
HETATM    1  N1  UNL     1      22.469  -1.436  -2.079  1.00  0.00    -0.342 N
ATOM      2  H1  UNL     1      21.672  -0.822  -1.914  1.00  0.00     0.164 HD
HETATM    3  C3  UNL     1      22.862  -1.688  -3.403  1.00  0.00     0.334 C
HETATM    4  O1  UNL     1      23.871  -2.456  -3.567  1.00  0.00    -0.246 OA
HETATM    5  N2  UNL     1      22.175  -1.118  -4.492  1.00  0.00    -0.214 N
HETATM    6  S1  UNL     1      22.732  -1.380  -6.171  1.00  0.00    -0.020 SA
HETATM    7  C4  UNL     1      21.769  -0.213  -7.105  1.00  0.00     0.084 C
HETATM    8  C5  UNL     1      22.526   0.502  -8.181  1.00  0.00     0.034 C
HETATM    9  C6  UNL     1      21.589   1.546  -8.776  1.00  0.00     0.002 C
HETATM   10  C7  UNL     1      20.392   0.822  -9.319  1.00  0.00     0.000 C
HETATM   11  C8  UNL     1      19.623   0.136  -8.207  1.00  0.00     0.002 C
HETATM   12  C9  UNL     1      20.537  -0.914  -7.620  1.00  0.00     0.034 C
HETATM   13  S2  UNL     1      21.217   0.928  -5.807  1.00  0.00    -0.070 SA
HETATM   14  C10 UNL     1      21.031  -0.324  -4.493  1.00  0.00     0.156 C
HETATM   15  N3  UNL     1      19.993  -0.399  -3.786  1.00  0.00    -0.379 N
ATOM     16  H31 UNL     1      19.154   0.183  -3.786  1.00  0.00     0.158 HD
ATOM     17  H32 UNL     1      19.888  -1.098  -3.051  1.00  0.00     0.158 HD
ENDROOT
BRANCH   1  18
HETATM   18  C2  UNL     1      23.155  -2.016  -0.933  1.00  0.00     0.120 C
HETATM   19  C1  UNL     1      22.272  -2.014   0.274  1.00  0.00     0.026 C
ENDBRANCH   1  18
TORSDOF 1
ENDMDL