MODEL 3
REMARK VINA RESULT: -8.753812638      1.093      2.291
REMARK  3 active torsions:
REMARK  status: ('A' for Active; 'I' for Inactive)
REMARK    1  A    between atoms: C3_9  and  O1_10
REMARK    2  A    between atoms: O1_10  and  C4_11
REMARK       I    between atoms: C4_11  and  N3_13
REMARK    3  A    between atoms: N3_13  and  C5_15
ROOT
HETATM    1  N1  UNL     1      26.433   2.523 -14.798  1.00  0.00    -0.380 N
ATOM      2  H11 UNL     1      25.889   3.278 -14.380  1.00  0.00     0.158 HD
ATOM      3  H12 UNL     1      27.425   2.484 -14.567  1.00  0.00     0.158 HD
HETATM    4  C1  UNL     1      25.871   1.652 -15.592  1.00  0.00     0.141 C
HETATM    5  N2  UNL     1      26.629   0.599 -16.175  1.00  0.00    -0.341 N
ATOM      6  H2  UNL     1      27.544   0.814 -16.570  1.00  0.00     0.167 HD
HETATM    7  C2  UNL     1      26.205  -0.617 -16.223  1.00  0.00     0.139 C
HETATM    8  S1  UNL     1      24.629  -1.141 -15.575  1.00  0.00    -0.081 SA
HETATM    9  C3  UNL     1      23.399   0.094 -16.073  1.00  0.00     0.270 C
HETATM   10  S2  UNL     1      24.132   1.720 -15.999  1.00  0.00    -0.051 SA
ENDROOT
BRANCH   9  11
HETATM   11  O1  UNL     1      22.228  -0.005 -15.250  1.00  0.00    -0.276 OA
BRANCH  11  12
HETATM   12  C4  UNL     1      20.968  -0.118 -15.818  1.00  0.00     0.362 C
HETATM   13  O2  UNL     1      20.894  -0.107 -17.072  1.00  0.00    -0.238 OA
HETATM   14  N3  UNL     1      19.784  -0.241 -15.050  1.00  0.00    -0.332 N
ATOM     15  H3  UNL     1      19.867  -0.249 -14.033  1.00  0.00     0.165 HD
BRANCH  14  16
HETATM   16  C5  UNL     1      18.479  -0.357 -15.623  1.00  0.00     0.086 C
HETATM   17  C6  UNL     1      17.725  -1.584 -15.155  1.00  0.00     0.025 C
HETATM   18  C7  UNL     1      16.276  -1.167 -15.052  1.00  0.00     0.002 C
HETATM   19  C8  UNL     1      16.196   0.255 -15.532  1.00  0.00     0.002 C
HETATM   20  C9  UNL     1      17.573   0.785 -15.270  1.00  0.00     0.025 C
ENDBRANCH  14  16
ENDBRANCH  11  12
ENDBRANCH   9  11
TORSDOF 3
ENDMDL