MODEL 2
REMARK VINA RESULT: -5.622951580      2.091      3.376
REMARK  2 active torsions:
REMARK  status: ('A' for Active; 'I' for Inactive)
REMARK    1  A    between atoms: C3_4  and  N1_5
REMARK    2  A    between atoms: C9_15  and  N3_16
ROOT
HETATM    1  C1  UNL     1      19.279   1.757  -0.559  1.00  0.00     0.057 C
HETATM    2  C2  UNL     1      20.195   1.406  -1.709  1.00  0.00    -0.012 A
HETATM    3  S1  UNL     1      20.327   2.160  -3.229  1.00  0.00    -0.075 SA
HETATM    4  C3  UNL     1      21.548   1.188  -3.912  1.00  0.00     0.096 A
HETATM    5  C10 UNL     1      21.825   0.284  -2.919  1.00  0.00     0.085 A
HETATM    6  C11 UNL     1      22.856  -0.755  -3.128  1.00  0.00     0.103 C
HETATM    7  N4  UNL     1      23.671  -1.575  -3.305  1.00  0.00    -0.191 NA
HETATM    8  C12 UNL     1      21.117   0.403  -1.773  1.00  0.00    -0.026 A
HETATM    9  C13 UNL     1      21.298  -0.517  -0.570  1.00  0.00     0.051 C
ENDROOT
BRANCH   4  10
HETATM   10  N1  UNL     1      22.162   1.270  -5.224  1.00  0.00    -0.353 N
HETATM   11  C4  UNL     1      21.651   0.708  -6.242  1.00  0.00     0.047 C
HETATM   12  C5  UNL     1      20.412  -0.105  -6.359  1.00  0.00     0.094 C
HETATM   13  C9  UNL     1      22.260   0.778  -7.595  1.00  0.00     0.426 C
HETATM   14  C6  UNL     1      20.334  -0.509  -7.807  1.00  0.00     0.126 C
HETATM   15  C7  UNL     1      19.276   0.271  -8.537  1.00  0.00     0.046 C
HETATM   16  C8  UNL     1      20.071  -2.005  -7.856  1.00  0.00     0.046 C
HETATM   17  N2  UNL     1      21.618  -0.250  -8.390  1.00  0.00    -0.033 N
ATOM     18  H22 UNL     1      22.188  -1.091  -8.486  1.00  0.00     0.281 HD
ATOM     19  H21 UNL     1      21.564  -0.011  -9.380  1.00  0.00     0.281 HD
ATOM     20  H1  UNL     1      23.030   1.795  -5.331  1.00  0.00     0.166 HD
BRANCH  13  21
HETATM   21  N3  UNL     1      22.175   2.077  -8.190  1.00  0.00    -0.045 N
ATOM     22  H33 UNL     1      22.455   2.044  -9.171  1.00  0.00     0.277 HD
ATOM     23  H32 UNL     1      21.201   2.361  -8.303  1.00  0.00     0.277 HD
ATOM     24  H31 UNL     1      22.702   2.790  -7.686  1.00  0.00     0.277 HD
ENDBRANCH  13  21
ENDBRANCH   4  10
TORSDOF 2
ENDMDL