MODEL 3
REMARK VINA RESULT: -5.015037467      1.411      1.518
REMARK  3 active torsions:
REMARK  status: ('A' for Active; 'I' for Inactive)
REMARK    1  A    between atoms: N1_2  and  C3_4
REMARK    2  A    between atoms: C3_4  and  O1_5
REMARK    3  A    between atoms: C3_4  and  C4_7
ROOT
HETATM    1  C4  UNL     1      27.718  -4.265   3.755  1.00  0.00     0.173 C
HETATM    2  C5  UNL     1      27.366  -4.176   2.219  1.00  0.00     0.035 C
HETATM    3  C6  UNL     1      26.582  -2.998   1.820  1.00  0.00     0.002 C
HETATM    4  C7  UNL     1      26.987  -2.521   0.419  1.00  0.00     0.000 C
HETATM    5  C8  UNL     1      26.774  -1.063   0.313  1.00  0.00     0.000 C
HETATM    6  C9  UNL     1      27.831  -0.207   0.912  1.00  0.00     0.000 C
HETATM    7  C10 UNL     1      29.180  -0.795   1.051  1.00  0.00     0.000 C
HETATM    8  C11 UNL     1      29.991  -0.048   2.116  1.00  0.00     0.000 C
HETATM    9  C12 UNL     1      30.519  -0.996   3.170  1.00  0.00     0.005 C
HETATM   10  C13 UNL     1      29.389  -1.107   4.182  1.00  0.00     0.046 C
HETATM   11  C14 UNL     1      29.637  -2.168   5.197  1.00  0.00     0.079 C
HETATM   12  N2  UNL     1      29.734  -3.495   4.779  1.00  0.00    -0.319 N
ATOM     13  H2  UNL     1      30.284  -4.142   5.344  1.00  0.00     0.185 HD
HETATM   14  N3  UNL     1      29.139  -3.961   3.670  1.00  0.00    -0.325 N
ATOM     15  H3  UNL     1      29.661  -4.097   2.805  1.00  0.00     0.181 HD
ENDROOT
BRANCH   1  16
HETATM   16  C3  UNL     1      27.417  -5.676   4.070  1.00  0.00     0.137 C
BRANCH  16  17
HETATM   17  N1  UNL     1      26.635  -6.618   3.437  1.00  0.00    -0.372 N
HETATM   18  C1  UNL     1      27.055  -7.641   2.560  1.00  0.00     0.150 C
HETATM   19  C2  UNL     1      25.179  -6.463   3.621  1.00  0.00     0.150 C
ENDBRANCH  16  17
BRANCH  16  20
HETATM   20  O1  UNL     1      28.012  -6.103   5.180  1.00  0.00    -0.348 OA
ATOM     21  H1  UNL     1      28.957  -6.016   5.182  1.00  0.00     0.219 HD
ENDBRANCH  16  20
ENDBRANCH   1  16
TORSDOF 3
ENDMDL