MODEL 3
REMARK VINA RESULT: -5.162283711      2.539      3.931
REMARK  2 active torsions:
REMARK  status: ('A' for Active; 'I' for Inactive)
REMARK    1  A    between atoms: C13_16  and  O1_17
REMARK    2  A    between atoms: O1_17  and  O2_18
ROOT
HETATM    1  N1  UNL     1      28.305  -6.309   1.035  1.00  0.00    -0.195 NA
HETATM    2  C1  UNL     1      28.293  -5.657   1.992  1.00  0.00     0.084 C
HETATM    3  C2  UNL     1      28.297  -4.835   3.229  1.00  0.00     0.193 C
HETATM    4  N2  UNL     1      29.266  -3.829   3.058  1.00  0.00    -0.401 N
ATOM      5  H2  UNL     1      29.965  -3.878   2.318  1.00  0.00     0.154 HD
HETATM    6  C3  UNL     1      29.218  -2.723   3.988  1.00  0.00     0.080 C
HETATM    7  C4  UNL     1      30.202  -1.703   3.582  1.00  0.00     0.025 C
HETATM    8  C5  UNL     1      29.758  -0.481   2.882  1.00  0.00     0.002 C
HETATM    9  C6  UNL     1      29.458  -0.641   1.407  1.00  0.00     0.000 C
HETATM   10  C7  UNL     1      28.155   0.011   1.001  1.00  0.00     0.000 C
HETATM   11  C8  UNL     1      27.184  -0.889   0.325  1.00  0.00     0.000 C
HETATM   12  C9  UNL     1      26.135  -1.494   1.270  1.00  0.00     0.001 C
HETATM   13  C10 UNL     1      26.514  -2.913   1.628  1.00  0.00     0.008 C
HETATM   14  C11 UNL     1      26.100  -3.425   2.932  1.00  0.00     0.034 A
HETATM   15  C12 UNL     1      26.923  -4.465   3.603  1.00  0.00     0.067 A
HETATM   16  C13 UNL     1      26.716  -3.141   4.183  1.00  0.00     0.109 A
HETATM   17  C14 UNL     1      27.854  -2.236   4.322  1.00  0.00     0.067 C
ENDROOT
BRANCH  16  18
HETATM   18  O1  UNL     1      25.857  -3.161   5.325  1.00  0.00    -0.231 OA
BRANCH  18  19
HETATM   19  O2  UNL     1      25.216  -4.280   5.401  1.00  0.00    -0.250 OA
ATOM     20  H2  UNL     1      24.526  -4.232   6.052  1.00  0.00     0.253 HD
ENDBRANCH  18  19
ENDBRANCH  16  18
TORSDOF 2
ENDMDL