MODEL 2
REMARK VINA RESULT: -6.517570456      1.526      3.152
REMARK  2 active torsions:
REMARK  status: ('A' for Active; 'I' for Inactive)
REMARK    1  A    between atoms: C2_2  and  C3_3
REMARK    2  A    between atoms: C13_18  and  O2_19
ROOT
HETATM    1  C3  UNL     1      21.092  -0.428  -3.355  1.00  0.00     0.012 C
HETATM    2  C4  UNL     1      21.604   0.639  -4.278  1.00  0.00     0.011 C
HETATM    3  C5  UNL     1      21.273   0.546  -5.554  1.00  0.00     0.059 C
HETATM    4  O1  UNL     1      21.731   1.513  -6.420  1.00  0.00    -0.301 OA
HETATM    5  C6  UNL     1      21.947   1.177  -7.746  1.00  0.00     0.136 C
HETATM    6  N1  UNL     1      22.307   2.078  -8.591  1.00  0.00    -0.382 N
ATOM      7  H11 UNL     1      22.465   1.830  -9.567  1.00  0.00     0.158 HD
ATOM      8  H12 UNL     1      22.441   3.049  -8.309  1.00  0.00     0.158 HD
HETATM    9  C7  UNL     1      21.754  -0.220  -8.151  1.00  0.00     0.175 C
HETATM   10  C8  UNL     1      21.635  -0.351  -9.602  1.00  0.00     0.073 C
HETATM   11  N2  UNL     1      21.552  -0.466 -10.749  1.00  0.00    -0.196 NA
HETATM   12  C9  UNL     1      20.415  -0.654  -7.538  1.00  0.00    -0.012 C
HETATM   13  C10 UNL     1      19.374   0.299  -8.142  1.00  0.00     0.017 C
HETATM   14  C11 UNL     1      20.130  -2.027  -8.074  1.00  0.00     0.017 C
HETATM   15  C12 UNL     1      20.434  -0.565  -6.052  1.00  0.00     0.081 C
HETATM   16  C13 UNL     1      20.733  -1.884  -5.382  1.00  0.00     0.130 C
HETATM   17  C14 UNL     1      21.342  -1.742  -4.010  1.00  0.00     0.041 C
ENDROOT
BRANCH  16  18
HETATM   18  O2  UNL     1      19.530  -2.609  -5.215  1.00  0.00    -0.395 OA
ATOM     19  H2  UNL     1      19.683  -3.345  -4.633  1.00  0.00     0.210 HD
ENDBRANCH  16  18
BRANCH   1  20
HETATM   20  C2  UNL     1      21.919  -0.361  -2.096  1.00  0.00     0.004 C
HETATM   21  C1  UNL     1      22.889  -1.502  -1.982  1.00  0.00     0.006 C
ENDBRANCH   1  20
TORSDOF 2
ENDMDL