MODEL 5
REMARK VINA RESULT: -5.441387651      9.795     12.219
REMARK  3 active torsions:
REMARK  status: ('A' for Active; 'I' for Inactive)
REMARK    1  A    between atoms: O1_1  and  C1_3
REMARK    2  A    between atoms: C1_3  and  C2_4
REMARK    3  A    between atoms: C2_4  and  O2_5
ROOT
HETATM    1  C2  UNL     1      26.287  -6.270   3.405  1.00  0.00     0.216 C
HETATM    2  C3  UNL     1      26.806  -5.697   4.717  1.00  0.00     0.077 C
HETATM    3  C4  UNL     1      26.775  -4.178   4.500  1.00  0.00     0.047 C
HETATM    4  C5  UNL     1      27.760  -3.902   3.380  1.00  0.00     0.096 C
HETATM    5  C6  UNL     1      27.236  -2.935   2.480  1.00  0.00     0.041 C
HETATM    6  C7  UNL     1      26.446  -2.715   1.313  1.00  0.00     0.003 C
HETATM    7  C8  UNL     1      26.783  -1.244   0.901  1.00  0.00     0.000 C
HETATM    8  C9  UNL     1      28.211  -0.903   0.749  1.00  0.00     0.000 C
HETATM    9  C10 UNL     1      28.881  -0.068   1.810  1.00  0.00     0.000 C
HETATM   10  C11 UNL     1      30.294  -0.379   2.158  1.00  0.00     0.000 C
HETATM   11  C12 UNL     1      30.517  -1.172   3.488  1.00  0.00     0.000 C
HETATM   12  C13 UNL     1      29.690  -2.330   3.342  1.00  0.00     0.003 C
HETATM   13  C14 UNL     1      29.072  -3.384   4.076  1.00  0.00     0.041 C
HETATM   14  O3  UNL     1      28.106  -5.104   2.762  1.00  0.00    -0.227 OA
HETATM   15  O4  UNL     1      27.097  -5.815   2.399  1.00  0.00    -0.198 OA
ENDROOT
BRANCH   1  16
HETATM   16  C1  UNL     1      26.266  -7.772   3.541  1.00  0.00     0.235 C
BRANCH  16  17
HETATM   17  O1  UNL     1      27.298  -8.335   2.800  1.00  0.00    -0.395 OA
ATOM     18  H1  UNL     1      28.066  -8.454   3.346  1.00  0.00     0.209 HD
ENDBRANCH  16  17
ENDBRANCH   1  16
BRANCH   1  19
HETATM   19  O2  UNL     1      25.007  -5.758   3.206  1.00  0.00    -0.362 OA
ATOM     20  H2  UNL     1      24.478  -5.830   3.991  1.00  0.00     0.213 HD
ENDBRANCH   1  19
TORSDOF 3
ENDMDL