MODEL 2
REMARK VINA RESULT: -6.406759413      2.156      3.482
REMARK  2 active torsions:
REMARK  status: ('A' for Active; 'I' for Inactive)
REMARK    1  A    between atoms: C2_2  and  C5_5
REMARK    2  A    between atoms: C7_8  and  C8_9
ROOT
HETATM    1  C5  UNL     1      20.571   0.668  -3.420  1.00  0.00     0.024 A
HETATM    2  C6  UNL     1      21.311  -0.379  -2.923  1.00  0.00     0.077 A
HETATM    3  S1  UNL     1      22.013  -1.000  -4.355  1.00  0.00    -0.085 SA
HETATM    4  C7  UNL     1      21.331   0.093  -5.464  1.00  0.00     0.074 A
HETATM    5  N3  UNL     1      20.603   0.880  -4.699  1.00  0.00    -0.354 N
ATOM      6  H3  UNL     1      20.070   1.648  -5.109  1.00  0.00     0.166 HD
ENDROOT
BRANCH   4   7
HETATM    7  C8  UNL     1      21.491   0.149  -6.967  1.00  0.00     0.141 C
HETATM    8  C9  UNL     1      20.609  -0.920  -7.505  1.00  0.00     0.042 C
HETATM    9  C10 UNL     1      20.507  -1.066  -8.977  1.00  0.00     0.084 C
HETATM   10  S2  UNL     1      21.384   0.288  -9.853  1.00  0.00    -0.095 SA
HETATM   11  C11 UNL     1      21.114   1.710  -8.807  1.00  0.00     0.134 C
HETATM   12  N1  UNL     1      20.833   2.844  -9.309  1.00  0.00    -0.380 N
HETATM   13  N2  UNL     1      21.231   1.490  -7.426  1.00  0.00    -0.360 N
ATOM     14  H12 UNL     1      20.747   3.004 -10.312  1.00  0.00     0.158 HD
ATOM     15  H11 UNL     1      20.678   3.656  -8.711  1.00  0.00     0.158 HD
ATOM     16  H2  UNL     1      21.136   2.261  -6.764  1.00  0.00     0.162 HD
ENDBRANCH   4   7
BRANCH   1  17
HETATM   17  C2  UNL     1      19.746   1.526  -2.476  1.00  0.00    -0.008 C
HETATM   18  C1  UNL     1      18.284   1.255  -2.632  1.00  0.00     0.021 C
HETATM   19  C3  UNL     1      20.196   1.328  -1.049  1.00  0.00     0.021 C
HETATM   20  C4  UNL     1      19.998   2.977  -2.825  1.00  0.00     0.021 C
ENDBRANCH   1  17
TORSDOF 2
ENDMDL