MODEL 5
REMARK VINA RESULT: -4.895850002      3.004      5.772
REMARK  1 active torsions:
REMARK  status: ('A' for Active; 'I' for Inactive)
REMARK    1  A    between atoms: N1_2  and  N2_4
ROOT
HETATM    1  N2  UNL     1      25.322  -1.597  -1.338  1.00  0.00    -0.304 N
ATOM      2  H2  UNL     1      25.986  -0.982  -1.808  1.00  0.00     0.186 HD
HETATM    3  C2  UNL     1      25.524  -1.968  -0.120  1.00  0.00     0.093 C
HETATM    4  C3  UNL     1      24.527  -2.858   0.497  1.00  0.00     0.064 C
HETATM    5  C4  UNL     1      23.469  -2.078   1.225  1.00  0.00     0.006 C
HETATM    6  C5  UNL     1      23.796  -1.851   2.679  1.00  0.00     0.000 C
HETATM    7  C6  UNL     1      23.821  -3.106   3.496  1.00  0.00     0.000 C
HETATM    8  C7  UNL     1      24.835  -2.930   4.621  1.00  0.00     0.000 C
HETATM    9  C8  UNL     1      25.084  -4.165   5.399  1.00  0.00     0.000 C
HETATM   10  C9  UNL     1      26.253  -4.984   4.976  1.00  0.00     0.000 C
HETATM   11  C10 UNL     1      26.572  -4.941   3.530  1.00  0.00     0.000 C
HETATM   12  C11 UNL     1      27.968  -5.307   3.169  1.00  0.00     0.002 C
HETATM   13  C12 UNL     1      28.695  -4.094   2.590  1.00  0.00     0.020 C
HETATM   14  C13 UNL     1      27.993  -3.591   1.350  1.00  0.00     0.123 C
HETATM   15  N3  UNL     1      27.468  -2.245   1.531  1.00  0.00    -0.356 N
ATOM     16  H3  UNL     1      27.671  -1.793   2.423  1.00  0.00     0.162 HD
HETATM   17  C14 UNL     1      26.722  -1.508   0.620  1.00  0.00     0.265 C
HETATM   18  O1  UNL     1      27.061  -0.320   0.366  1.00  0.00    -0.266 OA
ENDROOT
BRANCH   1  19
HETATM   19  N1  UNL     1      24.189  -2.046  -2.001  1.00  0.00    -0.341 N
HETATM   20  C1  UNL     1      23.367  -1.226  -2.869  1.00  0.00     0.167 C
ATOM     21  H1  UNL     1      23.915  -3.019  -1.869  1.00  0.00     0.179 HD
ENDBRANCH   1  19
TORSDOF 1
ENDMDL