MODEL 3
REMARK VINA RESULT: -5.816297916      2.243      3.430
REMARK  5 active torsions:
REMARK  status: ('A' for Active; 'I' for Inactive)
REMARK    1  A    between atoms: C2_2  and  C5_5
REMARK    2  A    between atoms: C5_5  and  N1_7
REMARK    3  A    between atoms: N1_7  and  C6_9
REMARK    4  A    between atoms: C6_9  and  C7_13
REMARK    5  A    between atoms: N4_17  and  C9_18
ROOT
HETATM    1  C6  UNL     1      21.187  -0.972  -6.560  1.00  0.00     0.112 C
HETATM    2  N2  UNL     1      20.405  -1.886  -7.019  1.00  0.00    -0.385 N
ATOM      3  H21 UNL     1      19.727  -2.299  -6.378  1.00  0.00     0.157 HD
ATOM      4  H22 UNL     1      20.460  -2.188  -7.992  1.00  0.00     0.157 HD
ENDROOT
BRANCH   1   5
HETATM    5  N1  UNL     1      22.122  -0.402  -7.445  1.00  0.00    -0.336 N
ATOM      6  H1  UNL     1      22.956  -0.928  -7.704  1.00  0.00     0.168 HD
BRANCH   5   7
HETATM    7  C5  UNL     1      21.919   0.896  -7.983  1.00  0.00     0.086 C
HETATM    8  S1  UNL     1      22.747   2.188  -7.395  1.00  0.00    -0.065 SA
BRANCH   7   9
HETATM    9  C2  UNL     1      20.967   1.157  -9.085  1.00  0.00     0.002 C
HETATM   10  C1  UNL     1      19.572   0.930  -8.510  1.00  0.00     0.022 C
HETATM   11  C3  UNL     1      21.109   2.587  -9.527  1.00  0.00     0.022 C
HETATM   12  C4  UNL     1      21.212   0.263 -10.278  1.00  0.00     0.022 C
ENDBRANCH   7   9
ENDBRANCH   5   7
ENDBRANCH   1   5
BRANCH   1  13
HETATM   13  C7  UNL     1      21.107  -0.537  -5.157  1.00  0.00     0.041 A
HETATM   14  C8  UNL     1      21.797  -1.037  -4.076  1.00  0.00     0.124 A
HETATM   15  N3  UNL     1      21.402  -0.341  -3.020  1.00  0.00    -0.308 N
HETATM   16  N4  UNL     1      20.516   0.572  -3.311  1.00  0.00    -0.294 N
ATOM     17  H3  UNL     1      21.754  -0.502  -2.076  1.00  0.00     0.186 HD
HETATM   18  C13 UNL     1      20.310   0.471  -4.655  1.00  0.00     0.127 A
BRANCH  16  19
HETATM   19  C9  UNL     1      19.851   1.527  -2.429  1.00  0.00     0.042 C
HETATM   20  C10 UNL     1      20.321   1.209  -1.025  1.00  0.00     0.039 C
HETATM   21  C11 UNL     1      20.126   2.946  -2.816  1.00  0.00     0.039 C
HETATM   22  C12 UNL     1      18.346   1.301  -2.534  1.00  0.00     0.039 C
ENDBRANCH  16  19
ENDBRANCH   1  13
TORSDOF 5
ENDMDL