MODEL 1
REMARK VINA RESULT: -6.627110594      0.000      0.000
REMARK  6 active torsions:
REMARK  status: ('A' for Active; 'I' for Inactive)
REMARK    1  A    between atoms: O1_2  and  N1_3
REMARK       I    between atoms: N1_3  and  C2_5
REMARK       I    between atoms: C2_5  and  N2_7
REMARK    2  A    between atoms: N2_7  and  S1_9
REMARK    3  A    between atoms: S1_9  and  C3_10
REMARK    4  A    between atoms: C3_10  and  N4_14
REMARK    5  A    between atoms: N4_14  and  O3_15
REMARK    6  A    between atoms: N4_14  and  C4_17
ROOT
HETATM    1  C3  UNL     1      21.936   2.154  -8.074  1.00  0.00     0.186 C
HETATM    2  N3  UNL     1      22.973   2.462  -7.412  1.00  0.00    -0.377 N
ATOM      3  H31 UNL     1      23.163   2.194  -6.446  1.00  0.00     0.158 HD
ATOM      4  H32 UNL     1      23.681   3.028  -7.881  1.00  0.00     0.158 HD
ENDROOT
BRANCH   1   5
HETATM    5  S1  UNL     1      21.603   2.623  -9.764  1.00  0.00     0.028 SA
BRANCH   5   6
HETATM    6  N2  UNL     1      21.208   1.150 -10.630  1.00  0.00    -0.274 N
HETATM    7  C2  UNL     1      22.011   0.001 -10.436  1.00  0.00     0.350 C
HETATM    8  N1  UNL     1      21.738  -1.226 -11.118  1.00  0.00    -0.216 N
HETATM    9  O2  UNL     1      22.999   0.020  -9.649  1.00  0.00    -0.244 OA
ATOM     10  H1  UNL     1      20.948  -1.277 -11.760  1.00  0.00     0.199 HD
ATOM     11  H2  UNL     1      20.411   1.122 -11.265  1.00  0.00     0.179 HD
BRANCH   8  12
HETATM   12  O1  UNL     1      22.497  -2.303 -10.930  1.00  0.00    -0.281 OA
HETATM   13  C1  UNL     1      21.869  -3.162 -10.025  1.00  0.00     0.237 C
ENDBRANCH   8  12
ENDBRANCH   5   6
ENDBRANCH   1   5
BRANCH   1  14
HETATM   14  N4  UNL     1      20.936   1.354  -7.410  1.00  0.00    -0.200 N
BRANCH  14  15
HETATM   15  O3  UNL     1      19.852   1.081  -8.153  1.00  0.00    -0.280 OA
ATOM     16  H3  UNL     1      19.660   0.156  -8.250  1.00  0.00     0.245 HD
ENDBRANCH  14  15
BRANCH  14  17
HETATM   17  C4  UNL     1      21.126   0.917  -6.080  1.00  0.00     0.071 A
HETATM   18  C5  UNL     1      20.486   1.627  -5.052  1.00  0.00     0.033 A
HETATM   19  C6  UNL     1      20.623   1.238  -3.747  1.00  0.00     0.003 A
HETATM   20  C7  UNL     1      21.387   0.143  -3.434  1.00  0.00     0.007 A
HETATM   21  C8  UNL     1      22.027  -0.569  -4.460  1.00  0.00    -0.054 A
HETATM   22  C9  UNL     1      22.830  -1.752  -4.078  1.00  0.00     0.049 C
HETATM   23  C10 UNL     1      21.892  -0.177  -5.780  1.00  0.00    -0.027 A
HETATM   24  C11 UNL     1      22.592  -0.942  -6.821  1.00  0.00     0.051 C
ENDBRANCH  14  17
ENDBRANCH   1  14
TORSDOF 6
ENDMDL