MODEL 2
REMARK VINA RESULT: -5.415587109      2.571      4.092
REMARK  4 active torsions:
REMARK  status: ('A' for Active; 'I' for Inactive)
REMARK    1  A    between atoms: C2_2  and  C4_4
REMARK    2  A    between atoms: C9_13  and  O1_14
REMARK    3  A    between atoms: C10_16  and  O2_17
REMARK    4  A    between atoms: N2_19  and  O3_20
ROOT
HETATM    1  C4  UNL     1      15.988   2.739   0.398  1.00  0.00     0.096 C
HETATM    2  C5  UNL     1      14.920   1.806   0.430  1.00  0.00    -0.095 C
HETATM    3  S1  UNL     1      13.575   0.803   0.689  1.00  0.00    -0.021 SA
HETATM    4  C6  UNL     1      13.097   1.096   2.456  1.00  0.00     0.151 C
HETATM    5  S2  UNL     1      12.354  -0.159   3.054  1.00  0.00    -0.052 SA
HETATM    6  N1  UNL     1      13.266   2.208   3.351  1.00  0.00    -0.325 N
ATOM      7  H1  UNL     1      12.748   2.129   4.225  1.00  0.00     0.169 HD
HETATM    8  C7  UNL     1      14.042   3.415   3.226  1.00  0.00     0.146 A
HETATM    9  C8  UNL     1      15.232   3.779   2.610  1.00  0.00     0.027 A
HETATM   10  C9  UNL     1      15.357   5.149   2.910  1.00  0.00     0.129 A
HETATM   11  C10 UNL     1      14.290   5.575   3.670  1.00  0.00     0.203 A
HETATM   12  N2  UNL     1      13.517   4.493   3.839  1.00  0.00    -0.182 N
HETATM   13  C11 UNL     1      16.284   3.169   1.836  1.00  0.00     0.067 C
ENDROOT
BRANCH   1  14
HETATM   14  C2  UNL     1      17.288   2.099  -0.065  1.00  0.00    -0.077 C
HETATM   15  C1  UNL     1      18.408   2.253   0.619  1.00  0.00     0.015 C
HETATM   16  C3  UNL     1      17.324   1.279  -1.302  1.00  0.00     0.044 C
ENDBRANCH   1  14
BRANCH  10  17
HETATM   17  O1  UNL     1      16.415   5.915   2.484  1.00  0.00    -0.356 OA
ATOM     18  H1  UNL     1      16.981   6.392   3.079  1.00  0.00     0.218 HD
ENDBRANCH  10  17
BRANCH  12  19
HETATM   19  O3  UNL     1      12.343   4.506   4.553  1.00  0.00    -0.279 OA
ATOM     20  H3  UNL     1      11.631   5.122   4.426  1.00  0.00     0.245 HD
ENDBRANCH  12  19
BRANCH  11  21
HETATM   21  O2  UNL     1      14.079   6.866   4.152  1.00  0.00    -0.342 OA
ATOM     22  H2  UNL     1      13.792   7.102   5.027  1.00  0.00     0.219 HD
ENDBRANCH  11  21
TORSDOF 4
ENDMDL