MODEL 4
REMARK VINA RESULT: -5.013147560      3.824      6.602
REMARK  2 active torsions:
REMARK  status: ('A' for Active; 'I' for Inactive)
REMARK    1  A    between atoms: N1_1  and  C1_4
REMARK    2  A    between atoms: C5_15  and  C6_16
ROOT
HETATM    1  C1  UNL     1      21.439   2.408  -9.945  1.00  0.00     0.144 A
HETATM    2  N2  UNL     1      21.584   1.178 -10.450  1.00  0.00    -0.326 N
ATOM      3  H2  UNL     1      21.471   1.109 -11.462  1.00  0.00     0.169 HD
HETATM    4  C2  UNL     1      21.852   0.044  -9.837  1.00  0.00     0.131 A
HETATM    5  S1  UNL     1      21.968  -1.323 -10.771  1.00  0.00    -0.058 SA
HETATM    6  C3  UNL     1      22.050  -0.133  -8.468  1.00  0.00     0.091 A
HETATM    7  N3  UNL     1      22.326  -1.223  -7.725  1.00  0.00    -0.338 N
ATOM      8  H3  UNL     1      22.438  -2.166  -8.098  1.00  0.00     0.167 HD
HETATM    9  C4  UNL     1      22.433  -0.892  -6.394  1.00  0.00     0.125 A
HETATM   10  N4  UNL     1      22.676  -1.519  -5.280  1.00  0.00    -0.330 N
ATOM     11  H4  UNL     1      22.843  -2.525  -5.291  1.00  0.00     0.168 HD
HETATM   12  C5  UNL     1      22.706  -0.866  -4.139  1.00  0.00     0.154 A
HETATM   13  S2  UNL     1      22.372   0.745  -4.646  1.00  0.00    -0.060 SA
HETATM   14  C7  UNL     1      22.214   0.457  -6.320  1.00  0.00     0.070 A
HETATM   15  C8  UNL     1      21.980   0.920  -7.595  1.00  0.00     0.059 A
HETATM   16  S3  UNL     1      21.643   2.451  -8.228  1.00  0.00    -0.051 SA
ENDROOT
BRANCH   1  17
HETATM   17  N1  UNL     1      21.178   3.447 -10.646  1.00  0.00    -0.380 N
ATOM     18  H12 UNL     1      20.318   3.554 -11.184  1.00  0.00     0.158 HD
ATOM     19  H11 UNL     1      21.798   4.253 -10.729  1.00  0.00     0.158 HD
ENDBRANCH   1  17
BRANCH  12  20
HETATM   20  C6  UNL     1      22.960  -1.382  -2.778  1.00  0.00     0.234 C
HETATM   21  O1  UNL     1      22.529  -0.771  -1.788  1.00  0.00    -0.642 OA
HETATM   22  O2  UNL     1      23.676  -2.538  -2.634  1.00  0.00    -0.642 OA
ENDBRANCH  12  20
TORSDOF 2
ENDMDL