MODEL 3
REMARK VINA RESULT: -6.026735786      8.091     10.950
REMARK  4 active torsions:
REMARK  status: ('A' for Active; 'I' for Inactive)
REMARK    1  A    between atoms: N1_2  and  C2_4
REMARK    2  A    between atoms: C3_6  and  N2_7
REMARK    3  A    between atoms: C4_12  and  C5_13
REMARK    4  A    between atoms: N4_20  and  N5_21
ROOT
HETATM    1  C5  UNL     1      27.584  -1.765   1.103  1.00  0.00     0.103 C
HETATM    2  C6  UNL     1      26.603  -1.921   0.002  1.00  0.00    -0.017 A
HETATM    3  C7  UNL     1      25.612  -2.809  -0.292  1.00  0.00     0.010 A
HETATM    4  C8  UNL     1      24.817  -2.689  -1.414  1.00  0.00     0.001 A
HETATM    5  C9  UNL     1      25.005  -1.643  -2.289  1.00  0.00     0.002 A
HETATM    6  C10 UNL     1      25.998  -0.739  -2.010  1.00  0.00     0.032 A
HETATM    7  C11 UNL     1      26.805  -0.859  -0.872  1.00  0.00     0.058 A
HETATM    8  N4  UNL     1      27.873  -0.077  -0.412  1.00  0.00    -0.288 N
HETATM    9  C12 UNL     1      28.538  -0.721   0.732  1.00  0.00     0.059 C
HETATM   10  C13 UNL     1      28.529   0.414   1.800  1.00  0.00     0.041 C
HETATM   11  C14 UNL     1      29.949  -1.085   0.464  1.00  0.00     0.041 C
ENDROOT
BRANCH   1  12
HETATM   12  C4  UNL     1      28.142  -3.085   1.578  1.00  0.00     0.056 A
HETATM   13  C2  UNL     1      28.073  -3.465   2.879  1.00  0.00     0.096 A
HETATM   14  S1  UNL     1      28.806  -5.045   2.818  1.00  0.00    -0.035 SA
HETATM   15  C3  UNL     1      29.140  -5.100   1.163  1.00  0.00     0.144 A
HETATM   16  N3  UNL     1      28.691  -3.936   0.718  1.00  0.00    -0.337 N
ATOM     17  H3  UNL     1      28.766  -3.695  -0.271  1.00  0.00     0.168 HD
BRANCH  13  18
HETATM   18  N1  UNL     1      27.583  -2.835   4.071  1.00  0.00    -0.387 N
HETATM   19  C1  UNL     1      28.431  -1.906   4.787  1.00  0.00     0.147 C
ATOM     20  H1  UNL     1      26.644  -3.041   4.410  1.00  0.00     0.159 HD
ENDBRANCH  13  18
BRANCH  15  21
HETATM   21  N2  UNL     1      29.710  -6.060   0.461  1.00  0.00    -0.380 N
ATOM     22  H22 UNL     1      30.414  -6.726   0.779  1.00  0.00     0.158 HD
ATOM     23  H21 UNL     1      29.561  -6.319  -0.514  1.00  0.00     0.158 HD
ENDBRANCH  15  21
ENDBRANCH   1  12
BRANCH   8  24
HETATM   24  N5  UNL     1      28.294   1.157  -0.930  1.00  0.00    -0.342 N
ATOM     25  H52 UNL     1      28.305   2.010  -0.371  1.00  0.00     0.177 HD
ATOM     26  H51 UNL     1      28.623   1.340  -1.878  1.00  0.00     0.177 HD
ENDBRANCH   8  24
TORSDOF 4
ENDMDL