MODEL 3
REMARK VINA RESULT: -5.276803833     12.819     15.044
REMARK  4 active torsions:
REMARK  status: ('A' for Active; 'I' for Inactive)
REMARK    1  A    between atoms: C2_2  and  C4_4
REMARK    2  A    between atoms: C9_14  and  C10_15
REMARK    3  A    between atoms: C11_18  and  O1_19
REMARK    4  A    between atoms: C13_23  and  O2_24
ROOT
HETATM    1  C4  UNL     1      25.870  -2.145   1.397  1.00  0.00     0.001 A
HETATM    2  S1  UNL     1      25.823  -0.996   0.039  1.00  0.00    -0.074 SA
HETATM    3  C5  UNL     1      27.417  -0.263   0.375  1.00  0.00     0.098 A
HETATM    4  N1  UNL     1      28.314   0.671  -0.043  1.00  0.00    -0.293 N
ATOM      5  H1  UNL     1      28.194   1.287  -0.848  1.00  0.00     0.187 HD
HETATM    6  N2  UNL     1      29.362   0.656   0.755  1.00  0.00    -0.304 N
ATOM      7  H2  UNL     1      30.188   1.249   0.680  1.00  0.00     0.186 HD
HETATM    8  C6  UNL     1      29.140  -0.288   1.688  1.00  0.00     0.032 A
HETATM    9  C7  UNL     1      30.146  -0.566   2.759  1.00  0.00     0.070 C
HETATM   10  C8  UNL     1      27.907  -0.889   1.468  1.00  0.00     0.016 A
HETATM   11  C9  UNL     1      27.121  -1.930   2.094  1.00  0.00     0.118 A
ENDROOT
BRANCH  11  12
HETATM   12  C10 UNL     1      27.889  -3.224   2.003  1.00  0.00     0.077 A
HETATM   13  N3  UNL     1      28.419  -3.781   0.906  1.00  0.00    -0.321 N
HETATM   14  C11 UNL     1      29.021  -4.932   1.225  1.00  0.00     0.225 A
ATOM     15  H3  UNL     1      28.372  -3.386  -0.033  1.00  0.00     0.169 HD
HETATM   16  N4  UNL     1      28.869  -5.106   2.543  1.00  0.00    -0.296 N
HETATM   17  C12 UNL     1      29.383  -6.257   3.318  1.00  0.00     0.162 C
HETATM   18  C13 UNL     1      28.182  -4.075   3.032  1.00  0.00     0.169 A
BRANCH  14  19
HETATM   19  O1  UNL     1      29.696  -5.813   0.356  1.00  0.00    -0.332 OA
ATOM     20  H1  UNL     1      30.318  -6.490   0.593  1.00  0.00     0.221 HD
ENDBRANCH  14  19
BRANCH  18  21
HETATM   21  O2  UNL     1      27.822  -3.902   4.382  1.00  0.00    -0.344 OA
ATOM     22  H2  UNL     1      27.519  -3.096   4.783  1.00  0.00     0.219 HD
ENDBRANCH  18  21
ENDBRANCH  11  12
BRANCH   1  23
HETATM   23  C2  UNL     1      24.934  -3.007   1.684  1.00  0.00    -0.073 C
HETATM   24  C1  UNL     1      24.613  -3.377   3.085  1.00  0.00     0.044 C
HETATM   25  C3  UNL     1      24.136  -3.664   0.616  1.00  0.00     0.044 C
ENDBRANCH   1  23
TORSDOF 4
ENDMDL