MODEL 3
REMARK VINA RESULT: -5.643560313     12.060     13.575
REMARK  2 active torsions:
REMARK  status: ('A' for Active; 'I' for Inactive)
REMARK    1  A    between atoms: O1_1  and  C1_3
REMARK    2  A    between atoms: C5_8  and  C6_9
ROOT
HETATM    1  C1  UNL     1      12.896   3.469   3.859  1.00  0.00     0.194 A
HETATM    2  O2  UNL     1      12.726   2.239   4.258  1.00  0.00    -0.298 OA
HETATM    3  C2  UNL     1      13.440   1.409   3.558  1.00  0.00     0.175 A
HETATM    4  C3  UNL     1      14.132   2.129   2.631  1.00  0.00     0.070 A
HETATM    5  C4  UNL     1      13.795   3.454   2.810  1.00  0.00     0.058 A
HETATM    6  C5  UNL     1      14.345   4.537   1.995  1.00  0.00     0.183 A
HETATM    7  N3  UNL     1      15.251   4.081   0.982  1.00  0.00    -0.352 N
ATOM      8  H3  UNL     1      15.666   4.775   0.361  1.00  0.00     0.163 HD
HETATM    9  C8  UNL     1      15.600   2.731   0.796  1.00  0.00     0.173 A
HETATM   10  S3  UNL     1      16.655   2.319  -0.381  1.00  0.00    -0.041 SA
HETATM   11  N4  UNL     1      15.055   1.725   1.608  1.00  0.00    -0.331 N
ATOM     12  H4  UNL     1      15.304   0.745   1.476  1.00  0.00     0.168 HD
ENDROOT
BRANCH   6  13
HETATM   13  C6  UNL     1      14.974   5.600   2.842  1.00  0.00     0.096 A
HETATM   14  N1  UNL     1      14.489   6.683   3.420  1.00  0.00    -0.294 N
HETATM   15  N2  UNL     1      15.245   7.441   4.101  1.00  0.00    -0.284 N
ATOM     16  H1  UNL     1      13.500   6.913   3.318  1.00  0.00     0.187 HD
HETATM   17  C7  UNL     1      16.536   7.127   4.224  1.00  0.00     0.159 A
ATOM     18  H2  UNL     1      14.872   8.279   4.547  1.00  0.00     0.188 HD
HETATM   19  S1  UNL     1      17.715   7.937   5.046  1.00  0.00    -0.051 SA
HETATM   20  S2  UNL     1      16.613   5.670   3.302  1.00  0.00    -0.042 SA
ENDBRANCH   6  13
BRANCH   1  21
HETATM   21  O1  UNL     1      12.270   4.585   4.409  1.00  0.00    -0.340 OA
ATOM     22  H1  UNL     1      12.679   5.207   4.999  1.00  0.00     0.220 HD
ENDBRANCH   1  21
TORSDOF 2
ENDMDL