MODEL 3
REMARK VINA RESULT: -6.068349817      1.868      2.769
REMARK  2 active torsions:
REMARK  status: ('A' for Active; 'I' for Inactive)
REMARK    1  A    between atoms: N1_3  and  C3_5
REMARK    2  A    between atoms: C8_15  and  N4_16
ROOT
HETATM    1  C1  UNL     1      18.251   7.065   4.380  1.00  0.00     0.037 C
HETATM    2  C2  UNL     1      17.172   6.584   4.105  1.00  0.00     0.001 C
HETATM    3  N1  UNL     1      15.939   6.036   3.796  1.00  0.00    -0.296 N
ATOM      4  H1  UNL     1      15.095   6.489   4.146  1.00  0.00     0.178 HD
ENDROOT
BRANCH   3   5
HETATM    5  C3  UNL     1      15.813   4.854   3.001  1.00  0.00     0.157 A
HETATM    6  N2  UNL     1      16.708   4.283   2.204  1.00  0.00    -0.334 N
HETATM    7  C4  UNL     1      16.413   3.202   1.555  1.00  0.00     0.066 A
ATOM      8  H2  UNL     1      17.633   4.698   2.103  1.00  0.00     0.168 HD
HETATM    9  C5  UNL     1      15.155   2.682   1.726  1.00  0.00     0.058 A
HETATM   10  C14 UNL     1      17.513   2.671   0.699  1.00  0.00     0.018 A
HETATM   11  S1  UNL     1      14.461   3.799   2.830  1.00  0.00    -0.049 SA
HETATM   12  C6  UNL     1      14.381   1.537   1.241  1.00  0.00     0.023 C
HETATM   13  C7  UNL     1      13.196   1.335   2.114  1.00  0.00     0.069 C
HETATM   14  N3  UNL     1      14.519   0.734   0.274  1.00  0.00    -0.349 N
HETATM   15  C8  UNL     1      15.342   0.408  -0.822  1.00  0.00     0.387 C
ATOM     16  H3  UNL     1      13.743   0.073   0.296  1.00  0.00     0.163 HD
HETATM   17  N5  UNL     1      16.708   0.773  -0.800  1.00  0.00    -0.346 N
HETATM   18  C9  UNL     1      17.646   1.702  -0.246  1.00  0.00     0.043 A
ATOM     19  H5  UNL     1      17.216   0.134  -1.410  1.00  0.00     0.163 HD
HETATM   20  C10 UNL     1      18.859   1.473  -0.855  1.00  0.00     0.030 A
HETATM   21  C11 UNL     1      19.975   2.227  -0.522  1.00  0.00     0.002 A
HETATM   22  C12 UNL     1      19.854   3.209   0.430  1.00  0.00     0.001 A
HETATM   23  C13 UNL     1      18.633   3.420   1.027  1.00  0.00     0.016 A
BRANCH  15  24
HETATM   24  N4  UNL     1      15.291  -1.063  -0.951  1.00  0.00    -0.041 N
ATOM     25  H43 UNL     1      15.554  -1.399  -1.878  1.00  0.00     0.279 HD
ATOM     26  H42 UNL     1      16.026  -1.542  -0.432  1.00  0.00     0.279 HD
ATOM     27  H41 UNL     1      14.349  -1.339  -0.672  1.00  0.00     0.279 HD
ENDBRANCH  15  24
ENDBRANCH   3   5
TORSDOF 2
ENDMDL