MODEL 2
REMARK VINA RESULT: -5.422114611      2.766      3.909
REMARK  4 active torsions:
REMARK  status: ('A' for Active; 'I' for Inactive)
REMARK    1  A    between atoms: C2_2  and  O1_5
REMARK    2  A    between atoms: O1_5  and  C5_6
REMARK    3  A    between atoms: C5_6  and  C6_8
REMARK    4  A    between atoms: C9_11  and  N1_12
ROOT
HETATM    1  C6  UNL     1      21.714  -0.250  -5.756  1.00  0.00     0.083 A
HETATM    2  C7  UNL     1      22.717  -1.109  -5.391  1.00  0.00     0.043 A
HETATM    3  C8  UNL     1      22.977  -1.237  -4.071  1.00  0.00     0.043 A
HETATM    4  C9  UNL     1      23.953  -2.053  -3.475  1.00  0.00     0.114 A
HETATM    5  N2  UNL     1      24.089  -2.072  -2.159  1.00  0.00    -0.319 N
ATOM      6  H2  UNL     1      24.809  -2.679  -1.769  1.00  0.00     0.170 HD
HETATM    7  C10 UNL     1      23.355  -1.358  -1.306  1.00  0.00     0.178 A
HETATM    8  S1  UNL     1      23.599  -1.450   0.302  1.00  0.00    -0.040 SA
HETATM    9  N3  UNL     1      22.414  -0.568  -1.853  1.00  0.00    -0.327 N
ATOM     10  H3  UNL     1      21.826  -0.002  -1.242  1.00  0.00     0.169 HD
HETATM   11  C11 UNL     1      22.224  -0.504  -3.208  1.00  0.00     0.091 A
HETATM   12  S2  UNL     1      21.170   0.348  -4.241  1.00  0.00    -0.065 SA
ENDROOT
BRANCH   1  13
HETATM   13  C5  UNL     1      21.226   0.078  -7.097  1.00  0.00     0.301 C
HETATM   14  O2  UNL     1      20.945   1.255  -7.365  1.00  0.00    -0.259 OA
BRANCH  13  15
HETATM   15  O1  UNL     1      21.093  -0.916  -8.010  1.00  0.00    -0.307 OA
BRANCH  15  16
HETATM   16  C2  UNL     1      21.917  -1.090  -9.145  1.00  0.00     0.060 C
HETATM   17  C1  UNL     1      21.403  -0.404 -10.366  1.00  0.00     0.046 C
HETATM   18  C3  UNL     1      21.921  -2.596  -9.436  1.00  0.00     0.046 C
HETATM   19  C4  UNL     1      23.356  -0.712  -8.876  1.00  0.00     0.046 C
ENDBRANCH  15  16
ENDBRANCH  13  15
ENDBRANCH   1  13
BRANCH   4  20
HETATM   20  N1  UNL     1      24.742  -2.805  -4.172  1.00  0.00    -0.385 N
ATOM     21  H12 UNL     1      24.413  -3.120  -5.085  1.00  0.00     0.157 HD
ATOM     22  H11 UNL     1      25.664  -3.084  -3.837  1.00  0.00     0.157 HD
ENDBRANCH   4  20
TORSDOF 4
ENDMDL