MODEL 1
REMARK VINA RESULT: -6.478649920      0.000      0.000
REMARK  2 active torsions:
REMARK  status: ('A' for Active; 'I' for Inactive)
REMARK    1  A    between atoms: N2_7  and  O1_9
REMARK    2  A    between atoms: C5_14  and  C6_15
ROOT
HETATM    1  N1  UNL     1      17.123   3.932   3.623  1.00  0.00    -0.400 N
ATOM      2  H11 UNL     1      17.014   2.927   3.478  1.00  0.00     0.156 HD
ATOM      3  H12 UNL     1      17.899   4.209   4.224  1.00  0.00     0.156 HD
HETATM    4  C1  UNL     1      16.352   4.790   3.080  1.00  0.00     0.037 C
HETATM    5  C2  UNL     1      16.511   6.262   3.293  1.00  0.00     0.115 C
HETATM    6  C3  UNL     1      15.143   6.807   3.473  1.00  0.00     0.033 C
HETATM    7  N2  UNL     1      14.845   7.586   4.446  1.00  0.00    -0.275 N
ATOM      8  H2  UNL     1      13.889   7.933   4.526  1.00  0.00     0.193 HD
HETATM    9  C4  UNL     1      14.101   6.427   2.487  1.00  0.00     0.174 C
HETATM   10  N3  UNL     1      14.653   5.499   1.487  1.00  0.00    -0.381 N
ATOM     11  H3  UNL     1      14.637   5.621   0.474  1.00  0.00     0.160 HD
HETATM   12  C5  UNL     1      15.223   4.386   2.206  1.00  0.00     0.079 C
ENDROOT
BRANCH  12  13
HETATM   13  C6  UNL     1      15.341   3.158   1.447  1.00  0.00     0.077 A
HETATM   14  N4  UNL     1      16.300   3.042   0.456  1.00  0.00    -0.330 N
HETATM   15  C7  UNL     1      16.437   1.994  -0.333  1.00  0.00     0.177 A
ATOM     16  H4  UNL     1      16.946   3.821   0.328  1.00  0.00     0.168 HD
HETATM   17  S1  UNL     1      17.647   2.065  -1.447  1.00  0.00    -0.040 SA
HETATM   18  N5  UNL     1      15.635   0.928  -0.232  1.00  0.00    -0.318 N
HETATM   19  C8  UNL     1      14.674   0.943   0.701  1.00  0.00     0.119 A
ATOM     20  H5  UNL     1      15.752   0.124  -0.849  1.00  0.00     0.170 HD
HETATM   21  N6  UNL     1      13.839  -0.105   0.879  1.00  0.00    -0.351 N
HETATM   22  C12 UNL     1      14.529   2.047   1.534  1.00  0.00     0.037 A
HETATM   23  C9  UNL     1      12.882  -0.125   1.823  1.00  0.00     0.090 A
ATOM     24  H6  UNL     1      13.940  -0.917   0.270  1.00  0.00     0.166 HD
HETATM   25  C10 UNL     1      12.696   0.943   2.680  1.00  0.00     0.018 A
HETATM   26  C11 UNL     1      13.561   2.026   2.493  1.00  0.00     0.019 A
ENDBRANCH  12  13
BRANCH   7  27
HETATM   27  O1  UNL     1      15.773   7.968   5.385  1.00  0.00    -0.290 OA
ATOM     28  H1  UNL     1      15.836   8.863   5.696  1.00  0.00     0.244 HD
ENDBRANCH   7  27
TORSDOF 2
ENDMDL