MODEL 2
REMARK VINA RESULT: -5.803409299      2.996      5.419
REMARK  2 active torsions:
REMARK  status: ('A' for Active; 'I' for Inactive)
REMARK    1  A    between atoms: N1_1  and  C1_4
REMARK    2  A    between atoms: N4_14  and  C6_15
ROOT
HETATM    1  C1  UNL     1      20.266   2.754   2.824  1.00  0.00     0.145 A
HETATM    2  N2  UNL     1      19.880   3.704   3.656  1.00  0.00    -0.323 N
ATOM      3  H2  UNL     1      20.587   4.026   4.317  1.00  0.00     0.169 HD
HETATM    4  C2  UNL     1      18.671   4.311   3.748  1.00  0.00     0.116 A
HETATM    5  N3  UNL     1      18.576   5.187   4.634  1.00  0.00    -0.385 N
ATOM      6  H31 UNL     1      17.666   5.644   4.703  1.00  0.00     0.157 HD
ATOM      7  H32 UNL     1      19.378   5.403   5.225  1.00  0.00     0.157 HD
HETATM    8  C3  UNL     1      17.588   4.019   2.949  1.00  0.00     0.070 A
HETATM    9  C4  UNL     1      16.277   4.546   2.912  1.00  0.00     0.074 A
HETATM   10  C5  UNL     1      15.564   3.925   1.933  1.00  0.00     0.058 A
HETATM   11  N4  UNL     1      16.384   3.011   1.337  1.00  0.00    -0.336 N
HETATM   12  C11 UNL     1      17.579   3.077   1.948  1.00  0.00     0.096 A
HETATM   13  S1  UNL     1      19.046   2.245   1.733  1.00  0.00    -0.035 SA
HETATM   14  C12 UNL     1      14.164   4.252   1.645  1.00  0.00     0.179 A
HETATM   15  N5  UNL     1      13.613   5.278   2.480  1.00  0.00    -0.380 N
ATOM     16  H5  UNL     1      12.642   5.546   2.324  1.00  0.00     0.160 HD
HETATM   17  C13 UNL     1      14.251   5.877   3.402  1.00  0.00     0.176 A
HETATM   18  N6  UNL     1      15.629   5.550   3.681  1.00  0.00    -0.350 N
ATOM     19  H6  UNL     1      16.134   6.036   4.423  1.00  0.00     0.166 HD
ENDROOT
BRANCH  11  20
HETATM   20  C6  UNL     1      16.028   2.160   0.276  1.00  0.00     0.091 C
HETATM   21  C7  UNL     1      16.947   2.224  -0.924  1.00  0.00     0.026 C
HETATM   22  C8  UNL     1      16.801   0.876  -1.605  1.00  0.00     0.002 C
HETATM   23  C9  UNL     1      15.740   0.124  -0.812  1.00  0.00     0.002 C
HETATM   24  C10 UNL     1      16.027   0.689   0.591  1.00  0.00     0.026 C
ENDBRANCH  11  20
BRANCH   1  25
HETATM   25  N1  UNL     1      21.455   2.255   2.836  1.00  0.00    -0.380 N
ATOM     26  H12 UNL     1      22.232   2.654   2.311  1.00  0.00     0.158 HD
ATOM     27  H11 UNL     1      21.699   1.423   3.373  1.00  0.00     0.158 HD
ENDBRANCH   1  25
TORSDOF 2
ENDMDL