MODEL 5
REMARK VINA RESULT: -5.642154905      1.916      5.548
REMARK  2 active torsions:
REMARK  status: ('A' for Active; 'I' for Inactive)
REMARK    1  A    between atoms: N1_1  and  C1_4
REMARK    2  A    between atoms: N4_13  and  C5_14
ROOT
HETATM    1  C1  UNL     1      21.307  42.219  37.114  1.00  0.00     0.678 A
HETATM    2  N2  UNL     1      22.174  43.004  36.452  1.00  0.00    -0.179 N
ATOM      3  H2  UNL     1      22.113  43.101  35.438  1.00  0.00     0.185 HD
HETATM    4  C2  UNL     1      23.129  43.663  37.145  1.00  0.00     0.147 A
HETATM    5  S1  UNL     1      24.183  44.613  36.372  1.00  0.00    -0.057 SA
HETATM    6  C3  UNL     1      23.220  43.537  38.507  1.00  0.00     0.117 A
HETATM    7  N3  UNL     1      24.073  44.088  39.387  1.00  0.00    -0.347 N
ATOM      8  H3  UNL     1      24.839  44.728  39.178  1.00  0.00     0.167 HD
HETATM    9  C4  UNL     1      23.714  43.627  40.600  1.00  0.00     0.185 A
HETATM   10  N4  UNL     1      22.651  42.798  40.484  1.00  0.00    -0.321 N
HETATM   11  C10 UNL     1      22.324  42.726  39.187  1.00  0.00     0.154 A
HETATM   12  N5  UNL     1      21.401  42.099  38.449  1.00  0.00    -0.174 N
ATOM     13  H5  UNL     1      20.730  41.496  38.926  1.00  0.00     0.186 HD
ENDROOT
BRANCH  10  14
HETATM   14  C5  UNL     1      21.955  42.091  41.542  1.00  0.00     0.101 C
HETATM   15  C6  UNL     1      22.313  40.645  41.442  1.00  0.00     0.027 C
HETATM   16  C7  UNL     1      21.476  39.756  42.313  1.00  0.00     0.012 C
HETATM   17  C8  UNL     1      21.613  40.036  43.777  1.00  0.00     0.074 C
HETATM   18  S2  UNL     1      21.487  41.805  44.163  1.00  0.00    -0.167 SA
HETATM   19  C9  UNL     1      22.446  42.683  42.869  1.00  0.00     0.099 C
ENDBRANCH  10  14
BRANCH   1  20
HETATM   20  N1  UNL     1      20.371  41.562  36.510  1.00  0.00    -0.234 N
ATOM     21  H12 UNL     1      20.369  41.561  35.490  1.00  0.00     0.174 HD
ATOM     22  H11 UNL     1      19.647  41.056  37.018  1.00  0.00     0.174 HD
ENDBRANCH   1  20
TORSDOF 2
ENDMDL