MODEL 4
REMARK VINA RESULT: -4.639616351      6.673      9.841
REMARK  3 active torsions:
REMARK  status: ('A' for Active; 'I' for Inactive)
REMARK    1  A    between atoms: C6_7  and  N1_8
REMARK    2  A    between atoms: N3_15  and  N4_16
REMARK    3  A    between atoms: N4_16  and  C8_18
ROOT
HETATM    1  C1  UNL     1      18.778  39.908  35.788  1.00  0.00     0.056 C
HETATM    2  C2  UNL     1      18.129  40.737  34.725  1.00  0.00    -0.018 A
HETATM    3  C3  UNL     1      17.074  40.401  33.925  1.00  0.00     0.047 A
HETATM    4  C4  UNL     1      16.646  41.322  33.017  1.00  0.00     0.080 A
HETATM    5  C5  UNL     1      17.329  42.500  33.007  1.00  0.00     0.077 A
HETATM    6  S1  UNL     1      18.512  42.306  34.220  1.00  0.00    -0.089 SA
HETATM    7  C6  UNL     1      17.018  43.560  32.146  1.00  0.00     0.120 A
HETATM    8  N2  UNL     1      16.011  43.432  31.288  1.00  0.00    -0.317 N
ATOM      9  H2  UNL     1      15.761  44.185  30.649  1.00  0.00     0.170 HD
HETATM   10  C7  UNL     1      15.322  42.243  31.295  1.00  0.00     0.199 A
HETATM   11  S2  UNL     1      14.126  42.239  30.140  1.00  0.00    -0.039 SA
HETATM   12  N3  UNL     1      15.585  41.222  32.092  1.00  0.00    -0.232 N
ENDROOT
BRANCH  12  13
HETATM   13  N4  UNL     1      14.899  40.038  32.043  1.00  0.00    -0.318 N
ATOM     14  H4  UNL     1      14.102  40.083  32.679  1.00  0.00     0.181 HD
BRANCH  13  15
HETATM   15  C8  UNL     1      14.922  38.783  31.411  1.00  0.00     0.035 C
HETATM   16  C9  UNL     1      16.193  38.436  30.682  1.00  0.00     0.039 C
HETATM   17  C10 UNL     1      13.903  38.940  30.176  1.00  0.00     0.039 C
HETATM   18  C11 UNL     1      14.379  37.600  32.121  1.00  0.00     0.039 C
ENDBRANCH  13  15
ENDBRANCH  12  13
BRANCH   7  19
HETATM   19  N1  UNL     1      17.754  44.605  32.258  1.00  0.00    -0.384 N
ATOM     20  H12 UNL     1      18.667  44.722  31.819  1.00  0.00     0.157 HD
ATOM     21  H11 UNL     1      17.372  45.356  32.833  1.00  0.00     0.157 HD
ENDBRANCH   7  19
TORSDOF 3
ENDMDL