MODEL 3
REMARK VINA RESULT: -6.715576723      3.143      5.256
REMARK  4 active torsions:
REMARK  status: ('A' for Active; 'I' for Inactive)
REMARK    1  A    between atoms: C4_4  and  N1_5
REMARK       I    between atoms: N1_5  and  C5_7
REMARK       I    between atoms: C5_7  and  N3_12
REMARK    2  A    between atoms: N2_8  and  O1_10
REMARK       I    between atoms: N3_12  and  C6_14
REMARK    3  A    between atoms: C6_14  and  O3_16
REMARK    4  A    between atoms: O3_16  and  C7_17
ROOT
HETATM    1  N1  UNL     1      20.304  41.362  47.938  1.00  0.00    -0.190 N
ATOM      2  H1  UNL     1      20.689  40.482  48.281  1.00  0.00     0.184 HD
HETATM    3  C5  UNL     1      21.066  42.155  47.039  1.00  0.00     0.706 C
HETATM    4  N2  UNL     1      20.746  42.235  45.796  1.00  0.00    -0.098 N
ATOM      5  H2  UNL     1      19.931  41.715  45.474  1.00  0.00     0.213 HD
HETATM    6  N3  UNL     1      22.189  42.864  47.510  1.00  0.00    -0.133 N
ATOM      7  H3  UNL     1      22.742  43.435  46.870  1.00  0.00     0.189 HD
HETATM    8  C6  UNL     1      22.551  42.779  48.898  1.00  0.00     0.379 C
HETATM    9  O2  UNL     1      21.888  42.083  49.705  1.00  0.00    -0.238 OA
ENDROOT
BRANCH   1  10
HETATM   10  C4  UNL     1      19.012  41.772  48.366  1.00  0.00     0.052 A
HETATM   11  C3  UNL     1      18.573  43.050  48.133  1.00  0.00     0.054 A
HETATM   12  C2  UNL     1      17.329  43.430  48.551  1.00  0.00     0.007 A
HETATM   13  C1  UNL     1      16.885  44.817  48.283  1.00  0.00     0.068 C
HETATM   14  N4  UNL     1      16.510  42.555  49.200  1.00  0.00    -0.369 N
HETATM   15  C12 UNL     1      16.939  41.297  49.432  1.00  0.00     0.090 A
ATOM     16  H4  UNL     1      15.583  42.848  49.509  1.00  0.00     0.165 HD
HETATM   17  C11 UNL     1      18.177  40.884  49.028  1.00  0.00     0.047 A
ENDBRANCH   1  10
BRANCH   4  18
HETATM   18  O1  UNL     1      21.439  42.981  44.882  1.00  0.00    -0.276 OA
ATOM     19  H1  UNL     1      22.017  42.607  44.228  1.00  0.00     0.245 HD
ENDBRANCH   4  18
BRANCH   8  20
HETATM   20  O3  UNL     1      23.638  43.446  49.427  1.00  0.00    -0.293 OA
BRANCH  20  21
HETATM   21  C7  UNL     1      24.935  43.059  49.144  1.00  0.00     0.061 C
HETATM   22  C8  UNL     1      25.862  44.089  49.810  1.00  0.00     0.046 C
HETATM   23  C9  UNL     1      25.272  43.145  47.651  1.00  0.00     0.046 C
HETATM   24  C10 UNL     1      25.337  41.712  49.626  1.00  0.00     0.046 C
ENDBRANCH  20  21
ENDBRANCH   8  20
TORSDOF 4
ENDMDL