MODEL 2
REMARK VINA RESULT: -6.927276901      2.311      3.697
REMARK  4 active torsions:
REMARK  status: ('A' for Active; 'I' for Inactive)
REMARK    1  A    between atoms: N1_1  and  N2_4
REMARK    2  A    between atoms: N2_4  and  N3_5
REMARK    3  A    between atoms: N3_5  and  C1_7
REMARK    4  A    between atoms: C2_10  and  N5_11
ROOT
HETATM    1  C1  UNL     1      21.414  41.862  44.267  1.00  0.00     0.162 A
HETATM    2  N4  UNL     1      21.988  42.024  45.470  1.00  0.00    -0.174 N
ATOM      3  H4  UNL     1      21.898  41.253  46.131  1.00  0.00     0.186 HD
HETATM    4  C2  UNL     1      22.660  43.087  45.879  1.00  0.00     0.678 A
HETATM    5  N6  UNL     1      22.767  44.092  44.986  1.00  0.00    -0.185 N
ATOM      6  H6  UNL     1      23.274  44.940  45.238  1.00  0.00     0.185 HD
HETATM    7  C3  UNL     1      22.204  43.982  43.750  1.00  0.00     0.105 A
HETATM    8  S1  UNL     1      22.166  45.051  42.432  1.00  0.00    -0.075 SA
HETATM    9  C4  UNL     1      21.259  44.091  41.337  1.00  0.00    -0.008 A
HETATM   10  C5  UNL     1      21.018  42.952  42.062  1.00  0.00    -0.026 A
HETATM   11  C6  UNL     1      21.508  42.891  43.317  1.00  0.00     0.052 A
HETATM   12  C7  UNL     1      20.249  41.731  41.611  1.00  0.00     0.068 C
HETATM   13  C8  UNL     1      19.694  41.869  40.221  1.00  0.00     0.237 C
HETATM   14  N7  UNL     1      20.725  41.692  39.237  1.00  0.00    -0.075 N
ATOM     15  H71 UNL     1      20.632  40.811  38.731  1.00  0.00     0.277 HD
ATOM     16  H72 UNL     1      21.638  41.518  39.658  1.00  0.00     0.277 HD
HETATM   17  C9  UNL     1      20.733  42.855  38.343  1.00  0.00     0.232 C
HETATM   18  C10 UNL     1      21.687  43.839  38.960  1.00  0.00     0.032 C
HETATM   19  C11 UNL     1      20.962  44.648  39.974  1.00  0.00     0.048 C
ENDROOT
BRANCH   1  20
HETATM   20  N3  UNL     1      20.752  40.630  44.072  1.00  0.00    -0.198 N
ATOM     21  H3  UNL     1      19.793  40.547  44.409  1.00  0.00     0.205 HD
BRANCH  20  22
HETATM   22  N2  UNL     1      21.254  39.651  43.522  1.00  0.00    -0.242 NA
BRANCH  22  23
HETATM   23  N1  UNL     1      21.916  38.949  42.753  1.00  0.00    -0.260 N
ATOM     24  H12 UNL     1      22.781  39.002  43.292  1.00  0.00     0.193 HD
ATOM     25  H11 UNL     1      22.182  38.364  41.962  1.00  0.00     0.193 HD
ENDBRANCH  22  23
ENDBRANCH  20  22
ENDBRANCH   1  20
BRANCH   4  26
HETATM   26  N5  UNL     1      23.162  43.114  47.059  1.00  0.00    -0.234 N
ATOM     27  H52 UNL     1      23.588  42.310  47.520  1.00  0.00     0.174 HD
ATOM     28  H51 UNL     1      23.149  43.979  47.599  1.00  0.00     0.174 HD
ENDBRANCH   4  26
TORSDOF 4
ENDMDL