MODEL 5
REMARK VINA RESULT: -5.334061777      2.605      3.430
REMARK  2 active torsions:
REMARK  status: ('A' for Active; 'I' for Inactive)
REMARK    1  A    between atoms: O1_1  and  C1_3
REMARK    2  A    between atoms: C2_4  and  N1_5
ROOT
HETATM    1  C1  UNL     1      22.854  42.094  38.848  1.00  0.00     0.127 A
HETATM    2  C2  UNL     1      23.371  43.316  38.540  1.00  0.00     0.108 A
HETATM    3  S1  UNL     1      23.367  44.144  40.006  1.00  0.00    -0.071 SA
HETATM    4  C8  UNL     1      22.695  42.902  41.016  1.00  0.00     0.019 A
HETATM    5  C9  UNL     1      22.501  41.878  40.139  1.00  0.00     0.083 A
HETATM    6  N2  UNL     1      21.933  40.658  40.689  1.00  0.00    -0.338 N
ATOM      7  H2  UNL     1      21.766  39.856  40.082  1.00  0.00     0.167 HD
HETATM    8  C10 UNL     1      21.616  40.582  42.056  1.00  0.00     0.128 A
HETATM    9  N3  UNL     1      21.080  39.547  42.781  1.00  0.00    -0.285 N
ATOM     10  H3  UNL     1      20.820  38.633  42.413  1.00  0.00     0.188 HD
HETATM   11  N4  UNL     1      20.960  39.933  44.020  1.00  0.00    -0.310 N
ATOM     12  H4  UNL     1      20.586  39.348  44.767  1.00  0.00     0.186 HD
HETATM   13  C11 UNL     1      21.388  41.187  44.191  1.00  0.00     0.118 A
HETATM   14  C12 UNL     1      21.813  41.610  42.927  1.00  0.00     0.009 A
HETATM   15  C13 UNL     1      22.376  42.879  42.482  1.00  0.00     0.092 A
ENDROOT
BRANCH   2  16
HETATM   16  N1  UNL     1      23.823  43.817  37.275  1.00  0.00    -0.373 N
HETATM   17  C3  UNL     1      24.730  44.913  37.141  1.00  0.00     0.123 C
HETATM   18  C4  UNL     1      24.773  45.314  35.683  1.00  0.00     0.020 C
HETATM   19  C5  UNL     1      25.206  44.165  34.790  1.00  0.00     0.003 C
HETATM   20  C6  UNL     1      24.536  42.866  35.161  1.00  0.00     0.020 C
HETATM   21  C7  UNL     1      23.338  43.182  36.043  1.00  0.00     0.123 C
ENDBRANCH   2  16
BRANCH   1  22
HETATM   22  O1  UNL     1      22.714  41.124  37.806  1.00  0.00    -0.356 OA
ATOM     23  H1  UNL     1      21.840  40.872  37.532  1.00  0.00     0.218 HD
ENDBRANCH   1  22
TORSDOF 2
ENDMDL