MODEL 1
REMARK VINA RESULT: -6.699513842      0.000      0.000
REMARK  3 active torsions:
REMARK  status: ('A' for Active; 'I' for Inactive)
REMARK    1  A    between atoms: O1_2  and  C2_3
REMARK    2  A    between atoms: C2_3  and  C3_5
REMARK    3  A    between atoms: C5_7  and  C6_8
ROOT
HETATM    1  C3  UNL     1      21.190  43.302  40.770  1.00  0.00     0.085 C
HETATM    2  C4  UNL     1      20.116  44.396  40.866  1.00  0.00     0.030 C
HETATM    3  C5  UNL     1      22.029  43.395  39.551  1.00  0.00     0.068 C
HETATM    4  C10 UNL     1      23.452  43.711  39.862  1.00  0.00     0.060 C
HETATM    5  N1  UNL     1      24.131  44.596  39.235  1.00  0.00    -0.399 N
ATOM      6  H11 UNL     1      25.105  44.812  39.448  1.00  0.00     0.156 HD
ATOM      7  H12 UNL     1      23.676  45.087  38.466  1.00  0.00     0.156 HD
HETATM    8  C11 UNL     1      24.113  42.998  40.980  1.00  0.00     0.159 C
HETATM    9  N2  UNL     1      25.329  42.702  40.958  1.00  0.00    -0.378 N
ATOM     10  H21 UNL     1      25.785  42.211  41.728  1.00  0.00     0.158 HD
ATOM     11  H22 UNL     1      25.984  42.905  40.203  1.00  0.00     0.158 HD
HETATM   12  O3  UNL     1      23.202  42.715  42.030  1.00  0.00    -0.323 OA
HETATM   13  C12 UNL     1      22.082  43.617  42.003  1.00  0.00     0.079 C
HETATM   14  C13 UNL     1      22.478  45.051  42.061  1.00  0.00     0.047 C
HETATM   15  C14 UNL     1      21.248  43.310  43.240  1.00  0.00     0.047 C
ENDROOT
BRANCH   1  16
HETATM   16  C2  UNL     1      20.575  41.997  41.075  1.00  0.00     0.270 C
HETATM   17  O2  UNL     1      19.341  41.881  41.302  1.00  0.00    -0.264 OA
BRANCH  16  18
HETATM   18  O1  UNL     1      21.299  40.817  41.135  1.00  0.00    -0.326 OA
HETATM   19  C1  UNL     1      21.259  39.953  42.256  1.00  0.00     0.213 C
ENDBRANCH  16  18
ENDBRANCH   1  16
BRANCH   3  20
HETATM   20  C6  UNL     1      21.981  42.343  38.529  1.00  0.00    -0.041 C
HETATM   21  C7  UNL     1      22.441  42.959  37.195  1.00  0.00     0.015 C
HETATM   22  C8  UNL     1      20.597  41.814  38.217  1.00  0.00     0.015 C
HETATM   23  C9  UNL     1      22.877  41.151  38.745  1.00  0.00     0.015 C
ENDBRANCH   3  20
TORSDOF 3
ENDMDL