MODEL 2
REMARK VINA RESULT: -6.898934609      1.558      3.496
REMARK  3 active torsions:
REMARK  status: ('A' for Active; 'I' for Inactive)
REMARK    1  A    between atoms: C8_8  and  N1_9
REMARK    2  A    between atoms: C9_10  and  N2_11
REMARK    3  A    between atoms: C11_16  and  N3_17
ROOT
HETATM    1  N1  UNL     1      21.983  41.760  41.532  1.00  0.00    -0.307 N
HETATM    2  C9  UNL     1      21.930  40.712  42.333  1.00  0.00     0.147 A
HETATM    3  S1  UNL     1      22.107  41.368  43.895  1.00  0.00    -0.047 SA
HETATM    4  C10 UNL     1      22.247  43.018  43.441  1.00  0.00     0.096 A
HETATM    5  C11 UNL     1      22.421  44.219  44.153  1.00  0.00     0.121 A
HETATM    6  N4  UNL     1      22.500  45.399  43.508  1.00  0.00    -0.338 N
ATOM      7  H4  UNL     1      22.626  46.286  43.995  1.00  0.00     0.168 HD
HETATM    8  C12 UNL     1      22.397  45.312  42.162  1.00  0.00     0.183 A
HETATM    9  N5  UNL     1      22.234  44.202  41.476  1.00  0.00    -0.337 N
ATOM     10  H5  UNL     1      22.169  44.259  40.459  1.00  0.00     0.168 HD
HETATM   11  C13 UNL     1      22.147  42.959  42.081  1.00  0.00     0.132 A
ENDROOT
BRANCH   1  12
HETATM   12  C8  UNL     1      21.863  41.587  40.065  1.00  0.00     0.097 C
HETATM   13  C2  UNL     1      20.651  42.303  39.541  1.00  0.00     0.005 C
HETATM   14  C1  UNL     1      19.451  41.951  40.425  1.00  0.00     0.012 C
HETATM   15  C3  UNL     1      20.312  41.883  38.156  1.00  0.00     0.006 C
HETATM   16  C4  UNL     1      21.456  41.270  37.389  1.00  0.00     0.000 C
HETATM   17  C5  UNL     1      22.575  42.225  37.119  1.00  0.00     0.000 C
HETATM   18  C6  UNL     1      23.015  43.006  38.324  1.00  0.00     0.002 C
HETATM   19  C7  UNL     1      23.146  42.089  39.489  1.00  0.00     0.026 C
ENDBRANCH   1  12
BRANCH   2  20
HETATM   20  N2  UNL     1      21.774  39.443  42.005  1.00  0.00    -0.379 N
ATOM     21  H22 UNL     1      22.164  38.625  42.475  1.00  0.00     0.158 HD
ATOM     22  H21 UNL     1      21.241  39.055  41.227  1.00  0.00     0.158 HD
ENDBRANCH   2  20
BRANCH   5  23
HETATM   23  N3  UNL     1      22.501  44.134  45.427  1.00  0.00    -0.384 N
ATOM     24  H32 UNL     1      21.690  43.922  46.008  1.00  0.00     0.157 HD
ATOM     25  H31 UNL     1      23.418  44.290  45.847  1.00  0.00     0.157 HD
ENDBRANCH   5  23
TORSDOF 3
ENDMDL