MODEL 3
REMARK VINA RESULT: -6.283611978      2.677      3.893
REMARK  3 active torsions:
REMARK  status: ('A' for Active; 'I' for Inactive)
REMARK    1  A    between atoms: C4_6  and  C5_7
REMARK    2  A    between atoms: C8_10  and  O2_11
REMARK    3  A    between atoms: C15_21  and  O3_22
ROOT
HETATM    1  N1  UNL     1      18.105  40.978  35.051  1.00  0.00    -0.191 NA
HETATM    2  C1  UNL     1      19.057  41.385  35.519  1.00  0.00     0.104 C
HETATM    3  C2  UNL     1      20.265  41.861  36.113  1.00  0.00     0.102 A
HETATM    4  C3  UNL     1      21.277  42.636  35.516  1.00  0.00     0.167 A
HETATM    5  O1  UNL     1      22.185  42.852  36.418  1.00  0.00    -0.320 OA
HETATM    6  C4  UNL     1      21.913  42.322  37.561  1.00  0.00     0.109 A
HETATM    7  C15 UNL     1      20.699  41.673  37.423  1.00  0.00     0.120 A
ENDROOT
BRANCH   7   8
HETATM    8  O3  UNL     1      19.990  40.953  38.380  1.00  0.00    -0.357 OA
ATOM      9  H3  UNL     1      19.068  41.087  38.568  1.00  0.00     0.218 HD
ENDBRANCH   7   8
BRANCH   6  10
HETATM   10  C5  UNL     1      22.762  42.387  38.759  1.00  0.00     0.138 C
HETATM   11  C6  UNL     1      23.112  41.014  39.287  1.00  0.00     0.034 C
HETATM   12  C7  UNL     1      23.957  41.078  40.511  1.00  0.00     0.036 C
HETATM   13  C8  UNL     1      23.597  42.174  41.458  1.00  0.00     0.146 C
HETATM   14  C9  UNL     1      22.451  43.021  41.092  1.00  0.00     0.052 C
HETATM   15  C10 UNL     1      22.695  44.518  41.340  1.00  0.00     0.033 C
HETATM   16  C14 UNL     1      21.319  42.708  42.098  1.00  0.00     0.033 C
HETATM   17  N2  UNL     1      21.861  42.909  39.823  1.00  0.00    -0.400 N
HETATM   18  C11 UNL     1      21.340  45.189  41.621  1.00  0.00     0.002 C
HETATM   19  C12 UNL     1      21.103  44.996  43.125  1.00  0.00     0.000 C
HETATM   20  C13 UNL     1      21.506  43.533  43.364  1.00  0.00     0.002 C
ATOM     21  H2  UNL     1      20.890  43.166  39.644  1.00  0.00     0.154 HD
BRANCH  13  22
HETATM   22  O2  UNL     1      24.684  42.999  41.769  1.00  0.00    -0.393 OA
ATOM     23  H2  UNL     1      24.766  43.162  42.701  1.00  0.00     0.210 HD
ENDBRANCH  13  22
ENDBRANCH   6  10
TORSDOF 3
ENDMDL