MODEL 3
REMARK VINA RESULT: -5.213351693      8.020      9.293
REMARK  2 active torsions:
REMARK  status: ('A' for Active; 'I' for Inactive)
REMARK    1  A    between atoms: N1_4  and  N2_6
REMARK    2  A    between atoms: C4_7  and  N3_8
ROOT
HETATM    1  N2  UNL     1      26.342  42.941  31.977  1.00  0.00    -0.075 N
HETATM    2  C4  UNL     1      25.847  41.857  31.368  1.00  0.00     0.699 A
HETATM    3  N4  UNL     1      24.786  42.004  30.556  1.00  0.00    -0.183 N
ATOM      4  H4  UNL     1      24.396  41.190  30.083  1.00  0.00     0.185 HD
HETATM    5  C5  UNL     1      24.223  43.238  30.357  1.00  0.00     0.106 A
HETATM    6  S1  UNL     1      22.908  43.807  29.429  1.00  0.00    -0.053 SA
HETATM    7  C6  UNL     1      22.981  45.466  29.820  1.00  0.00     0.079 A
HETATM    8  C7  UNL     1      24.036  45.534  30.669  1.00  0.00    -0.007 A
HETATM    9  C8  UNL     1      24.694  44.373  30.957  1.00  0.00     0.048 A
HETATM   10  C9  UNL     1      25.811  44.155  31.800  1.00  0.00     0.154 A
HETATM   11  S2  UNL     1      26.501  45.417  32.600  1.00  0.00    -0.057 SA
HETATM   12  C10 UNL     1      24.160  47.009  31.062  1.00  0.00     0.062 C
HETATM   13  C11 UNL     1      22.847  47.616  30.676  1.00  0.00     0.125 C
HETATM   14  N5  UNL     1      22.375  46.768  29.604  1.00  0.00    -0.384 N
ATOM     15  H5  UNL     1      21.743  47.032  28.848  1.00  0.00     0.160 HD
ENDROOT
BRANCH   1  16
HETATM   16  N1  UNL     1      27.451  42.724  32.812  1.00  0.00    -0.287 N
HETATM   17  C2  UNL     1      27.360  42.428  34.042  1.00  0.00    -0.003 C
HETATM   18  C1  UNL     1      26.018  42.297  34.659  1.00  0.00     0.064 C
HETATM   19  C3  UNL     1      28.565  42.211  34.874  1.00  0.00     0.064 C
ATOM     20  H1  UNL     1      28.383  42.809  32.406  1.00  0.00     0.187 HD
ENDBRANCH   1  16
BRANCH   2  21
HETATM   21  N3  UNL     1      26.345  40.674  31.525  1.00  0.00    -0.233 N
ATOM     22  H32 UNL     1      26.157  40.178  32.397  1.00  0.00     0.174 HD
ATOM     23  H31 UNL     1      26.917  40.216  30.816  1.00  0.00     0.174 HD
ENDBRANCH   2  21
TORSDOF 2
ENDMDL