MODEL 1
REMARK VINA RESULT: -7.156808355      0.000      0.000
REMARK  2 active torsions:
REMARK  status: ('A' for Active; 'I' for Inactive)
REMARK    1  A    between atoms: C2_2  and  C5_5
REMARK    2  A    between atoms: C8_12  and  C9_13
ROOT
HETATM    1  C5  UNL     1      22.114  42.591  40.378  1.00  0.00     0.091 A
HETATM    2  N1  UNL     1      21.658  41.431  40.829  1.00  0.00    -0.330 N
ATOM      3  H1  UNL     1      21.422  40.638  40.232  1.00  0.00     0.168 HD
HETATM    4  C6  UNL     1      21.542  41.426  42.178  1.00  0.00     0.133 A
HETATM    5  N2  UNL     1      21.135  40.510  43.096  1.00  0.00    -0.349 N
ATOM      6  H2  UNL     1      20.829  39.594  42.768  1.00  0.00     0.166 HD
HETATM    7  C7  UNL     1      21.118  40.759  44.420  1.00  0.00     0.104 A
HETATM    8  C8  UNL     1      21.531  41.985  44.826  1.00  0.00     0.017 A
HETATM    9  C11 UNL     1      21.951  42.947  43.939  1.00  0.00     0.049 A
HETATM   10  C12 UNL     1      21.955  42.663  42.582  1.00  0.00     0.079 A
HETATM   11  N6  UNL     1      22.298  43.359  41.491  1.00  0.00    -0.342 N
ATOM     12  H6  UNL     1      22.643  44.318  41.491  1.00  0.00     0.167 HD
ENDROOT
BRANCH   8  13
HETATM   13  C9  UNL     1      21.518  42.264  46.281  1.00  0.00     0.103 A
HETATM   14  N3  UNL     1      22.503  42.717  47.046  1.00  0.00    -0.291 N
HETATM   15  N4  UNL     1      22.302  42.889  48.288  1.00  0.00    -0.279 N
ATOM     16  H3  UNL     1      23.415  42.925  46.640  1.00  0.00     0.187 HD
HETATM   17  C10 UNL     1      21.105  42.614  48.817  1.00  0.00     0.159 A
ATOM     18  H4  UNL     1      23.054  43.237  48.883  1.00  0.00     0.189 HD
HETATM   19  N5  UNL     1      20.706  42.737  50.053  1.00  0.00    -0.379 N
HETATM   20  S1  UNL     1      20.255  42.079  47.419  1.00  0.00    -0.033 SA
ATOM     21  H52 UNL     1      21.209  43.054  50.881  1.00  0.00     0.158 HD
ATOM     22  H51 UNL     1      19.793  42.527  50.457  1.00  0.00     0.158 HD
ENDBRANCH   8  13
BRANCH   1  23
HETATM   23  C2  UNL     1      22.351  42.938  38.933  1.00  0.00     0.007 C
HETATM   24  C1  UNL     1      21.112  43.611  38.357  1.00  0.00     0.022 C
HETATM   25  C3  UNL     1      23.572  43.793  38.859  1.00  0.00     0.022 C
HETATM   26  C4  UNL     1      22.605  41.660  38.156  1.00  0.00     0.022 C
ENDBRANCH   1  23
TORSDOF 2
ENDMDL