MODEL 2
REMARK VINA RESULT: -5.619972939      2.936      4.541
REMARK  4 active torsions:
REMARK  status: ('A' for Active; 'I' for Inactive)
REMARK    1  A    between atoms: C2_2  and  N1_5
REMARK    2  A    between atoms: C12_18  and  C13_19
REMARK    3  A    between atoms: C13_19  and  O1_20
REMARK    4  A    between atoms: N5_22  and  O2_24
ROOT
HETATM    1  N1  UNL     1      22.044  42.623  40.812  1.00  0.00    -0.331 N
HETATM    2  C5  UNL     1      23.073  43.492  41.078  1.00  0.00     0.184 A
HETATM    3  N2  UNL     1      23.634  43.959  39.977  1.00  0.00    -0.350 N
ATOM      4  H2  UNL     1      24.413  44.615  39.935  1.00  0.00     0.166 HD
HETATM    5  C6  UNL     1      23.008  43.423  38.932  1.00  0.00     0.070 A
HETATM    6  C7  UNL     1      23.229  43.601  37.592  1.00  0.00    -0.000 A
HETATM    7  C8  UNL     1      22.423  42.915  36.709  1.00  0.00     0.039 A
HETATM    8  C9  UNL     1      21.439  42.089  37.204  1.00  0.00     0.058 A
HETATM    9  C10 UNL     1      21.215  41.909  38.571  1.00  0.00     0.077 A
HETATM   10  N3  UNL     1      20.186  41.047  38.992  1.00  0.00    -0.100 NA
HETATM   11  C11 UNL     1      22.011  42.587  39.453  1.00  0.00     0.088 A
HETATM   12  N4  UNL     1      22.830  43.263  35.389  1.00  0.00    -0.377 N
ATOM     13  H4  UNL     1      22.663  42.721  34.541  1.00  0.00     0.160 HD
HETATM   14  C12 UNL     1      23.538  44.553  35.479  1.00  0.00     0.162 C
HETATM   15  C14 UNL     1      24.230  44.426  36.829  1.00  0.00     0.076 C
ENDROOT
BRANCH  14  16
HETATM   16  C13 UNL     1      24.493  44.730  34.383  1.00  0.00     0.159 C
HETATM   17  N5  UNL     1      24.143  44.806  33.168  1.00  0.00    -0.249 N
ATOM     18  H5  UNL     1      24.909  44.932  32.506  1.00  0.00     0.196 HD
BRANCH  16  19
HETATM   19  O1  UNL     1      25.887  44.821  34.662  1.00  0.00    -0.347 OA
ATOM     20  H1  UNL     1      26.341  45.647  34.542  1.00  0.00     0.219 HD
ENDBRANCH  16  19
BRANCH  17  21
HETATM   21  O2  UNL     1      22.911  44.746  32.613  1.00  0.00    -0.288 OA
ATOM     22  H2  UNL     1      22.333  45.447  32.334  1.00  0.00     0.244 HD
ENDBRANCH  17  21
ENDBRANCH  14  16
BRANCH   1  23
HETATM   23  C2  UNL     1      21.228  41.939  41.793  1.00  0.00     0.027 C
HETATM   24  C1  UNL     1      21.603  42.643  43.134  1.00  0.00     0.038 C
HETATM   25  C3  UNL     1      19.760  42.201  41.724  1.00  0.00     0.038 C
HETATM   26  C4  UNL     1      21.631  40.521  42.077  1.00  0.00     0.038 C
ENDBRANCH   1  23
TORSDOF 4
ENDMDL