MODEL 5
REMARK VINA RESULT: -5.217955774      2.953      5.110
REMARK  6 active torsions:
REMARK  status: ('A' for Active; 'I' for Inactive)
REMARK    1  A    between atoms: O1_2  and  C2_3
REMARK    2  A    between atoms: C3_4  and  O2_5
REMARK    3  A    between atoms: N1_16  and  O3_18
REMARK    4  A    between atoms: C13_20  and  C14_21
REMARK    5  A    between atoms: C14_21  and  O4_22
REMARK    6  A    between atoms: N2_24  and  O5_26
ROOT
HETATM    1  C2  UNL     1      14.959  38.745  29.763  1.00  0.00     0.183 C
HETATM    2  C3  UNL     1      16.184  39.580  29.565  1.00  0.00     0.181 C
HETATM    3  C4  UNL     1      15.925  41.015  29.854  1.00  0.00    -0.035 C
HETATM    4  C5  UNL     1      14.866  41.673  29.357  1.00  0.00    -0.019 C
HETATM    5  C6  UNL     1      13.784  41.110  28.466  1.00  0.00     0.036 C
HETATM    6  C7  UNL     1      12.936  40.176  29.339  1.00  0.00     0.016 C
HETATM    7  C8  UNL     1      12.249  39.234  28.376  1.00  0.00     0.015 C
HETATM    8  C9  UNL     1      13.774  39.466  30.362  1.00  0.00    -0.048 C
HETATM    9  C10 UNL     1      14.011  40.093  31.664  1.00  0.00    -0.015 C
HETATM   10  C11 UNL     1      14.009  41.548  31.869  1.00  0.00     0.083 C
HETATM   11  C12 UNL     1      15.334  42.216  31.768  1.00  0.00     0.029 C
HETATM   12  N1  UNL     1      15.668  42.983  32.748  1.00  0.00    -0.276 N
ATOM     13  H1  UNL     1      16.570  43.458  32.713  1.00  0.00     0.193 HD
HETATM   14  C13 UNL     1      16.388  42.149  30.682  1.00  0.00     0.141 C
ENDROOT
BRANCH  14  15
HETATM   15  C14 UNL     1      17.730  42.071  31.210  1.00  0.00     0.149 C
HETATM   16  N2  UNL     1      18.706  42.663  30.595  1.00  0.00    -0.250 N
ATOM     17  H2  UNL     1      19.652  42.605  30.972  1.00  0.00     0.196 HD
BRANCH  15  18
HETATM   18  O4  UNL     1      18.107  41.396  32.364  1.00  0.00    -0.347 OA
ATOM     19  H4  UNL     1      17.636  41.405  33.188  1.00  0.00     0.219 HD
ENDBRANCH  15  18
BRANCH  16  20
HETATM   20  O5  UNL     1      18.479  43.359  29.457  1.00  0.00    -0.288 OA
ATOM     21  H5  UNL     1      18.072  42.937  28.709  1.00  0.00     0.244 HD
ENDBRANCH  16  20
ENDBRANCH  14  15
BRANCH   2  22
HETATM   22  O2  UNL     1      17.297  39.082  30.223  1.00  0.00    -0.388 OA
ATOM     23  H2  UNL     1      18.079  39.073  29.682  1.00  0.00     0.210 HD
ENDBRANCH   2  22
BRANCH  12  24
HETATM   24  O3  UNL     1      14.874  43.185  33.821  1.00  0.00    -0.290 OA
ATOM     25  H3  UNL     1      15.114  43.761  34.537  1.00  0.00     0.244 HD
ENDBRANCH  12  24
BRANCH   1  26
HETATM   26  O1  UNL     1      15.295  37.721  30.638  1.00  0.00    -0.383 OA
HETATM   27  C1  UNL     1      14.498  36.600  30.474  1.00  0.00     0.202 C
ENDBRANCH   1  26
TORSDOF 6
ENDMDL