MODEL 1
REMARK VINA RESULT: -5.506788128      0.000      0.000
REMARK  3 active torsions:
REMARK  status: ('A' for Active; 'I' for Inactive)
REMARK    1  A    between atoms: C5_6  and  N1_7
REMARK    2  A    between atoms: C6_12  and  O1_13
REMARK    3  A    between atoms: N4_19  and  C9_20
ROOT
HETATM    1  C1  UNL     1      19.065  41.709  29.086  1.00  0.00     0.021 C
HETATM    2  C2  UNL     1      18.795  40.967  30.112  1.00  0.00    -0.032 C
HETATM    3  C3  UNL     1      17.631  40.070  30.083  1.00  0.00     0.041 A
HETATM    4  S1  UNL     1      16.795  39.307  28.823  1.00  0.00    -0.081 SA
HETATM    5  C4  UNL     1      15.605  38.483  29.741  1.00  0.00     0.078 A
HETATM    6  C5  UNL     1      14.541  37.632  29.405  1.00  0.00     0.121 A
HETATM    7  N2  UNL     1      13.745  37.111  30.353  1.00  0.00    -0.307 N
ATOM      8  H2  UNL     1      12.964  36.491  30.139  1.00  0.00     0.171 HD
HETATM    9  C6  UNL     1      14.062  37.475  31.605  1.00  0.00     0.223 A
HETATM   10  N3  UNL     1      15.049  38.267  31.941  1.00  0.00    -0.319 N
ATOM     11  H3  UNL     1      15.192  38.473  32.930  1.00  0.00     0.169 HD
HETATM   12  C7  UNL     1      15.908  38.839  31.022  1.00  0.00     0.084 A
HETATM   13  C8  UNL     1      16.969  39.672  31.213  1.00  0.00     0.076 A
HETATM   14  N4  UNL     1      17.536  40.228  32.431  1.00  0.00    -0.377 N
HETATM   15  C11 UNL     1      18.695  41.041  32.475  1.00  0.00     0.144 C
HETATM   16  C12 UNL     1      19.653  41.007  31.357  1.00  0.00     0.110 C
HETATM   17  S2  UNL     1      20.763  42.399  31.258  1.00  0.00    -0.086 SA
ENDROOT
BRANCH   6  18
HETATM   18  N1  UNL     1      14.373  37.384  28.158  1.00  0.00    -0.384 N
ATOM     19  H12 UNL     1      14.764  37.978  27.428  1.00  0.00     0.157 HD
ATOM     20  H11 UNL     1      13.826  36.555  27.925  1.00  0.00     0.157 HD
ENDBRANCH   6  18
BRANCH   9  21
HETATM   21  O1  UNL     1      13.235  36.937  32.620  1.00  0.00    -0.332 OA
ATOM     22  H1  UNL     1      12.982  37.546  33.303  1.00  0.00     0.220 HD
ENDBRANCH   9  21
BRANCH  14  23
HETATM   23  C9  UNL     1      16.913  39.984  33.714  1.00  0.00     0.118 C
HETATM   24  C10 UNL     1      17.832  40.493  34.829  1.00  0.00     0.026 C
ENDBRANCH  14  23
TORSDOF 3
ENDMDL