MODEL 3
REMARK VINA RESULT: -5.525951263      2.636      3.636
REMARK  3 active torsions:
REMARK  status: ('A' for Active; 'I' for Inactive)
REMARK       I    between atoms: N2_3  and  C2_5
REMARK       I    between atoms: C2_5  and  N4_9
REMARK    1  A    between atoms: N4_9  and  O1_10
REMARK    2  A    between atoms: N4_9  and  C3_12
REMARK    3  A    between atoms: C5_14  and  C6_15
ROOT
HETATM    1  N1  UNL     1      18.624  35.108  27.154  1.00  0.00    -0.171 NA
HETATM    2  C1  UNL     1      18.261  35.532  28.156  1.00  0.00     0.196 C
HETATM    3  N2  UNL     1      17.832  36.057  29.379  1.00  0.00    -0.124 N
ATOM      4  H2  UNL     1      18.061  35.544  30.230  1.00  0.00     0.197 HD
HETATM    5  C2  UNL     1      17.095  37.263  29.501  1.00  0.00     0.708 C
HETATM    6  N3  UNL     1      15.889  37.206  29.940  1.00  0.00    -0.232 N
ATOM      7  H31 UNL     1      15.359  38.073  30.028  1.00  0.00     0.174 HD
ATOM      8  H32 UNL     1      15.465  36.314  30.196  1.00  0.00     0.174 HD
HETATM    9  N4  UNL     1      17.695  38.524  29.138  1.00  0.00    -0.071 N
ENDROOT
BRANCH   9  10
HETATM   10  O1  UNL     1      17.628  38.953  27.868  1.00  0.00    -0.273 OA
ATOM     11  H1  UNL     1      17.056  39.678  27.645  1.00  0.00     0.245 HD
ENDBRANCH   9  10
BRANCH   9  12
HETATM   12  C3  UNL     1      18.348  39.269  30.187  1.00  0.00     0.228 C
HETATM   13  C4  UNL     1      17.390  39.579  31.272  1.00  0.00     0.045 C
HETATM   14  C5  UNL     1      17.238  40.697  31.929  1.00  0.00     0.059 C
HETATM   15  O2  UNL     1      17.963  41.859  31.738  1.00  0.00    -0.292 OA
HETATM   16  C12 UNL     1      18.963  41.993  30.813  1.00  0.00     0.183 C
HETATM   17  N5  UNL     1      19.788  42.950  30.864  1.00  0.00    -0.374 N
HETATM   18  S1  UNL     1      19.081  40.780  29.516  1.00  0.00    -0.054 SA
ATOM     19  H52 UNL     1      19.720  43.646  31.607  1.00  0.00     0.158 HD
ATOM     20  H51 UNL     1      20.533  43.050  30.174  1.00  0.00     0.158 HD
BRANCH  14  21
HETATM   21  C6  UNL     1      16.186  40.818  33.023  1.00  0.00     0.043 C
HETATM   22  C7  UNL     1      15.720  42.233  33.085  1.00  0.00     0.011 C
HETATM   23  C8  UNL     1      14.500  42.547  32.318  1.00  0.00     0.001 C
HETATM   24  C9  UNL     1      13.438  41.483  32.362  1.00  0.00     0.000 C
HETATM   25  C10 UNL     1      14.061  40.212  31.814  1.00  0.00     0.001 C
HETATM   26  C11 UNL     1      15.150  39.806  32.737  1.00  0.00     0.011 C
ENDBRANCH  14  21
ENDBRANCH   9  12
TORSDOF 3
ENDMDL