MODEL 4
REMARK VINA RESULT: -5.718739174      2.344      4.918
REMARK  2 active torsions:
REMARK  status: ('A' for Active; 'I' for Inactive)
REMARK    1  A    between atoms: C2_2  and  N1_4
REMARK    2  A    between atoms: N1_4  and  C4_6
ROOT
HETATM    1  C4  UNL     1      15.870  40.742  33.037  1.00  0.00     0.160 C
HETATM    2  N2  UNL     1      15.669  41.981  32.775  1.00  0.00    -0.283 N
ATOM      3  H2  UNL     1      16.325  42.656  33.167  1.00  0.00     0.188 HD
HETATM    4  N3  UNL     1      14.630  42.479  32.000  1.00  0.00    -0.325 N
ATOM      5  H3  UNL     1      14.204  43.312  32.405  1.00  0.00     0.181 HD
HETATM    6  C5  UNL     1      14.038  42.108  30.806  1.00  0.00     0.134 C
HETATM    7  C6  UNL     1      12.586  42.610  30.730  1.00  0.00     0.032 C
HETATM    8  C7  UNL     1      12.249  42.724  29.261  1.00  0.00     0.007 C
HETATM    9  C8  UNL     1      13.089  41.836  28.388  1.00  0.00     0.041 C
HETATM   10  C9  UNL     1      13.490  40.581  29.070  1.00  0.00    -0.024 A
HETATM   11  C10 UNL     1      13.349  39.393  28.427  1.00  0.00     0.055 A
HETATM   12  N4  UNL     1      12.835  39.262  27.113  1.00  0.00    -0.102 NA
HETATM   13  C11 UNL     1      13.723  38.222  29.071  1.00  0.00     0.055 A
HETATM   14  C12 UNL     1      14.228  38.282  30.347  1.00  0.00     0.066 A
HETATM   15  N5  UNL     1      14.626  37.086  31.046  1.00  0.00    -0.101 NA
HETATM   16  C13 UNL     1      14.351  39.513  30.957  1.00  0.00     0.041 A
HETATM   17  C14 UNL     1      14.000  40.710  30.373  1.00  0.00    -0.007 A
HETATM   18  S1  UNL     1      15.027  39.232  32.608  1.00  0.00    -0.051 SA
ENDROOT
BRANCH   1  19
HETATM   19  N1  UNL     1      17.012  40.495  33.860  1.00  0.00    -0.365 N
ATOM     20  H1  UNL     1      16.867  40.210  34.829  1.00  0.00     0.162 HD
BRANCH  19  21
HETATM   21  C2  UNL     1      18.343  40.631  33.378  1.00  0.00     0.075 C
HETATM   22  C1  UNL     1      19.381  40.355  34.475  1.00  0.00     0.032 C
HETATM   23  C3  UNL     1      18.682  39.692  32.241  1.00  0.00     0.032 C
ENDBRANCH  19  21
ENDBRANCH   1  19
TORSDOF 2
ENDMDL