MODEL 5
REMARK VINA RESULT: -5.502023167      6.481     10.098
REMARK  2 active torsions:
REMARK  status: ('A' for Active; 'I' for Inactive)
REMARK    1  A    between atoms: S1_2  and  C2_3
REMARK    2  A    between atoms: C11_16  and  N3_17
REMARK       I    between atoms: N3_17  and  C12_19
ROOT
HETATM    1  C2  UNL     1      13.693  41.827  30.547  1.00  0.00     0.092 A
HETATM    2  N1  UNL     1      14.516  42.482  31.259  1.00  0.00    -0.259 N
ATOM      3  H1  UNL     1      14.329  43.477  31.385  1.00  0.00     0.195 HD
HETATM    4  O1  UNL     1      15.624  41.979  31.868  1.00  0.00    -0.258 OA
HETATM    5  C3  UNL     1      15.980  40.643  31.769  1.00  0.00     0.148 A
HETATM    6  C4  UNL     1      17.307  40.464  31.059  1.00  0.00     0.018 C
HETATM    7  C5  UNL     1      18.492  40.087  31.547  1.00  0.00     0.010 C
HETATM    8  C6  UNL     1      18.710  39.764  32.948  1.00  0.00     0.279 A
HETATM    9  C7  UNL     1      18.194  41.020  33.688  1.00  0.00     0.260 A
HETATM   10  C8  UNL     1      16.848  40.651  34.148  1.00  0.00     0.042 C
HETATM   11  C9  UNL     1      15.997  39.953  33.112  1.00  0.00     0.054 C
HETATM   12  N2  UNL     1      19.427  40.427  33.921  1.00  0.00     0.101 N
HETATM   13  C10 UNL     1      19.802  39.731  35.109  1.00  0.00     0.311 C
HETATM   14  C11 UNL     1      15.003  39.900  30.932  1.00  0.00     0.055 A
HETATM   15  C13 UNL     1      13.951  40.404  30.360  1.00  0.00     0.067 A
ENDROOT
BRANCH  14  16
HETATM   16  N3  UNL     1      15.278  38.498  30.762  1.00  0.00    -0.331 N
HETATM   17  C12 UNL     1      14.288  37.495  30.883  1.00  0.00     0.186 C
HETATM   18  N4  UNL     1      13.789  37.001  29.803  1.00  0.00    -0.374 N
HETATM   19  N5  UNL     1      13.806  36.994  32.120  1.00  0.00    -0.064 NA
ATOM     20  H42 UNL     1      14.135  37.361  28.914  1.00  0.00     0.158 HD
ATOM     21  H41 UNL     1      13.075  36.277  29.890  1.00  0.00     0.158 HD
ATOM     22  H3  UNL     1      16.234  38.214  30.545  1.00  0.00     0.168 HD
ENDBRANCH  14  16
BRANCH   1  23
HETATM   23  S1  UNL     1      12.249  42.526  29.764  1.00  0.00    -0.115 SA
HETATM   24  C1  UNL     1      12.629  42.917  28.043  1.00  0.00     0.097 C
ENDBRANCH   1  23
TORSDOF 2
ENDMDL