MODEL 1
REMARK VINA RESULT: -5.733344823      0.000      0.000
REMARK  1 active torsions:
REMARK  status: ('A' for Active; 'I' for Inactive)
REMARK    1  A    between atoms: N4_9  and  N5_11
ROOT
HETATM    1  N1  UNL     1      22.417  43.667  43.415  1.00  0.00    -0.191 NA
HETATM    2  C1  UNL     1      22.082  43.237  42.394  1.00  0.00     0.105 C
HETATM    3  C2  UNL     1      21.677  42.706  41.089  1.00  0.00     0.114 A
HETATM    4  C3  UNL     1      20.619  41.825  41.062  1.00  0.00     0.141 A
HETATM    5  N2  UNL     1      19.988  41.492  42.324  1.00  0.00    -0.081 NA
HETATM    6  N3  UNL     1      20.102  41.234  39.983  1.00  0.00    -0.323 N
ATOM      7  H3  UNL     1      19.316  40.605  40.142  1.00  0.00     0.169 HD
HETATM    8  C4  UNL     1      20.499  41.376  38.725  1.00  0.00     0.166 A
HETATM    9  N4  UNL     1      19.895  40.730  37.766  1.00  0.00    -0.278 N
ATOM     10  H4  UNL     1      19.109  40.104  37.939  1.00  0.00     0.189 HD
HETATM   11  S1  UNL     1      21.816  42.433  38.509  1.00  0.00    -0.039 SA
HETATM   12  C10 UNL     1      22.370  43.111  39.968  1.00  0.00     0.099 A
HETATM   13  S2  UNL     1      23.615  44.160  40.084  1.00  0.00    -0.070 SA
ENDROOT
BRANCH   9  14
HETATM   14  N5  UNL     1      20.408  40.962  36.475  1.00  0.00    -0.287 N
HETATM   15  C5  UNL     1      19.679  40.639  35.491  1.00  0.00     0.091 C
HETATM   16  C6  UNL     1      18.308  40.028  35.634  1.00  0.00     0.077 C
HETATM   17  N6  UNL     1      20.116  40.837  34.148  1.00  0.00    -0.379 N
HETATM   18  C7  UNL     1      17.439  40.721  34.608  1.00  0.00     0.009 C
HETATM   19  C8  UNL     1      17.941  40.568  33.205  1.00  0.00     0.020 C
HETATM   20  C9  UNL     1      19.381  40.111  33.127  1.00  0.00     0.121 C
ATOM     21  H6  UNL     1      20.897  41.451  33.919  1.00  0.00     0.160 HD
ATOM     22  H5  UNL     1      21.331  41.374  36.337  1.00  0.00     0.188 HD
ENDBRANCH   9  14
TORSDOF 1
ENDMDL