MODEL 1
REMARK VINA RESULT: -6.566862115      0.000      0.000
REMARK  4 active torsions:
REMARK  status: ('A' for Active; 'I' for Inactive)
REMARK    1  A    between atoms: O1_1  and  C1_3
REMARK    2  A    between atoms: C1_3  and  C2_4
REMARK    3  A    between atoms: C9_13  and  C10_14
REMARK    4  A    between atoms: N3_21  and  O2_22
ROOT
HETATM    1  C2  UNL     1      21.144  42.955  41.776  1.00  0.00     0.062 C
HETATM    2  C3  UNL     1      20.580  41.763  42.539  1.00  0.00     0.011 C
HETATM    3  C4  UNL     1      21.577  40.744  42.938  1.00  0.00     0.001 C
HETATM    4  C5  UNL     1      22.008  39.779  41.893  1.00  0.00     0.000 C
HETATM    5  C6  UNL     1      22.839  40.307  40.788  1.00  0.00     0.004 C
HETATM    6  C7  UNL     1      23.119  41.769  40.803  1.00  0.00     0.058 C
HETATM    7  C8  UNL     1      21.845  42.549  40.543  1.00  0.00     0.155 C
HETATM    8  N1  UNL     1      22.191  43.661  39.693  1.00  0.00    -0.344 N
ATOM      9  H1  UNL     1      22.322  44.631  39.980  1.00  0.00     0.163 HD
HETATM   10  C9  UNL     1      22.315  43.142  38.379  1.00  0.00     0.130 C
HETATM   11  N2  UNL     1      21.609  42.072  38.342  1.00  0.00    -0.261 N
ATOM     12  H2  UNL     1      21.503  41.476  37.521  1.00  0.00     0.191 HD
HETATM   13  N3  UNL     1      20.991  41.829  39.603  1.00  0.00    -0.169 N
ENDROOT
BRANCH   1  14
HETATM   14  C1  UNL     1      21.959  43.783  42.752  1.00  0.00     0.173 C
BRANCH  14  15
HETATM   15  O1  UNL     1      22.344  45.016  42.283  1.00  0.00    -0.400 OA
ATOM     16  H1  UNL     1      23.156  45.021  41.791  1.00  0.00     0.209 HD
ENDBRANCH  14  15
ENDBRANCH   1  14
BRANCH  13  17
HETATM   17  O2  UNL     1      19.895  41.103  39.751  1.00  0.00    -0.270 OA
ATOM     18  H2  UNL     1      19.743  40.170  39.849  1.00  0.00     0.246 HD
ENDBRANCH  13  17
BRANCH  10  19
HETATM   19  C10 UNL     1      23.096  43.707  37.231  1.00  0.00     0.016 A
HETATM   20  C11 UNL     1      24.169  44.512  37.417  1.00  0.00     0.023 A
HETATM   21  C12 UNL     1      24.807  44.966  36.296  1.00  0.00     0.050 A
HETATM   22  S1  UNL     1      23.913  44.275  35.025  1.00  0.00    -0.113 SA
HETATM   23  C13 UNL     1      22.754  43.428  35.936  1.00  0.00     0.064 A
ENDBRANCH  10  19
TORSDOF 4
ENDMDL