MODEL 4
REMARK VINA RESULT: -6.016108605     11.366     13.269
REMARK  4 active torsions:
REMARK  status: ('A' for Active; 'I' for Inactive)
REMARK    1  A    between atoms: C5_8  and  O2_9
REMARK    2  A    between atoms: C10_15  and  O3_16
REMARK    3  A    between atoms: C11_18  and  O4_19
REMARK    4  A    between atoms: O4_19  and  O5_20
ROOT
HETATM    1  C1  UNL     1      14.903  42.339  33.498  1.00  0.00     0.033 C
HETATM    2  C2  UNL     1      14.409  41.759  32.208  1.00  0.00     0.087 C
HETATM    3  N1  UNL     1      13.792  42.814  31.429  1.00  0.00    -0.383 N
ATOM      4  H1  UNL     1      13.701  43.767  31.782  1.00  0.00     0.160 HD
HETATM    5  C3  UNL     1      13.323  42.438  30.140  1.00  0.00     0.063 A
HETATM    6  C4  UNL     1      12.253  42.862  29.345  1.00  0.00     0.174 A
HETATM    7  O1  UNL     1      12.310  42.160  28.245  1.00  0.00    -0.298 OA
HETATM    8  C5  UNL     1      13.332  41.323  28.279  1.00  0.00     0.192 A
HETATM    9  C6  UNL     1      14.005  41.463  29.463  1.00  0.00     0.038 A
HETATM   10  C7  UNL     1      15.202  40.794  30.001  1.00  0.00     0.002 C
HETATM   11  C8  UNL     1      16.369  41.474  29.231  1.00  0.00     0.021 C
HETATM   12  C9  UNL     1      15.319  39.363  29.531  1.00  0.00     0.049 C
HETATM   13  C10 UNL     1      14.288  38.414  29.938  1.00  0.00     0.151 C
HETATM   14  C11 UNL     1      14.728  37.687  31.220  1.00  0.00     0.188 C
HETATM   15  C12 UNL     1      14.501  38.761  32.298  1.00  0.00     0.038 C
HETATM   16  C13 UNL     1      15.639  39.687  32.233  1.00  0.00     0.015 C
HETATM   17  C14 UNL     1      15.430  40.978  31.456  1.00  0.00    -0.012 C
HETATM   18  C15 UNL     1      16.776  41.704  31.689  1.00  0.00     0.018 C
ENDROOT
BRANCH  14  19
HETATM   19  O4  UNL     1      13.990  36.557  31.455  1.00  0.00    -0.235 OA
BRANCH  19  20
HETATM   20  O5  UNL     1      13.175  36.663  32.474  1.00  0.00    -0.250 OA
ATOM     21  H5  UNL     1      12.545  35.954  32.535  1.00  0.00     0.253 HD
ENDBRANCH  19  20
ENDBRANCH  14  19
BRANCH  13  22
HETATM   22  O3  UNL     1      13.027  38.885  30.169  1.00  0.00    -0.393 OA
ATOM     23  H3  UNL     1      12.914  39.814  30.333  1.00  0.00     0.210 HD
ENDBRANCH  13  22
BRANCH   8  24
HETATM   24  O2  UNL     1      13.635  40.437  27.217  1.00  0.00    -0.340 OA
ATOM     25  H2  UNL     1      14.193  40.680  26.486  1.00  0.00     0.220 HD
ENDBRANCH   8  24
TORSDOF 4
ENDMDL