MODEL 2
REMARK VINA RESULT: -5.864447534      2.522      6.548
REMARK  2 active torsions:
REMARK  status: ('A' for Active; 'I' for Inactive)
REMARK    1  A    between atoms: C6_6  and  N1_7
REMARK    2  A    between atoms: C15_21  and  O1_22
ROOT
HETATM    1  N1  UNL     1      15.408  40.261  31.594  1.00  0.00    -0.227 N
HETATM    2  N2  UNL     1      15.223  41.135  30.532  1.00  0.00    -0.099 NA
HETATM    3  C7  UNL     1      14.006  40.723  29.861  1.00  0.00     0.124 C
HETATM    4  C8  UNL     1      12.903  41.722  30.146  1.00  0.00     0.051 C
HETATM    5  C9  UNL     1      12.679  42.697  29.015  1.00  0.00     0.004 C
HETATM    6  C10 UNL     1      12.249  41.912  27.792  1.00  0.00     0.000 C
HETATM    7  C11 UNL     1      13.114  40.725  27.506  1.00  0.00     0.004 C
HETATM    8  C12 UNL     1      14.332  40.640  28.394  1.00  0.00     0.051 C
HETATM    9  N3  UNL     1      13.673  39.475  30.478  1.00  0.00    -0.338 N
ATOM     10  H3  UNL     1      12.908  38.872  30.176  1.00  0.00     0.164 HD
HETATM   11  C13 UNL     1      14.474  39.204  31.478  1.00  0.00     0.209 C
HETATM   12  N4  UNL     1      14.340  38.026  32.250  1.00  0.00    -0.062 NA
ENDROOT
BRANCH   1  13
HETATM   13  C6  UNL     1      16.390  40.416  32.604  1.00  0.00     0.088 A
HETATM   14  C4  UNL     1      16.182  41.195  33.723  1.00  0.00    -0.031 A
HETATM   15  C3  UNL     1      17.160  41.316  34.716  1.00  0.00     0.018 A
HETATM   16  C5  UNL     1      14.938  41.944  33.931  1.00  0.00     0.050 C
HETATM   17  C2  UNL     1      18.362  40.658  34.607  1.00  0.00    -0.026 A
HETATM   18  C1  UNL     1      19.416  40.776  35.660  1.00  0.00     0.051 C
HETATM   19  C15 UNL     1      18.592  39.880  33.510  1.00  0.00     0.098 A
HETATM   20  C14 UNL     1      17.625  39.764  32.533  1.00  0.00     0.108 A
HETATM   21  N5  UNL     1      17.831  38.950  31.369  1.00  0.00    -0.097 NA
BRANCH  19  22
HETATM   22  O1  UNL     1      19.801  39.203  33.379  1.00  0.00    -0.358 OA
ATOM     23  H1  UNL     1      19.815  38.322  33.023  1.00  0.00     0.217 HD
ENDBRANCH  19  22
ENDBRANCH   1  13
TORSDOF 2
ENDMDL