MODEL 5
REMARK VINA RESULT: -7.817872223      2.045      2.383
REMARK  4 active torsions:
REMARK  status: ('A' for Active; 'I' for Inactive)
REMARK    1  A    between atoms: C5_5  and  S1_6
REMARK    2  A    between atoms: S1_6  and  C6_7
REMARK    3  A    between atoms: N1_14  and  N2_15
REMARK    4  A    between atoms: N2_15  and  O3_17
ROOT
HETATM    1  C6  UNL     1       9.991  41.492  56.596  1.00  0.00     0.181 C
HETATM    2  C7  UNL     1       9.988  42.804  57.298  1.00  0.00     0.278 C
HETATM    3  O1  UNL     1      10.310  42.880  58.509  1.00  0.00    -0.264 OA
HETATM    4  O2  UNL     1       9.623  43.958  56.586  1.00  0.00    -0.287 OA
HETATM    5  C8  UNL     1      10.078  44.154  55.246  1.00  0.00     0.154 C
HETATM    6  C9  UNL     1       9.084  44.972  54.444  1.00  0.00     0.072 C
HETATM    7  C10 UNL     1      11.333  45.002  55.351  1.00  0.00     0.072 C
HETATM    8  N1  UNL     1      10.324  42.878  54.629  1.00  0.00    -0.263 N
HETATM    9  C11 UNL     1      10.791  41.709  55.319  1.00  0.00     0.068 C
HETATM   10  C12 UNL     1      12.251  41.800  55.709  1.00  0.00     0.041 C
HETATM   11  C13 UNL     1      10.661  40.486  54.438  1.00  0.00     0.041 C
ENDROOT
BRANCH   1  12
HETATM   12  S1  UNL     1      10.716  40.178  57.575  1.00  0.00    -0.112 SA
BRANCH  12  13
HETATM   13  C5  UNL     1       9.539  39.284  58.548  1.00  0.00     0.001 A
HETATM   14  C4  UNL     1       9.859  39.024  59.887  1.00  0.00     0.019 A
HETATM   15  C3  UNL     1       8.984  38.325  60.689  1.00  0.00     0.008 A
HETATM   16  C2  UNL     1       7.775  37.854  60.226  1.00  0.00    -0.062 A
HETATM   17  C1  UNL     1       6.834  37.097  61.104  1.00  0.00     0.048 C
HETATM   18  C15 UNL     1       7.470  38.116  58.907  1.00  0.00     0.008 A
HETATM   19  C14 UNL     1       8.334  38.821  58.069  1.00  0.00     0.019 A
ENDBRANCH  12  13
ENDBRANCH   1  12
BRANCH   8  20
HETATM   20  N2  UNL     1      10.094  42.768  53.262  1.00  0.00    -0.209 N
ATOM     21  H2  UNL     1       9.197  42.398  52.948  1.00  0.00     0.215 HD
BRANCH  20  22
HETATM   22  O3  UNL     1      10.935  43.101  52.401  1.00  0.00    -0.274 OA
ATOM     23  H3  UNL     1      10.696  43.473  51.561  1.00  0.00     0.246 HD
ENDBRANCH  20  22
ENDBRANCH   8  20
TORSDOF 4
ENDMDL