MODEL 3
REMARK VINA RESULT: -7.275254443      2.805      7.608
REMARK  6 active torsions:
REMARK  status: ('A' for Active; 'I' for Inactive)
REMARK    1  A    between atoms: C2_2  and  O1_3
REMARK    2  A    between atoms: C2_2  and  C12_15
REMARK    3  A    between atoms: O1_3  and  C3_4
REMARK       I    between atoms: C3_4  and  N1_6
REMARK    4  A    between atoms: N1_6  and  C5_8
REMARK    5  A    between atoms: C5_8  and  C8_11
REMARK    6  A    between atoms: C13_18  and  N3_19
ROOT
HETATM    1  O1  UNL     1      10.836  42.080  57.351  1.00  0.00    -0.291 OA
ENDROOT
BRANCH   1   2
HETATM    2  C2  UNL     1      10.072  42.238  58.518  1.00  0.00     0.204 C
HETATM    3  C1  UNL     1       8.813  43.011  58.312  1.00  0.00     0.049 C
BRANCH   2   4
HETATM    4  C12 UNL     1       9.793  40.981  59.214  1.00  0.00     0.154 A
HETATM    5  N2  UNL     1      10.170  40.723  60.476  1.00  0.00    -0.318 N
HETATM    6  C13 UNL     1       9.779  39.510  60.836  1.00  0.00     0.198 A
ATOM      7  H2  UNL     1      10.686  41.369  61.073  1.00  0.00     0.169 HD
HETATM    8  C14 UNL     1       9.124  38.986  59.742  1.00  0.00     0.199 A
HETATM    9  O5  UNL     1       9.161  39.904  58.806  1.00  0.00    -0.303 OA
BRANCH   6  10
HETATM   10  N3  UNL     1      10.013  38.917  62.104  1.00  0.00    -0.096 N
HETATM   11  O3  UNL     1      10.026  37.676  62.268  1.00  0.00    -0.530 OA
HETATM   12  O4  UNL     1      10.234  39.702  63.206  1.00  0.00    -0.530 OA
ENDBRANCH   6  10
ENDBRANCH   2   4
ENDBRANCH   1   2
BRANCH   1  13
HETATM   13  C3  UNL     1      11.842  42.973  56.960  1.00  0.00     0.363 C
HETATM   14  O2  UNL     1      12.212  43.743  57.882  1.00  0.00    -0.238 OA
HETATM   15  N1  UNL     1      12.368  42.980  55.651  1.00  0.00    -0.323 N
HETATM   16  C4  UNL     1      11.848  41.992  54.726  1.00  0.00     0.156 C
BRANCH  15  17
HETATM   17  C5  UNL     1      13.336  43.920  55.225  1.00  0.00     0.036 C
HETATM   18  C6  UNL     1      14.485  44.068  56.231  1.00  0.00     0.039 C
HETATM   19  C7  UNL     1      14.070  43.218  54.023  1.00  0.00     0.039 C
BRANCH  17  20
HETATM   20  C8  UNL     1      12.908  45.254  54.782  1.00  0.00    -0.026 C
HETATM   21  C9  UNL     1      13.279  45.569  53.340  1.00  0.00     0.017 C
HETATM   22  C10 UNL     1      11.490  45.656  54.980  1.00  0.00     0.017 C
HETATM   23  C11 UNL     1      13.738  46.273  55.603  1.00  0.00     0.017 C
ENDBRANCH  17  20
ENDBRANCH  15  17
ENDBRANCH   1  13
TORSDOF 6
ENDMDL