MODEL 5
REMARK VINA RESULT: -8.282371147      1.628      6.264
REMARK  3 active torsions:
REMARK  status: ('A' for Active; 'I' for Inactive)
REMARK    1  A    between atoms: C3_5  and  C4_6
REMARK    2  A    between atoms: C11_13  and  N2_14
REMARK    3  A    between atoms: C15_18  and  C16_19
ROOT
HETATM    1  C4  UNL     1      10.891  42.246  57.362  1.00  0.00     0.023 C
HETATM    2  C5  UNL     1      11.474  42.804  58.650  1.00  0.00     0.022 C
HETATM    3  C6  UNL     1      11.886  41.696  59.568  1.00  0.00    -0.011 C
HETATM    4  C7  UNL     1      12.945  40.895  58.880  1.00  0.00     0.009 C
HETATM    5  C8  UNL     1      12.345  40.318  57.623  1.00  0.00    -0.011 C
HETATM    6  C9  UNL     1      11.934  41.372  56.649  1.00  0.00     0.022 C
HETATM    7  C10 UNL     1      11.152  39.517  57.990  1.00  0.00     0.036 C
HETATM    8  C11 UNL     1      10.041  40.368  58.651  1.00  0.00     0.039 C
HETATM    9  C17 UNL     1      10.660  40.884  59.917  1.00  0.00     0.036 C
HETATM   10  C18 UNL     1       9.676  41.413  57.656  1.00  0.00     0.049 C
ENDROOT
BRANCH   1  11
HETATM   11  C3  UNL     1      10.641  43.374  56.436  1.00  0.00     0.112 A
HETATM   12  N1  UNL     1      11.562  44.192  55.901  1.00  0.00    -0.327 N
HETATM   13  C2  UNL     1      10.957  45.082  55.119  1.00  0.00     0.144 A
ATOM     14  H1  UNL     1      12.568  44.139  56.068  1.00  0.00     0.169 HD
HETATM   15  C1  UNL     1      11.623  46.185  54.328  1.00  0.00     0.100 C
HETATM   16  O2  UNL     1       9.687  44.827  55.163  1.00  0.00    -0.223 OA
HETATM   17  N3  UNL     1       9.473  43.802  55.950  1.00  0.00    -0.246 N
ATOM     18  H3  UNL     1       8.561  43.396  56.159  1.00  0.00     0.196 HD
ENDBRANCH   1  11
BRANCH   8  19
HETATM   19  N2  UNL     1       8.960  39.413  58.930  1.00  0.00    -0.344 N
HETATM   20  C12 UNL     1       7.905  39.138  58.102  1.00  0.00     0.092 A
HETATM   21  C13 UNL     1       7.076  38.192  58.652  1.00  0.00     0.020 A
HETATM   22  C14 UNL     1       7.650  37.882  59.860  1.00  0.00     0.034 A
HETATM   23  C15 UNL     1       8.821  38.646  60.023  1.00  0.00     0.073 A
BRANCH  23  24
HETATM   24  C16 UNL     1       9.698  38.576  61.184  1.00  0.00     0.288 C
HETATM   25  O1  UNL     1       9.210  38.258  62.305  1.00  0.00    -0.300 OA
ENDBRANCH  23  24
ENDBRANCH   8  19
TORSDOF 3
ENDMDL