MODEL 3
REMARK VINA RESULT: -7.914337388      1.181      1.826
REMARK  3 active torsions:
REMARK  status: ('A' for Active; 'I' for Inactive)
REMARK    1  A    between atoms: C2_2  and  C3_4
REMARK    2  A    between atoms: C4_7  and  N2_8
REMARK    3  A    between atoms: N4_16  and  C10_17
ROOT
HETATM    1  C3  UNL     1      12.350  43.337  56.837  1.00  0.00     0.153 A
HETATM    2  N1  UNL     1      11.790  42.874  55.718  1.00  0.00    -0.324 N
ATOM      3  H1  UNL     1      12.123  43.219  54.818  1.00  0.00     0.169 HD
HETATM    4  C4  UNL     1      10.793  41.963  55.742  1.00  0.00     0.136 A
HETATM    5  C9  UNL     1      10.338  41.494  56.967  1.00  0.00     0.120 A
HETATM    6  N3  UNL     1       9.411  40.629  57.382  1.00  0.00    -0.293 N
ATOM      7  H3  UNL     1       8.801  40.099  56.759  1.00  0.00     0.187 HD
HETATM    8  N4  UNL     1       9.382  40.544  58.709  1.00  0.00    -0.296 N
HETATM    9  C16 UNL     1      10.320  41.380  59.187  1.00  0.00     0.142 A
HETATM   10  C17 UNL     1      10.924  41.978  58.117  1.00  0.00     0.083 A
HETATM   11  N5  UNL     1      11.904  42.877  58.030  1.00  0.00    -0.336 N
ATOM     12  H5  UNL     1      12.330  43.229  58.888  1.00  0.00     0.168 HD
ENDROOT
BRANCH   8  13
HETATM   13  C10 UNL     1       8.497  39.702  59.495  1.00  0.00     0.107 C
HETATM   14  C11 UNL     1       9.324  38.757  60.334  1.00  0.00     0.027 C
HETATM   15  C12 UNL     1       8.464  37.822  61.144  1.00  0.00     0.002 C
HETATM   16  C13 UNL     1       7.448  37.100  60.292  1.00  0.00     0.000 C
HETATM   17  C14 UNL     1       6.652  38.089  59.503  1.00  0.00     0.002 C
HETATM   18  C15 UNL     1       7.569  38.916  58.628  1.00  0.00     0.027 C
ENDBRANCH   8  13
BRANCH   4  19
HETATM   19  N2  UNL     1      10.215  41.487  54.546  1.00  0.00    -0.365 N
HETATM   20  C5  UNL     1       9.248  42.218  53.756  1.00  0.00     0.124 C
HETATM   21  C6  UNL     1       8.877  41.291  52.606  1.00  0.00     0.021 C
HETATM   22  C7  UNL     1       9.288  39.910  53.067  1.00  0.00     0.021 C
HETATM   23  C8  UNL     1      10.496  40.211  53.933  1.00  0.00     0.124 C
ENDBRANCH   4  19
BRANCH   1  24
HETATM   24  C2  UNL     1      13.422  44.315  56.854  1.00  0.00     0.189 C
HETATM   25  C1  UNL     1      14.609  44.208  55.984  1.00  0.00     0.100 C
HETATM   26  O1  UNL     1      13.330  45.286  57.640  1.00  0.00    -0.290 OA
ENDBRANCH   1  24
TORSDOF 3
ENDMDL