MODEL 2
REMARK VINA RESULT: -6.907350994      2.289      5.468
REMARK  4 active torsions:
REMARK  status: ('A' for Active; 'I' for Inactive)
REMARK    1  A    between atoms: C2_2  and  O1_3
REMARK    2  A    between atoms: O1_3  and  C3_4
REMARK    3  A    between atoms: C3_4  and  C4_6
REMARK    4  A    between atoms: C12_18  and  C13_19
ROOT
HETATM    1  C4  UNL     1      12.973  44.153  55.085  1.00  0.00     0.053 A
HETATM    2  C5  UNL     1      12.134  44.745  54.260  1.00  0.00     0.020 A
HETATM    3  C6  UNL     1      11.530  46.062  54.569  1.00  0.00     0.069 C
HETATM    4  N1  UNL     1      11.774  44.082  53.020  1.00  0.00    -0.341 N
ATOM      5  H1  UNL     1      11.127  44.545  52.382  1.00  0.00     0.167 HD
HETATM    6  C7  UNL     1      12.241  42.936  52.704  1.00  0.00     0.152 A
HETATM    7  O3  UNL     1      12.097  42.074  51.625  1.00  0.00    -0.300 OA
HETATM    8  C8  UNL     1      13.354  41.373  51.519  1.00  0.00     0.165 C
HETATM    9  C9  UNL     1      13.155  39.892  51.641  1.00  0.00     0.079 C
HETATM   10  C10 UNL     1      13.941  41.765  50.199  1.00  0.00     0.079 C
HETATM   11  O4  UNL     1      14.136  41.841  52.606  1.00  0.00    -0.341 OA
HETATM   12  C11 UNL     1      13.179  42.167  53.561  1.00  0.00     0.214 A
HETATM   13  C12 UNL     1      13.626  42.823  54.784  1.00  0.00     0.121 A
ENDROOT
BRANCH   1  14
HETATM   14  C3  UNL     1      13.299  44.835  56.341  1.00  0.00     0.292 C
HETATM   15  O2  UNL     1      14.216  45.732  56.343  1.00  0.00    -0.260 OA
BRANCH  14  16
HETATM   16  O1  UNL     1      12.715  44.616  57.556  1.00  0.00    -0.318 OA
BRANCH  16  17
HETATM   17  C2  UNL     1      13.421  44.174  58.706  1.00  0.00     0.174 C
HETATM   18  C1  UNL     1      12.565  43.380  59.645  1.00  0.00     0.034 C
ENDBRANCH  16  17
ENDBRANCH  14  16
ENDBRANCH   1  14
BRANCH  13  19
HETATM   19  C13 UNL     1      13.426  41.875  55.920  1.00  0.00     0.064 A
HETATM   20  C14 UNL     1      12.230  41.272  56.241  1.00  0.00     0.035 A
HETATM   21  C15 UNL     1      12.442  40.471  57.344  1.00  0.00     0.027 A
HETATM   22  C16 UNL     1      13.775  40.626  57.648  1.00  0.00     0.142 A
HETATM   23  O5  UNL     1      14.316  41.472  56.771  1.00  0.00    -0.326 OA
ENDBRANCH  13  19
TORSDOF 4
ENDMDL