MODEL 3
REMARK VINA RESULT: -7.063362455      1.237      1.538
REMARK  3 active torsions:
REMARK  status: ('A' for Active; 'I' for Inactive)
REMARK    1  A    between atoms: C2_2  and  S1_3
REMARK    2  A    between atoms: S1_3  and  C3_4
REMARK    3  A    between atoms: N2_9  and  C6_10
ROOT
HETATM    1  C6  UNL     1      12.794  43.299  55.766  1.00  0.00     0.360 C
HETATM    2  C7  UNL     1      14.190  42.751  55.683  1.00  0.00     0.268 C
HETATM    3  O1  UNL     1      14.201  41.562  56.432  1.00  0.00    -0.234 OA
HETATM    4  O2  UNL     1      12.987  41.084  56.611  1.00  0.00    -0.197 OA
HETATM    5  C8  UNL     1      12.241  41.880  57.510  1.00  0.00     0.294 C
HETATM    6  C9  UNL     1      10.789  41.558  57.237  1.00  0.00     0.075 C
HETATM    7  C10 UNL     1      10.556  40.115  57.635  1.00  0.00     0.005 C
HETATM    8  C11 UNL     1      10.238  39.919  59.072  1.00  0.00     0.000 C
HETATM    9  C12 UNL     1      10.237  41.155  59.905  1.00  0.00     0.000 C
HETATM   10  C13 UNL     1      11.487  41.955  59.872  1.00  0.00     0.005 C
HETATM   11  C14 UNL     1      12.528  41.446  58.901  1.00  0.00     0.075 C
HETATM   12  N3  UNL     1      12.457  43.260  57.198  1.00  0.00     0.148 N
HETATM   13  C15 UNL     1      13.437  43.924  57.993  1.00  0.00     0.317 C
ENDROOT
BRANCH   1  14
HETATM   14  N2  UNL     1      12.597  44.589  55.178  1.00  0.00    -0.303 N
HETATM   15  C3  UNL     1      11.398  45.110  54.906  1.00  0.00     0.148 A
HETATM   16  N1  UNL     1      11.614  46.324  54.373  1.00  0.00    -0.345 N
HETATM   17  C4  UNL     1      12.929  46.567  54.309  1.00  0.00     0.107 A
ATOM     18  H1  UNL     1      10.884  46.966  54.064  1.00  0.00     0.167 HD
HETATM   19  C5  UNL     1      13.556  45.466  54.821  1.00  0.00     0.112 A
BRANCH  15  20
HETATM   20  S1  UNL     1       9.762  44.380  55.187  1.00  0.00    -0.094 SA
BRANCH  20  21
HETATM   21  C2  UNL     1       8.542  45.243  54.165  1.00  0.00     0.078 C
HETATM   22  C1  UNL     1       8.071  46.479  54.904  1.00  0.00     0.016 C
ENDBRANCH  20  21
ENDBRANCH  15  20
ENDBRANCH   1  14
TORSDOF 3
ENDMDL