MODEL 4
REMARK VINA RESULT: -6.699115350      2.591      3.643
REMARK  4 active torsions:
REMARK  status: ('A' for Active; 'I' for Inactive)
REMARK    1  A    between atoms: C2_2  and  C3_4
REMARK    2  A    between atoms: C5_6  and  C6_7
REMARK       I    between atoms: N3_15  and  C9_16
REMARK    3  A    between atoms: C9_16  and  O3_18
REMARK    4  A    between atoms: O3_18  and  C10_19
ROOT
HETATM    1  C3  UNL     1      10.337  40.760  59.908  1.00  0.00     0.008 C
HETATM    2  C4  UNL     1      11.362  41.565  59.968  1.00  0.00     0.017 C
HETATM    3  C5  UNL     1      11.370  42.479  58.825  1.00  0.00     0.157 C
HETATM    4  N3  UNL     1      10.428  41.919  57.894  1.00  0.00    -0.307 N
HETATM    5  C9  UNL     1      10.332  42.113  56.509  1.00  0.00     0.364 C
HETATM    6  O2  UNL     1       9.439  41.543  55.824  1.00  0.00    -0.238 OA
HETATM    7  C13 UNL     1       9.553  41.077  58.682  1.00  0.00     0.123 C
HETATM    8  C14 UNL     1       8.304  41.790  59.124  1.00  0.00     0.038 C
ENDROOT
BRANCH   3   9
HETATM    9  C6  UNL     1      12.717  42.694  58.229  1.00  0.00     0.051 A
HETATM   10  S1  UNL     1      13.585  44.160  58.004  1.00  0.00     0.001 SA
HETATM   11  N1  UNL     1      14.971  43.530  57.290  1.00  0.00    -0.269 N
HETATM   12  N2  UNL     1      14.726  42.257  57.251  1.00  0.00    -0.298 N
ATOM     13  H1  UNL     1      15.801  44.027  56.967  1.00  0.00     0.195 HD
HETATM   14  C7  UNL     1      13.611  41.790  57.709  1.00  0.00     0.039 A
ATOM     15  H2  UNL     1      15.418  41.620  56.857  1.00  0.00     0.187 HD
HETATM   16  C8  UNL     1      13.272  40.312  57.687  1.00  0.00     0.071 C
ENDBRANCH   3   9
BRANCH   1  17
HETATM   17  C2  UNL     1       9.988  39.713  60.860  1.00  0.00     0.153 C
HETATM   18  C1  UNL     1       9.237  38.495  60.459  1.00  0.00     0.096 C
HETATM   19  O1  UNL     1      10.310  39.795  62.074  1.00  0.00    -0.293 OA
ENDBRANCH   1  17
BRANCH   5  20
HETATM   20  O3  UNL     1      11.248  42.954  55.885  1.00  0.00    -0.299 OA
BRANCH  20  21
HETATM   21  C10 UNL     1      11.384  42.915  54.478  1.00  0.00     0.125 C
HETATM   22  C11 UNL     1      12.628  42.078  54.187  1.00  0.00     0.040 C
HETATM   23  C12 UNL     1      11.634  44.319  53.925  1.00  0.00     0.040 C
ENDBRANCH  20  21
ENDBRANCH   5  20
TORSDOF 4
ENDMDL