MODEL 1
REMARK VINA RESULT: -7.944572418      0.000      0.000
REMARK  7 active torsions:
REMARK  status: ('A' for Active; 'I' for Inactive)
REMARK    1  A    between atoms: C1_2  and  C2_3
REMARK    2  A    between atoms: C1_2  and  O5_19
REMARK    3  A    between atoms: C2_3  and  C3_4
REMARK    4  A    between atoms: C3_4  and  C4_5
REMARK    5  A    between atoms: C3_4  and  C11_14
REMARK    6  A    between atoms: O5_19  and  N1_20
REMARK    7  A    between atoms: N1_20  and  C15_22
ROOT
HETATM    1  C3  UNL     1       7.408  38.048  58.700  1.00  0.00     0.014 C
ENDROOT
BRANCH   1   2
HETATM    2  C2  UNL     1       6.937  37.616  57.591  1.00  0.00     0.099 C
BRANCH   2   3
HETATM    3  C1  UNL     1       5.685  37.111  57.130  1.00  0.00     0.305 C
HETATM    4  O1  UNL     1       4.672  37.915  57.241  1.00  0.00    -0.258 OA
BRANCH   3   5
HETATM    5  O5  UNL     1       5.384  35.920  56.583  1.00  0.00    -0.195 OA
BRANCH   5   6
HETATM    6  N1  UNL     1       4.252  35.712  55.837  1.00  0.00    -0.258 N
ATOM      7  H1  UNL     1       3.360  35.634  56.325  1.00  0.00     0.195 HD
BRANCH   6   8
HETATM    8  C15 UNL     1       4.256  35.611  54.578  1.00  0.00     0.195 C
HETATM    9  S1  UNL     1       3.844  35.249  53.049  1.00  0.00    -0.072 SA
ENDBRANCH   6   8
ENDBRANCH   5   6
ENDBRANCH   3   5
ENDBRANCH   2   3
ENDBRANCH   1   2
BRANCH   1  10
HETATM   10  C4  UNL     1       8.528  39.030  58.670  1.00  0.00    -0.020 A
HETATM   11  C5  UNL     1       8.893  39.613  57.485  1.00  0.00     0.015 A
HETATM   12  C6  UNL     1       9.895  40.607  57.455  1.00  0.00     0.040 A
HETATM   13  C7  UNL     1      10.508  40.992  58.617  1.00  0.00     0.105 A
HETATM   14  C8  UNL     1      10.168  40.429  59.820  1.00  0.00     0.105 A
HETATM   15  O3  UNL     1      11.505  41.925  58.882  1.00  0.00    -0.323 OA
HETATM   16  C9  UNL     1       9.174  39.451  59.814  1.00  0.00     0.052 A
HETATM   17  O2  UNL     1      10.945  41.008  60.808  1.00  0.00    -0.323 OA
HETATM   18  C10 UNL     1      12.012  41.746  60.193  1.00  0.00     0.352 C
ENDBRANCH   1  10
BRANCH   1  19
HETATM   19  C11 UNL     1       6.888  37.778  60.022  1.00  0.00     0.086 A
HETATM   20  C12 UNL     1       7.393  37.046  61.062  1.00  0.00     0.040 A
HETATM   21  C13 UNL     1       6.526  37.094  62.162  1.00  0.00     0.027 A
HETATM   22  C14 UNL     1       5.499  37.880  61.716  1.00  0.00     0.142 A
HETATM   23  O4  UNL     1       5.730  38.256  60.496  1.00  0.00    -0.322 OA
ENDBRANCH   1  19
TORSDOF 7
ENDMDL