MODEL 3
REMARK VINA RESULT: -8.625723701      2.909      4.605
REMARK  3 active torsions:
REMARK  status: ('A' for Active; 'I' for Inactive)
REMARK    1  A    between atoms: C2_2  and  C3_3
REMARK    2  A    between atoms: C3_3  and  C4_4
REMARK    3  A    between atoms: C5_10  and  C6_11
ROOT
HETATM    1  C6  UNL     1      10.338  40.322  59.936  1.00  0.00     0.046 C
HETATM    2  N3  UNL     1      11.302  41.169  59.936  1.00  0.00    -0.364 N
ATOM      3  H3  UNL     1      11.755  41.168  60.850  1.00  0.00     0.162 HD
HETATM    4  C7  UNL     1      11.941  42.097  59.097  1.00  0.00     0.223 C
HETATM    5  C8  UNL     1      13.091  41.466  58.297  1.00  0.00     0.080 C
HETATM    6  C9  UNL     1      12.640  41.161  56.876  1.00  0.00     0.172 C
HETATM    7  O2  UNL     1      11.645  40.280  56.771  1.00  0.00    -0.385 OA
HETATM    8  C10 UNL     1      10.371  40.605  56.520  1.00  0.00     0.132 C
HETATM    9  C11 UNL     1      10.067  41.454  55.315  1.00  0.00     0.011 C
HETATM   10  C12 UNL     1      10.928  41.141  54.136  1.00  0.00     0.012 C
HETATM   11  C13 UNL     1      10.001  42.919  55.562  1.00  0.00     0.009 C
HETATM   12  C14 UNL     1       9.426  43.367  56.858  1.00  0.00     0.033 C
HETATM   13  C15 UNL     1       9.889  42.518  58.059  1.00  0.00     0.131 C
HETATM   14  O3  UNL     1      11.196  42.827  58.226  1.00  0.00    -0.361 OA
HETATM   15  C16 UNL     1       9.562  41.133  57.696  1.00  0.00     0.050 C
HETATM   16  C17 UNL     1       9.434  40.120  58.808  1.00  0.00     0.069 C
ENDROOT
BRANCH   1  17
HETATM   17  C5  UNL     1      10.167  39.624  61.184  1.00  0.00     0.146 A
HETATM   18  C4  UNL     1       9.499  38.477  61.502  1.00  0.00     0.065 A
HETATM   19  N1  UNL     1       9.661  38.291  62.855  1.00  0.00    -0.282 N
HETATM   20  N2  UNL     1      10.390  39.273  63.313  1.00  0.00    -0.201 N
ATOM     21  H1  UNL     1       9.279  37.521  63.404  1.00  0.00     0.188 HD
HETATM   22  O1  UNL     1      10.689  40.046  62.364  1.00  0.00    -0.218 OA
ATOM     23  H2  UNL     1      10.673  39.395  64.285  1.00  0.00     0.216 HD
BRANCH  18  24
HETATM   24  C3  UNL     1       8.805  37.497  60.675  1.00  0.00     0.061 C
BRANCH  24  25
HETATM   25  C2  UNL     1       7.292  37.720  60.833  1.00  0.00     0.002 C
HETATM   26  C1  UNL     1       6.638  38.015  59.527  1.00  0.00     0.005 C
ENDBRANCH  24  25
ENDBRANCH  18  24
ENDBRANCH   1  17
TORSDOF 3
ENDMDL