MODEL 5
REMARK VINA RESULT: -6.827113679      2.157      3.406
REMARK  5 active torsions:
REMARK  status: ('A' for Active; 'I' for Inactive)
REMARK    1  A    between atoms: C2_2  and  C3_3
REMARK    2  A    between atoms: C5_7  and  C6_8
REMARK    3  A    between atoms: N2_10  and  C8_11
REMARK    4  A    between atoms: N4_19  and  N5_20
REMARK    5  A    between atoms: N5_20  and  O1_22
ROOT
HETATM    1  C3  UNL     1       8.968  38.572  60.194  1.00  0.00     0.121 C
HETATM    2  N1  UNL     1       9.903  39.433  60.214  1.00  0.00    -0.325 N
ATOM      3  H1  UNL     1      10.328  39.646  61.116  1.00  0.00     0.169 HD
HETATM    4  C4  UNL     1      10.408  40.127  59.066  1.00  0.00     0.129 C
HETATM    5  C5  UNL     1      11.404  40.962  59.184  1.00  0.00     0.065 C
HETATM    6  N4  UNL     1       9.786  39.795  57.831  1.00  0.00    -0.228 N
HETATM    7  C14 UNL     1       8.446  39.208  57.858  1.00  0.00     0.251 C
HETATM    8  C15 UNL     1       8.066  38.527  56.592  1.00  0.00     0.065 C
HETATM    9  O2  UNL     1       8.376  38.278  58.955  1.00  0.00    -0.312 OA
ENDROOT
BRANCH   5  10
HETATM   10  C6  UNL     1      12.043  41.755  58.173  1.00  0.00     0.008 A
HETATM   11  C7  UNL     1      11.569  42.913  57.542  1.00  0.00     0.124 A
HETATM   12  N2  UNL     1      12.443  43.307  56.607  1.00  0.00    -0.294 N
HETATM   13  N3  UNL     1      13.451  42.457  56.611  1.00  0.00    -0.302 N
HETATM   14  C12 UNL     1      13.237  41.498  57.553  1.00  0.00     0.034 A
ATOM     15  H3  UNL     1      14.267  42.510  56.001  1.00  0.00     0.186 HD
HETATM   16  C13 UNL     1      14.180  40.397  57.755  1.00  0.00     0.070 C
BRANCH  12  17
HETATM   17  C8  UNL     1      12.375  44.448  55.709  1.00  0.00     0.042 C
HETATM   18  C9  UNL     1      13.060  45.655  56.315  1.00  0.00     0.039 C
HETATM   19  C10 UNL     1      10.939  44.747  55.345  1.00  0.00     0.039 C
HETATM   20  C11 UNL     1      13.132  44.078  54.453  1.00  0.00     0.039 C
ENDBRANCH  12  17
ENDBRANCH   5  10
BRANCH   6  21
HETATM   21  N5  UNL     1      10.390  39.954  56.601  1.00  0.00    -0.204 N
ATOM     22  H5  UNL     1      11.229  39.427  56.356  1.00  0.00     0.216 HD
BRANCH  21  23
HETATM   23  O1  UNL     1       9.872  40.773  55.783  1.00  0.00    -0.274 OA
ATOM     24  H1  UNL     1      10.150  40.734  54.875  1.00  0.00     0.246 HD
ENDBRANCH  21  23
ENDBRANCH   6  21
BRANCH   1  25
HETATM   25  C2  UNL     1       8.501  37.888  61.442  1.00  0.00     0.080 C
HETATM   26  C1  UNL     1       7.285  37.075  61.083  1.00  0.00     0.013 C
ENDBRANCH   1  25
TORSDOF 5
ENDMDL