MODEL 4
REMARK VINA RESULT: -8.926746003      1.666      2.243
REMARK  13 active torsions:
REMARK  status: ('A' for Active; 'I' for Inactive)
REMARK       I    between atoms: C2_2  and  N1_4
REMARK    1  A    between atoms: N1_4  and  C3_6
REMARK    2  A    between atoms: C3_6  and  C4_7
REMARK    3  A    between atoms: C4_7  and  C5_8
REMARK    4  A    between atoms: C5_8  and  C6_9
REMARK    5  A    between atoms: C6_9  and  C7_11
REMARK    6  A    between atoms: C7_11  and  C8_12
REMARK    7  A    between atoms: C8_12  and  C9_13
REMARK    8  A    between atoms: C9_13  and  C10_14
REMARK    9  A    between atoms: C10_14  and  N2_15
REMARK       I    between atoms: N2_15  and  C11_17
REMARK   10  A    between atoms: C11_17  and  C12_19
REMARK   11  A    between atoms: N3_24  and  C17_25
REMARK   12  A    between atoms: C26_37  and  C27_38
REMARK   13  A    between atoms: C27_38  and  C28_39
ROOT
HETATM    1  C12 UNL     1      18.172  25.131  17.399  1.00  0.00     0.106 C
HETATM    2  C13 UNL     1      18.038  24.558  16.009  1.00  0.00     0.016 C
HETATM    3  C14 UNL     1      18.147  25.704  15.025  1.00  0.00     0.003 C
HETATM    4  C15 UNL     1      19.592  26.124  15.018  1.00  0.00     0.030 C
HETATM    5  C16 UNL     1      20.087  26.635  16.337  1.00  0.00     0.273 C
HETATM    6  N3  UNL     1      20.531  25.608  17.247  1.00  0.00     0.101 N
HETATM    7  C30 UNL     1      19.520  24.969  18.011  1.00  0.00     0.287 C
ENDROOT
BRANCH   6   8
HETATM    8  C17 UNL     1      21.687  26.058  18.018  1.00  0.00     0.292 C
HETATM    9  C18 UNL     1      21.973  27.479  17.644  1.00  0.00     0.044 C
HETATM   10  C19 UNL     1      23.301  27.704  16.967  1.00  0.00     0.011 C
HETATM   11  C20 UNL     1      24.459  27.025  17.647  1.00  0.00     0.091 C
HETATM   12  C21 UNL     1      25.296  26.243  16.741  1.00  0.00     0.186 C
HETATM   13  O4  UNL     1      24.916  25.966  15.628  1.00  0.00    -0.286 OA
HETATM   14  S1  UNL     1      26.899  25.687  17.272  1.00  0.00    -0.092 SA
HETATM   15  C22 UNL     1      26.797  24.297  18.449  1.00  0.00     0.092 C
HETATM   16  C23 UNL     1      26.900  24.794  19.852  1.00  0.00     0.084 C
HETATM   17  S2  UNL     1      25.715  24.043  20.991  1.00  0.00    -0.168 SA
HETATM   18  C24 UNL     1      24.092  23.809  20.214  1.00  0.00     0.075 C
HETATM   19  C25 UNL     1      23.069  24.643  20.936  1.00  0.00     0.023 C
HETATM   20  C26 UNL     1      21.734  24.735  20.284  1.00  0.00     0.067 C
HETATM   21  C29 UNL     1      21.519  25.953  19.468  1.00  0.00     0.164 C
HETATM   22  O6  UNL     1      21.166  26.967  20.078  1.00  0.00    -0.295 OA
BRANCH  20  23
HETATM   23  C27 UNL     1      21.323  23.475  19.559  1.00  0.00     0.111 C
BRANCH  23  24
HETATM   24  C28 UNL     1      20.236  22.732  20.210  1.00  0.00     0.231 C
HETATM   25  N4  UNL     1      19.967  21.368  19.935  1.00  0.00    -0.062 NA
HETATM   26  O5  UNL     1      19.507  23.315  21.050  1.00  0.00    -0.277 OA
ENDBRANCH  23  24
ENDBRANCH  20  23
ENDBRANCH   6   8
BRANCH   1  27
HETATM   27  C11 UNL     1      17.112  24.430  18.232  1.00  0.00     0.227 C
HETATM   28  N2  UNL     1      17.308  23.121  18.694  1.00  0.00    -0.340 N
ATOM     29  H2  UNL     1      18.196  22.703  18.416  1.00  0.00     0.167 HD
HETATM   30  O3  UNL     1      16.064  25.060  18.485  1.00  0.00    -0.273 OA
BRANCH  28  31
HETATM   31  C10 UNL     1      16.487  22.286  19.477  1.00  0.00     0.064 C
BRANCH  31  32
HETATM   32  C9  UNL     1      15.477  21.395  18.896  1.00  0.00     0.045 C
BRANCH  32  33
HETATM   33  C8  UNL     1      14.323  21.955  18.150  1.00  0.00     0.012 C
BRANCH  33  34
HETATM   34  C7  UNL     1      14.628  21.943  16.641  1.00  0.00     0.078 C
BRANCH  34  35
HETATM   35  C6  UNL     1      13.429  21.426  15.891  1.00  0.00     0.127 C
HETATM   36  O2  UNL     1      12.879  22.175  15.117  1.00  0.00    -0.298 OA
BRANCH  35  37
HETATM   37  C5  UNL     1      13.036  20.031  16.183  1.00  0.00     0.080 C
BRANCH  37  38
HETATM   38  C4  UNL     1      11.570  19.806  16.374  1.00  0.00     0.027 C
BRANCH  38  39
HETATM   39  C3  UNL     1      11.214  19.396  17.760  1.00  0.00     0.123 C
BRANCH  39  40
HETATM   40  N1  UNL     1      12.417  19.066  18.533  1.00  0.00    -0.361 N
HETATM   41  C2  UNL     1      12.329  18.672  19.888  1.00  0.00     0.213 C
HETATM   42  C1  UNL     1      13.604  18.349  20.609  1.00  0.00     0.117 C
HETATM   43  O1  UNL     1      11.204  18.609  20.433  1.00  0.00    -0.274 OA
ATOM     44  H1  UNL     1      13.332  19.122  18.086  1.00  0.00     0.162 HD
ENDBRANCH  39  40
ENDBRANCH  38  39
ENDBRANCH  37  38
ENDBRANCH  35  37
ENDBRANCH  34  35
ENDBRANCH  33  34
ENDBRANCH  32  33
ENDBRANCH  31  32
ENDBRANCH  28  31
ENDBRANCH   1  27
TORSDOF 13
ENDMDL