MODEL 4
REMARK VINA RESULT: -9.165262459      3.403      6.161
REMARK  15 active torsions:
REMARK  status: ('A' for Active; 'I' for Inactive)
REMARK    1  A    between atoms: C2_2  and  C3_3
REMARK    2  A    between atoms: C2_2  and  C27_45
REMARK    3  A    between atoms: C3_3  and  C4_4
REMARK    4  A    between atoms: C4_4  and  C5_5
REMARK    5  A    between atoms: C5_5  and  N1_6
REMARK    6  A    between atoms: C7_13  and  C8_14
REMARK    7  A    between atoms: C8_14  and  C9_15
REMARK    8  A    between atoms: C9_15  and  C10_16
REMARK    9  A    between atoms: C10_16  and  C11_17
REMARK   10  A    between atoms: C11_17  and  C12_18
REMARK   11  A    between atoms: C14_22  and  N5_23
REMARK       I    between atoms: N5_23  and  C15_25
REMARK   12  A    between atoms: C15_25  and  C16_27
REMARK   13  A    between atoms: C16_27  and  N6_28
REMARK       I    between atoms: N6_28  and  C17_30
REMARK   14  A    between atoms: C17_30  and  C18_32
REMARK   15  A    between atoms: N7_36  and  C22_37
ROOT
HETATM    1  C12 UNL     1      14.992  21.966  17.293  1.00  0.00     0.001 A
HETATM    2  C13 UNL     1      16.130  21.870  16.531  1.00  0.00     0.104 A
HETATM    3  N4  UNL     1      16.877  22.918  16.420  1.00  0.00    -0.345 N
ATOM      4  H4  UNL     1      17.731  22.885  15.863  1.00  0.00     0.167 HD
HETATM    5  C14 UNL     1      16.520  24.048  17.042  1.00  0.00     0.151 A
HETATM    6  S1  UNL     1      15.062  23.592  17.815  1.00  0.00    -0.057 SA
ENDROOT
BRANCH   1   7
HETATM    7  C11 UNL     1      13.998  20.884  17.559  1.00  0.00     0.048 C
BRANCH   7   8
HETATM    8  C10 UNL     1      14.062  20.517  19.021  1.00  0.00     0.006 C
BRANCH   8   9
HETATM    9  C9  UNL     1      14.586  19.111  19.212  1.00  0.00     0.007 C
BRANCH   9  10
HETATM   10  C8  UNL     1      13.677  18.315  20.131  1.00  0.00     0.066 C
BRANCH  10  11
HETATM   11  C7  UNL     1      12.488  17.891  19.309  1.00  0.00     0.069 A
HETATM   12  N3  UNL     1      11.224  17.804  19.700  1.00  0.00    -0.296 N
HETATM   13  N2  UNL     1      10.327  17.420  18.892  1.00  0.00    -0.279 N
ATOM     14  H3  UNL     1      10.972  18.047  20.658  1.00  0.00     0.187 HD
HETATM   15  C6  UNL     1      10.679  17.106  17.641  1.00  0.00     0.161 A
ATOM     16  H2  UNL     1       9.354  17.352  19.190  1.00  0.00     0.189 HD
HETATM   17  N1  UNL     1       9.902  16.692  16.666  1.00  0.00    -0.369 N
HETATM   18  S2  UNL     1      12.366  17.387  17.675  1.00  0.00    -0.038 SA
ATOM     19  H1  UNL     1       8.897  16.570  16.791  1.00  0.00     0.161 HD
BRANCH  17  20
HETATM   20  C5  UNL     1      10.553  16.421  15.405  1.00  0.00     0.121 C
BRANCH  20  21
HETATM   21  C4  UNL     1       9.925  17.347  14.367  1.00  0.00     0.020 C
BRANCH  21  22
HETATM   22  C3  UNL     1      11.050  18.216  13.824  1.00  0.00     0.013 C
BRANCH  22  23
HETATM   23  C2  UNL     1      11.238  19.443  14.702  1.00  0.00     0.049 C
HETATM   24  C1  UNL     1       9.967  20.234  14.669  1.00  0.00     0.018 C
BRANCH  23  25
HETATM   25  C27 UNL     1      12.395  20.236  14.181  1.00  0.00     0.084 A
HETATM   26  N8  UNL     1      12.404  21.567  14.311  1.00  0.00    -0.355 N
HETATM   27  C28 UNL     1      13.413  22.303  13.853  1.00  0.00     0.090 A
ATOM     28  H8  UNL     1      11.620  22.028  14.772  1.00  0.00     0.166 HD
HETATM   29  C29 UNL     1      14.493  21.698  13.221  1.00  0.00     0.034 A
HETATM   30  C30 UNL     1      14.458  20.329  13.100  1.00  0.00     0.090 A
HETATM   31  N9  UNL     1      13.423  19.632  13.577  1.00  0.00    -0.355 N
ATOM     32  H9  UNL     1      13.418  18.617  13.477  1.00  0.00     0.166 HD
ENDBRANCH  23  25
ENDBRANCH  22  23
ENDBRANCH  21  22
ENDBRANCH  20  21
ENDBRANCH  17  20
ENDBRANCH  10  11
ENDBRANCH   9  10
ENDBRANCH   8   9
ENDBRANCH   7   8
ENDBRANCH   1   7
BRANCH   5  33
HETATM   33  N5  UNL     1      17.167  25.190  17.020  1.00  0.00    -0.305 N
HETATM   34  C15 UNL     1      18.106  25.430  16.024  1.00  0.00     0.252 C
HETATM   35  O1  UNL     1      17.759  25.395  14.822  1.00  0.00    -0.270 OA
ATOM     36  H5  UNL     1      16.981  25.897  17.731  1.00  0.00     0.171 HD
BRANCH  34  37
HETATM   37  C16 UNL     1      19.545  25.743  16.308  1.00  0.00     0.114 C
HETATM   38  C23 UNL     1      19.765  27.173  15.815  1.00  0.00     0.041 C
HETATM   39  C24 UNL     1      20.461  27.038  14.495  1.00  0.00     0.003 C
HETATM   40  C25 UNL     1      21.198  25.746  14.508  1.00  0.00     0.003 C
HETATM   41  C26 UNL     1      20.477  24.901  15.518  1.00  0.00     0.041 C
BRANCH  37  42
HETATM   42  N6  UNL     1      19.728  25.674  17.746  1.00  0.00    -0.341 N
HETATM   43  C17 UNL     1      19.832  24.433  18.434  1.00  0.00     0.241 C
HETATM   44  O2  UNL     1      19.768  23.382  17.754  1.00  0.00    -0.271 OA
ATOM     45  H6  UNL     1      19.784  26.542  18.280  1.00  0.00     0.163 HD
BRANCH  43  46
HETATM   46  C18 UNL     1      20.003  24.303  19.900  1.00  0.00     0.178 C
HETATM   47  C19 UNL     1      21.416  24.325  20.369  1.00  0.00     0.037 C
HETATM   48  C20 UNL     1      21.562  23.068  21.194  1.00  0.00     0.022 C
HETATM   49  C21 UNL     1      20.363  22.219  20.880  1.00  0.00     0.126 C
HETATM   50  N7  UNL     1      19.352  23.126  20.403  1.00  0.00    -0.346 N
BRANCH  50  51
HETATM   51  C22 UNL     1      17.948  22.922  20.414  1.00  0.00     0.351 C
HETATM   52  O3  UNL     1      17.406  21.871  19.975  1.00  0.00    -0.284 OA
ENDBRANCH  50  51
ENDBRANCH  43  46
ENDBRANCH  37  42
ENDBRANCH  34  37
ENDBRANCH   5  33
TORSDOF 15
ENDMDL