MODEL 1
REMARK VINA RESULT: -9.630094852      0.000      0.000
REMARK  13 active torsions:
REMARK  status: ('A' for Active; 'I' for Inactive)
REMARK    1  A    between atoms: C4_6  and  N2_7
REMARK    2  A    between atoms: C9_13  and  C10_14
REMARK    3  A    between atoms: C10_14  and  N3_15
REMARK    4  A    between atoms: N3_15  and  C11_17
REMARK    5  A    between atoms: C11_17  and  C12_18
REMARK    6  A    between atoms: C11_17  and  C22_33
REMARK    7  A    between atoms: C12_18  and  C13_19
REMARK    8  A    between atoms: C13_19  and  C14_20
REMARK    9  A    between atoms: C14_20  and  C15_21
REMARK   10  A    between atoms: C15_21  and  C16_22
REMARK       I    between atoms: C22_33  and  N6_35
REMARK   11  A    between atoms: N6_35  and  C23_37
REMARK   12  A    between atoms: N7_40  and  C26_41
REMARK   13  A    between atoms: C26_41  and  C27_42
ROOT
HETATM    1  C11 UNL     1      16.994  22.279  19.204  1.00  0.00     0.173 C
ENDROOT
BRANCH   1   2
HETATM    2  N3  UNL     1      15.677  22.730  19.331  1.00  0.00    -0.385 N
ATOM      3  H3  UNL     1      15.380  23.150  20.212  1.00  0.00     0.159 HD
BRANCH   2   4
HETATM    4  C10 UNL     1      14.748  22.622  18.281  1.00  0.00     0.099 C
BRANCH   4   5
HETATM    5  C9  UNL     1      14.356  21.167  18.147  1.00  0.00     0.023 A
HETATM    6  C4  UNL     1      14.107  20.663  16.887  1.00  0.00     0.115 A
HETATM    7  N1  UNL     1      13.747  19.344  16.836  1.00  0.00    -0.351 N
HETATM    8  C3  UNL     1      13.637  18.572  17.926  1.00  0.00     0.096 A
ATOM      9  H1  UNL     1      13.554  18.930  15.924  1.00  0.00     0.166 HD
HETATM   10  C2  UNL     1      13.885  19.074  19.189  1.00  0.00    -0.046 A
HETATM   11  C1  UNL     1      13.761  18.210  20.411  1.00  0.00     0.049 C
HETATM   12  C34 UNL     1      14.250  20.400  19.282  1.00  0.00     0.024 A
BRANCH   6  13
HETATM   13  N2  UNL     1      14.222  21.437  15.730  1.00  0.00    -0.362 N
HETATM   14  C5  UNL     1      13.264  22.442  15.351  1.00  0.00     0.150 C
HETATM   15  C6  UNL     1      12.904  22.311  13.873  1.00  0.00     0.187 C
HETATM   16  O1  UNL     1      14.082  22.177  13.110  1.00  0.00    -0.388 OA
HETATM   17  C7  UNL     1      14.760  21.034  13.455  1.00  0.00     0.187 C
HETATM   18  C8  UNL     1      15.352  21.240  14.848  1.00  0.00     0.150 C
ENDBRANCH   6  13
ENDBRANCH   4   5
ENDBRANCH   2   4
ENDBRANCH   1   2
BRANCH   1  19
HETATM   19  C12 UNL     1      17.856  22.674  20.373  1.00  0.00     0.035 C
BRANCH  19  20
HETATM   20  C13 UNL     1      18.708  21.658  20.999  1.00  0.00     0.002 C
BRANCH  20  21
HETATM   21  C14 UNL     1      20.159  21.948  21.158  1.00  0.00     0.001 C
BRANCH  21  22
HETATM   22  C15 UNL     1      20.704  22.574  19.862  1.00  0.00     0.007 C
BRANCH  22  23
HETATM   23  C16 UNL     1      21.970  23.305  20.040  1.00  0.00     0.011 C
HETATM   24  C17 UNL     1      22.315  23.513  21.522  1.00  0.00     0.026 C
HETATM   25  C18 UNL     1      23.533  24.410  21.337  1.00  0.00     0.126 C
HETATM   26  N4  UNL     1      23.057  25.352  20.328  1.00  0.00    -0.356 N
HETATM   27  C19 UNL     1      23.221  26.691  19.877  1.00  0.00     0.136 C
HETATM   28  C21 UNL     1      22.048  24.685  19.476  1.00  0.00     0.100 C
HETATM   29  N5  UNL     1      24.275  27.416  19.824  1.00  0.00    -0.380 N
HETATM   30  S1  UNL     1      21.542  27.173  19.374  1.00  0.00    -0.092 SA
ATOM     31  H52 UNL     1      25.217  27.145  20.107  1.00  0.00     0.158 HD
ATOM     32  H51 UNL     1      24.391  28.376  19.500  1.00  0.00     0.158 HD
HETATM   33  C20 UNL     1      20.780  25.519  19.718  1.00  0.00     0.108 C
ENDBRANCH  22  23
ENDBRANCH  21  22
ENDBRANCH  20  21
ENDBRANCH  19  20
ENDBRANCH   1  19
BRANCH   1  34
HETATM   34  C22 UNL     1      17.636  22.737  17.939  1.00  0.00     0.240 C
HETATM   35  O2  UNL     1      17.794  21.962  16.981  1.00  0.00    -0.271 OA
HETATM   36  N6  UNL     1      18.081  24.105  17.825  1.00  0.00    -0.355 N
ATOM     37  H6  UNL     1      17.966  24.759  18.599  1.00  0.00     0.162 HD
BRANCH  36  38
HETATM   38  C23 UNL     1      18.689  24.520  16.596  1.00  0.00     0.087 C
HETATM   39  C24 UNL     1      20.155  24.008  16.530  1.00  0.00     0.055 C
HETATM   40  C25 UNL     1      20.548  24.194  15.087  1.00  0.00     0.274 C
HETATM   41  N7  UNL     1      20.623  25.617  14.810  1.00  0.00     0.088 N
HETATM   42  C32 UNL     1      20.087  26.451  15.836  1.00  0.00     0.274 C
HETATM   43  C33 UNL     1      18.755  25.999  16.397  1.00  0.00     0.055 C
BRANCH  41  44
HETATM   44  C26 UNL     1      22.042  25.912  14.664  1.00  0.00     0.277 C
BRANCH  44  45
HETATM   45  C27 UNL     1      22.466  27.011  15.598  1.00  0.00     0.018 C
HETATM   46  C28 UNL     1      23.720  26.540  16.343  1.00  0.00     0.032 C
HETATM   47  C29 UNL     1      24.892  27.273  15.731  1.00  0.00     0.168 C
HETATM   48  O3  UNL     1      24.806  28.614  16.104  1.00  0.00    -0.391 OA
HETATM   49  C30 UNL     1      23.630  29.170  15.657  1.00  0.00     0.168 C
HETATM   50  C31 UNL     1      22.816  28.239  14.778  1.00  0.00     0.032 C
ENDBRANCH  44  45
ENDBRANCH  41  44
ENDBRANCH  36  38
ENDBRANCH   1  34
TORSDOF 13
ENDMDL