MODEL 4
REMARK VINA RESULT: -9.194537077      2.630      5.057
REMARK  15 active torsions:
REMARK  status: ('A' for Active; 'I' for Inactive)
REMARK    1  A    between atoms: C2_2  and  C3_3
REMARK    2  A    between atoms: C3_3  and  C4_4
REMARK    3  A    between atoms: C4_4  and  O1_5
REMARK    4  A    between atoms: O1_5  and  C5_6
REMARK       I    between atoms: C5_6  and  N1_8
REMARK    5  A    between atoms: N1_8  and  C6_10
REMARK    6  A    between atoms: C6_10  and  C7_11
REMARK       I    between atoms: C7_11  and  N2_13
REMARK    7  A    between atoms: N2_13  and  C8_15
REMARK    8  A    between atoms: C8_15  and  C10_18
REMARK    9  A    between atoms: C10_18  and  C11_19
REMARK   10  A    between atoms: C11_19  and  C12_20
REMARK   11  A    between atoms: C12_20  and  C13_21
REMARK   12  A    between atoms: C13_21  and  N4_22
REMARK       I    between atoms: C14_24  and  N6_26
REMARK       I    between atoms: N6_26  and  C16_28
REMARK   13  A    between atoms: C16_28  and  O5_30
REMARK   14  A    between atoms: O5_30  and  C17_31
REMARK   15  A    between atoms: C17_31  and  C18_32
ROOT
HETATM    1  C8  UNL     1      18.136  22.842  17.539  1.00  0.00     0.192 C
HETATM    2  C9  UNL     1      18.290  23.248  18.920  1.00  0.00     0.084 C
HETATM    3  N3  UNL     1      18.404  23.593  20.035  1.00  0.00    -0.195 NA
ENDROOT
BRANCH   1   4
HETATM    4  N2  UNL     1      16.723  22.977  17.157  1.00  0.00    -0.342 N
HETATM    5  C7  UNL     1      16.054  21.881  16.557  1.00  0.00     0.248 C
HETATM    6  O3  UNL     1      16.729  20.819  16.385  1.00  0.00    -0.271 OA
ATOM      7  H2  UNL     1      16.227  23.854  17.321  1.00  0.00     0.163 HD
BRANCH   5   8
HETATM    8  C6  UNL     1      14.651  21.902  16.136  1.00  0.00     0.123 C
HETATM    9  C23 UNL     1      14.130  23.312  16.296  1.00  0.00     0.042 C
HETATM   10  C24 UNL     1      13.260  23.607  15.097  1.00  0.00     0.004 C
HETATM   11  C25 UNL     1      13.038  22.262  14.439  1.00  0.00     0.012 C
HETATM   12  C26 UNL     1      14.404  21.603  14.688  1.00  0.00    -0.006 C
HETATM   13  C27 UNL     1      15.383  22.150  13.722  1.00  0.00     0.012 C
HETATM   14  C30 UNL     1      14.312  20.137  14.357  1.00  0.00     0.012 C
HETATM   15  C28 UNL     1      14.961  21.454  12.414  1.00  0.00     0.001 C
HETATM   16  C29 UNL     1      14.395  20.140  12.836  1.00  0.00     0.001 C
BRANCH   8  17
HETATM   17  N1  UNL     1      13.923  20.970  16.988  1.00  0.00    -0.318 N
HETATM   18  C5  UNL     1      13.881  21.085  18.415  1.00  0.00     0.361 C
HETATM   19  O2  UNL     1      14.473  22.008  19.042  1.00  0.00    -0.238 OA
ATOM     20  H1  UNL     1      13.420  20.200  16.547  1.00  0.00     0.166 HD
BRANCH  18  21
HETATM   21  O1  UNL     1      13.178  20.177  19.191  1.00  0.00    -0.304 OA
BRANCH  21  22
HETATM   22  C4  UNL     1      13.783  19.185  19.945  1.00  0.00     0.180 C
BRANCH  22  23
HETATM   23  C3  UNL     1      13.178  17.823  19.877  1.00  0.00     0.026 C
BRANCH  23  24
HETATM   24  C2  UNL     1      13.532  17.265  18.489  1.00  0.00    -0.002 C
HETATM   25  C1  UNL     1      15.012  17.269  18.251  1.00  0.00     0.005 C
ENDBRANCH  23  24
ENDBRANCH  22  23
ENDBRANCH  21  22
ENDBRANCH  18  21
ENDBRANCH   8  17
ENDBRANCH   5   8
ENDBRANCH   1   4
BRANCH   1  26
HETATM   26  C10 UNL     1      18.935  23.751  16.639  1.00  0.00     0.040 C
BRANCH  26  27
HETATM   27  C11 UNL     1      18.411  25.157  16.773  1.00  0.00     0.004 C
BRANCH  27  28
HETATM   28  C12 UNL     1      17.755  25.572  15.465  1.00  0.00     0.020 C
BRANCH  28  29
HETATM   29  C13 UNL     1      18.917  25.910  14.502  1.00  0.00     0.122 C
BRANCH  29  30
HETATM   30  N4  UNL     1      19.539  27.095  14.896  1.00  0.00    -0.364 N
HETATM   31  C14 UNL     1      20.736  27.370  15.166  1.00  0.00     0.194 C
HETATM   32  N5  UNL     1      20.947  28.771  15.541  1.00  0.00    -0.063 NA
HETATM   33  N6  UNL     1      21.872  26.558  15.172  1.00  0.00    -0.272 N
HETATM   34  C15 UNL     1      21.791  25.147  14.844  1.00  0.00     0.164 C
HETATM   35  C16 UNL     1      23.164  27.112  15.510  1.00  0.00     0.369 C
HETATM   36  O4  UNL     1      23.220  28.324  15.787  1.00  0.00    -0.238 OA
ATOM     37  H4  UNL     1      18.903  27.888  14.980  1.00  0.00     0.162 HD
BRANCH  35  38
HETATM   38  O5  UNL     1      24.275  26.302  15.516  1.00  0.00    -0.301 OA
BRANCH  38  39
HETATM   39  C17 UNL     1      25.536  26.686  15.857  1.00  0.00     0.215 C
BRANCH  39  40
HETATM   40  C18 UNL     1      26.159  26.214  17.113  1.00  0.00     0.200 A
HETATM   41  N7  UNL     1      25.876  24.915  17.587  1.00  0.00    -0.355 N
HETATM   42  C19 UNL     1      25.537  24.900  18.820  1.00  0.00     0.145 A
ATOM     43  H7  UNL     1      25.936  24.077  17.009  1.00  0.00     0.162 HD
HETATM   44  S1  UNL     1      25.047  23.812  20.145  1.00  0.00    -0.092 SA
HETATM   45  N8  UNL     1      25.492  26.204  19.372  1.00  0.00    -0.296 N
HETATM   46  C20 UNL     1      24.221  25.144  21.137  1.00  0.00     0.103 C
HETATM   47  C21 UNL     1      25.138  26.277  20.749  1.00  0.00     0.144 C
HETATM   48  C22 UNL     1      25.858  27.084  18.279  1.00  0.00     0.250 A
HETATM   49  O6  UNL     1      25.924  28.332  18.260  1.00  0.00    -0.271 OA
ENDBRANCH  39  40
ENDBRANCH  38  39
ENDBRANCH  35  38
ENDBRANCH  29  30
ENDBRANCH  28  29
ENDBRANCH  27  28
ENDBRANCH  26  27
ENDBRANCH   1  26
TORSDOF 15
ENDMDL