MODEL 3
REMARK VINA RESULT: -9.413800665      3.033      6.147
REMARK  16 active torsions:
REMARK  status: ('A' for Active; 'I' for Inactive)
REMARK    1  A    between atoms: C2_2  and  C3_3
REMARK    2  A    between atoms: C3_3  and  C4_4
REMARK    3  A    between atoms: C4_4  and  C5_5
REMARK    4  A    between atoms: C5_5  and  O1_6
REMARK    5  A    between atoms: O1_6  and  C6_7
REMARK       I    between atoms: C6_7  and  N1_9
REMARK    6  A    between atoms: N2_12  and  C9_13
REMARK    7  A    between atoms: C9_13  and  O3_14
REMARK    8  A    between atoms: C9_13  and  C10_16
REMARK    9  A    between atoms: C10_16  and  C11_17
REMARK   10  A    between atoms: C10_16  and  N3_22
REMARK   11  A    between atoms: C11_17  and  C12_18
REMARK   12  A    between atoms: C12_18  and  C13_19
REMARK       I    between atoms: N3_22  and  C14_24
REMARK   13  A    between atoms: C14_24  and  C15_26
REMARK   14  A    between atoms: N5_30  and  C17_31
REMARK   15  A    between atoms: C23_37  and  C24_38
REMARK       I    between atoms: C24_38  and  N6_40
REMARK   16  A    between atoms: N6_40  and  C25_42
ROOT
HETATM    1  C25 UNL     1      21.827  26.704  16.096  1.00  0.00     0.122 C
HETATM    2  C26 UNL     1      22.730  27.828  15.833  1.00  0.00     0.091 C
HETATM    3  N7  UNL     1      23.453  28.710  15.606  1.00  0.00    -0.195 NA
HETATM    4  C27 UNL     1      20.439  27.139  16.406  1.00  0.00     0.046 C
HETATM    5  C28 UNL     1      19.770  27.369  15.070  1.00  0.00     0.004 C
HETATM    6  C29 UNL     1      20.633  26.742  14.018  1.00  0.00     0.004 C
HETATM    7  C30 UNL     1      21.664  25.961  14.788  1.00  0.00     0.046 C
ENDROOT
BRANCH   1   8
HETATM    8  N6  UNL     1      22.408  25.794  17.074  1.00  0.00    -0.334 N
HETATM    9  C24 UNL     1      22.574  26.130  18.427  1.00  0.00     0.272 C
HETATM   10  O7  UNL     1      22.139  27.313  18.719  1.00  0.00    -0.266 OA
ATOM     11  H6  UNL     1      22.710  24.871  16.761  1.00  0.00     0.164 HD
BRANCH   9  12
HETATM   12  C23 UNL     1      23.144  25.363  19.508  1.00  0.00     0.136 A
HETATM   13  C15 UNL     1      22.372  24.650  20.424  1.00  0.00     0.082 A
HETATM   14  C16 UNL     1      23.323  24.190  21.372  1.00  0.00     0.127 A
HETATM   15  N4  UNL     1      24.499  24.619  20.987  1.00  0.00    -0.308 N
HETATM   16  N5  UNL     1      24.429  25.329  19.866  1.00  0.00    -0.281 N
ATOM     17  H4  UNL     1      25.366  24.430  21.489  1.00  0.00     0.186 HD
BRANCH  13  18
HETATM   18  C14 UNL     1      20.967  24.286  20.472  1.00  0.00     0.256 C
HETATM   19  N3  UNL     1      20.394  23.255  19.733  1.00  0.00    -0.345 N
ATOM     20  H3  UNL     1      20.980  22.736  19.080  1.00  0.00     0.163 HD
HETATM   21  O6  UNL     1      20.274  24.986  21.268  1.00  0.00    -0.268 OA
BRANCH  19  22
HETATM   22  C10 UNL     1      18.971  22.885  19.858  1.00  0.00     0.160 C
BRANCH  22  23
HETATM   23  C9  UNL     1      18.179  23.978  19.275  1.00  0.00     0.137 C
BRANCH  23  24
HETATM   24  N2  UNL     1      17.936  24.372  17.982  1.00  0.00    -0.361 N
HETATM   25  C8  UNL     1      18.696  24.179  16.791  1.00  0.00     0.144 C
HETATM   26  C7  UNL     1      17.929  23.270  15.845  1.00  0.00     0.148 C
HETATM   27  N1  UNL     1      16.519  23.443  15.883  1.00  0.00    -0.325 N
HETATM   28  C6  UNL     1      15.715  22.617  15.042  1.00  0.00     0.362 C
HETATM   29  C32 UNL     1      15.854  24.393  16.710  1.00  0.00     0.148 C
HETATM   30  O2  UNL     1      16.230  21.747  14.275  1.00  0.00    -0.238 OA
HETATM   31  C31 UNL     1      16.665  25.109  17.728  1.00  0.00     0.144 C
BRANCH  28  32
HETATM   32  O1  UNL     1      14.334  22.725  15.021  1.00  0.00    -0.304 OA
BRANCH  32  33
HETATM   33  C5  UNL     1      13.490  22.468  13.946  1.00  0.00     0.180 C
BRANCH  33  34
HETATM   34  C4  UNL     1      12.839  21.113  13.977  1.00  0.00     0.027 C
BRANCH  34  35
HETATM   35  C3  UNL     1      11.744  21.037  15.020  1.00  0.00     0.002 C
BRANCH  35  36
HETATM   36  C2  UNL     1      10.503  20.369  14.490  1.00  0.00    -0.004 C
HETATM   37  C1  UNL     1       9.413  21.365  14.236  1.00  0.00     0.005 C
ENDBRANCH  35  36
ENDBRANCH  34  35
ENDBRANCH  33  34
ENDBRANCH  32  33
ENDBRANCH  28  32
ENDBRANCH  23  24
BRANCH  23  38
HETATM   38  O3  UNL     1      17.594  24.718  20.208  1.00  0.00    -0.348 OA
ATOM     39  H3  UNL     1      17.893  24.558  21.095  1.00  0.00     0.219 HD
ENDBRANCH  23  38
ENDBRANCH  22  23
BRANCH  22  40
HETATM   40  C11 UNL     1      18.646  21.511  19.519  1.00  0.00     0.044 C
BRANCH  40  41
HETATM   41  C12 UNL     1      17.133  21.332  19.327  1.00  0.00     0.116 C
BRANCH  41  42
HETATM   42  C13 UNL     1      16.919  20.624  18.054  1.00  0.00     0.172 C
HETATM   43  O4  UNL     1      17.895  20.344  17.327  1.00  0.00    -0.648 OA
HETATM   44  O5  UNL     1      15.654  20.269  17.655  1.00  0.00    -0.648 OA
ENDBRANCH  41  42
ENDBRANCH  40  41
ENDBRANCH  22  40
ENDBRANCH  19  22
ENDBRANCH  13  18
BRANCH  16  45
HETATM   45  C17 UNL     1      25.607  25.921  19.283  1.00  0.00     0.108 C
HETATM   46  C18 UNL     1      26.747  25.825  20.239  1.00  0.00     0.027 C
HETATM   47  C19 UNL     1      27.566  24.585  20.188  1.00  0.00     0.002 C
HETATM   48  C20 UNL     1      28.002  24.311  18.780  1.00  0.00     0.000 C
HETATM   49  C21 UNL     1      26.704  24.030  18.004  1.00  0.00     0.002 C
HETATM   50  C22 UNL     1      25.908  25.282  17.919  1.00  0.00     0.027 C
ENDBRANCH  16  45
ENDBRANCH   9  12
ENDBRANCH   1   8
TORSDOF 16
ENDMDL