MODEL 3
REMARK VINA RESULT: -9.061438162      1.129      2.231
REMARK  16 active torsions:
REMARK  status: ('A' for Active; 'I' for Inactive)
REMARK    1  A    between atoms: C2_2  and  C3_3
REMARK    2  A    between atoms: C3_3  and  N1_4
REMARK    3  A    between atoms: N1_4  and  C4_6
REMARK    4  A    between atoms: C4_6  and  C5_7
REMARK    5  A    between atoms: C4_6  and  C21_27
REMARK    6  A    between atoms: C9_11  and  C10_12
REMARK    7  A    between atoms: C10_12  and  O1_13
REMARK    8  A    between atoms: O1_13  and  C11_14
REMARK    9  A    between atoms: C11_14  and  C12_15
REMARK   10  A    between atoms: C12_15  and  C13_16
REMARK   11  A    between atoms: C13_16  and  C14_17
REMARK   12  A    between atoms: C14_17  and  C15_18
REMARK   13  A    between atoms: C26_32  and  C27_33
REMARK   14  A    between atoms: C30_38  and  C31_39
REMARK   15  A    between atoms: C33_41  and  O6_42
REMARK   16  A    between atoms: C34_44  and  O7_46
ROOT
HETATM    1  C4  UNL     1      16.935  22.014  18.445  1.00  0.00     0.029 C
ENDROOT
BRANCH   1   2
HETATM    2  N1  UNL     1      17.445  22.314  19.496  1.00  0.00    -0.370 N
ATOM      3  H1  UNL     1      17.216  23.299  19.630  1.00  0.00     0.165 HD
BRANCH   2   4
HETATM    4  C3  UNL     1      18.175  21.973  20.584  1.00  0.00     0.087 C
BRANCH   4   5
HETATM    5  C2  UNL     1      19.591  21.602  20.351  1.00  0.00     0.007 C
HETATM    6  C1  UNL     1      20.605  22.440  20.280  1.00  0.00     0.012 C
ENDBRANCH   4   5
ENDBRANCH   2   4
ENDBRANCH   1   2
BRANCH   1   7
HETATM    7  C5  UNL     1      17.409  22.616  17.150  1.00  0.00     0.051 C
HETATM    8  C6  UNL     1      18.626  21.917  16.636  1.00  0.00     0.012 C
HETATM    9  C7  UNL     1      19.730  22.946  16.553  1.00  0.00     0.009 C
HETATM   10  C8  UNL     1      19.245  24.087  17.471  1.00  0.00     0.034 C
HETATM   11  C9  UNL     1      19.951  25.324  17.074  1.00  0.00     0.161 C
HETATM   12  C19 UNL     1      17.762  24.037  17.145  1.00  0.00     0.042 C
HETATM   13  O2  UNL     1      19.215  26.225  16.299  1.00  0.00    -0.307 OA
HETATM   14  C17 UNL     1      18.319  25.729  15.365  1.00  0.00     0.330 C
HETATM   15  O3  UNL     1      18.079  26.341  14.275  1.00  0.00    -0.256 OA
HETATM   16  C18 UNL     1      17.666  24.475  15.696  1.00  0.00     0.233 C
HETATM   17  O4  UNL     1      17.069  23.798  14.861  1.00  0.00    -0.286 OA
HETATM   18  C20 UNL     1      16.958  25.006  17.915  1.00  0.00     0.025 C
BRANCH  11  19
HETATM   19  C10 UNL     1      20.415  26.108  18.311  1.00  0.00     0.200 C
BRANCH  19  20
HETATM   20  O1  UNL     1      21.346  27.066  18.040  1.00  0.00    -0.389 OA
BRANCH  20  21
HETATM   21  C11 UNL     1      22.647  26.793  18.327  1.00  0.00     0.167 C
BRANCH  21  22
HETATM   22  C12 UNL     1      22.850  25.807  19.455  1.00  0.00     0.026 C
BRANCH  22  23
HETATM   23  C13 UNL     1      24.181  25.143  19.318  1.00  0.00     0.002 C
BRANCH  23  24
HETATM   24  C14 UNL     1      24.263  24.038  20.334  1.00  0.00    -0.000 C
BRANCH  24  25
HETATM   25  C15 UNL     1      23.464  24.352  21.581  1.00  0.00    -0.005 C
HETATM   26  C16 UNL     1      24.304  24.383  22.812  1.00  0.00     0.005 C
ENDBRANCH  24  25
ENDBRANCH  23  24
ENDBRANCH  22  23
ENDBRANCH  21  22
ENDBRANCH  20  21
ENDBRANCH  19  20
ENDBRANCH  11  19
ENDBRANCH   1   7
BRANCH   1  27
HETATM   27  C21 UNL     1      15.818  21.035  18.339  1.00  0.00     0.127 A
HETATM   28  C22 UNL     1      14.568  21.229  19.109  1.00  0.00     0.055 C
HETATM   29  C23 UNL     1      13.521  20.282  18.468  1.00  0.00     0.032 C
HETATM   30  C24 UNL     1      13.905  20.585  17.088  1.00  0.00     0.026 C
HETATM   31  C34 UNL     1      13.361  19.010  19.086  1.00  0.00     0.085 C
HETATM   32  C25 UNL     1      13.140  20.075  15.955  1.00  0.00     0.024 C
HETATM   33  C36 UNL     1      15.406  20.501  16.966  1.00  0.00     0.168 A
HETATM   34  C26 UNL     1      11.656  20.234  16.258  1.00  0.00     0.080 C
HETATM   35  C29 UNL     1      11.210  19.129  17.143  1.00  0.00     0.141 C
HETATM   36  O5  UNL     1      10.140  19.398  17.687  1.00  0.00    -0.297 OA
HETATM   37  C30 UNL     1      11.764  17.824  17.493  1.00  0.00     0.087 C
HETATM   38  C33 UNL     1      12.988  17.797  18.301  1.00  0.00     0.163 C
HETATM   39  O8  UNL     1      16.181  19.815  17.809  1.00  0.00    -0.362 OA
HETATM   40  C35 UNL     1      14.486  18.474  19.989  1.00  0.00     0.049 C
BRANCH  34  41
HETATM   41  C27 UNL     1      10.851  20.147  15.010  1.00  0.00    -0.000 C
HETATM   42  C28 UNL     1       9.774  20.894  14.908  1.00  0.00     0.096 C
HETATM   43  N2  UNL     1       8.997  20.819  13.723  1.00  0.00    -0.115 NA
ENDBRANCH  34  41
BRANCH  37  44
HETATM   44  C31 UNL     1      10.610  16.987  18.068  1.00  0.00     0.010 C
HETATM   45  C32 UNL     1      10.731  15.568  17.614  1.00  0.00     0.006 C
ENDBRANCH  37  44
BRANCH  38  46
HETATM   46  O6  UNL     1      14.085  17.181  17.649  1.00  0.00    -0.392 OA
ATOM     47  H6  UNL     1      13.893  16.902  16.762  1.00  0.00     0.210 HD
ENDBRANCH  38  46
BRANCH  31  48
HETATM   48  O7  UNL     1      12.275  19.102  20.028  1.00  0.00    -0.387 OA
ATOM     49  H7  UNL     1      12.480  19.792  20.647  1.00  0.00     0.210 HD
ENDBRANCH  31  48
ENDBRANCH   1  27
TORSDOF 16
ENDMDL