MODEL 2
REMARK VINA RESULT: -8.787326515      3.727      9.190
REMARK  13 active torsions:
REMARK  status: ('A' for Active; 'I' for Inactive)
REMARK    1  A    between atoms: C2_2  and  N1_3
REMARK    2  A    between atoms: C6_7  and  C7_8
REMARK       I    between atoms: C7_8  and  N2_10
REMARK    3  A    between atoms: N3_13  and  C10_14
REMARK    4  A    between atoms: C10_14  and  C11_15
REMARK    5  A    between atoms: C11_15  and  C12_16
REMARK    6  A    between atoms: C12_16  and  C13_17
REMARK    7  A    between atoms: C13_17  and  C14_18
REMARK    8  A    between atoms: C14_18  and  C15_19
REMARK    9  A    between atoms: C15_19  and  S1_20
REMARK   10  A    between atoms: S1_20  and  C16_21
REMARK   11  A    between atoms: C20_27  and  C21_28
REMARK   12  A    between atoms: C22_32  and  C23_33
REMARK   13  A    between atoms: C23_33  and  N6_34
REMARK       I    between atoms: N6_34  and  C24_36
ROOT
HETATM    1  C16 UNL     1      12.923  21.434  14.892  1.00  0.00     0.145 A
HETATM    2  N4  UNL     1      13.010  22.048  16.074  1.00  0.00    -0.335 N
ATOM      3  H4  UNL     1      12.280  22.055  16.787  1.00  0.00     0.168 HD
HETATM    4  C17 UNL     1      14.197  22.655  16.185  1.00  0.00     0.061 A
HETATM    5  C18 UNL     1      14.791  23.422  17.194  1.00  0.00     0.033 A
HETATM    6  C19 UNL     1      16.049  23.913  16.996  1.00  0.00     0.017 A
HETATM    7  C20 UNL     1      16.719  23.655  15.822  1.00  0.00     0.012 A
HETATM    8  C28 UNL     1      16.129  22.890  14.809  1.00  0.00     0.047 A
HETATM    9  C29 UNL     1      14.870  22.401  15.013  1.00  0.00     0.062 A
HETATM   10  N9  UNL     1      14.064  21.646  14.231  1.00  0.00    -0.335 N
ATOM     11  H9  UNL     1      14.289  21.298  13.299  1.00  0.00     0.168 HD
ENDROOT
BRANCH   1  12
HETATM   12  S1  UNL     1      11.501  20.473  14.287  1.00  0.00    -0.094 SA
BRANCH  12  13
HETATM   13  C15 UNL     1      11.140  19.129  15.414  1.00  0.00     0.082 C
BRANCH  13  14
HETATM   14  C14 UNL     1      10.430  19.555  16.665  1.00  0.00     0.010 C
BRANCH  14  15
HETATM   15  C13 UNL     1      11.086  19.133  17.921  1.00  0.00     0.001 C
BRANCH  15  16
HETATM   16  C12 UNL     1      11.414  17.704  18.089  1.00  0.00     0.005 C
BRANCH  16  17
HETATM   17  C11 UNL     1      12.594  17.388  18.938  1.00  0.00     0.044 C
BRANCH  17  18
HETATM   18  C10 UNL     1      13.883  17.614  18.148  1.00  0.00     0.063 C
BRANCH  18  19
HETATM   19  N3  UNL     1      14.541  18.814  18.381  1.00  0.00    -0.371 N
HETATM   20  C9  UNL     1      14.608  19.381  19.663  1.00  0.00     0.147 C
HETATM   21  C8  UNL     1      15.180  20.811  19.613  1.00  0.00     0.146 C
HETATM   22  N2  UNL     1      16.355  20.765  18.789  1.00  0.00    -0.345 N
HETATM   23  C7  UNL     1      17.581  21.344  19.205  1.00  0.00     0.226 C
HETATM   24  C31 UNL     1      16.322  20.115  17.493  1.00  0.00     0.170 C
HETATM   25  O1  UNL     1      18.594  21.297  18.416  1.00  0.00    -0.273 OA
HETATM   26  C30 UNL     1      14.951  19.562  17.265  1.00  0.00     0.083 C
BRANCH  23  27
HETATM   27  C6  UNL     1      17.776  22.008  20.508  1.00  0.00     0.106 C
HETATM   28  C5  UNL     1      18.932  21.337  21.223  1.00  0.00     0.017 C
HETATM   29  C4  UNL     1      20.052  22.325  21.487  1.00  0.00     0.031 C
HETATM   30  C3  UNL     1      20.458  23.122  20.297  1.00  0.00     0.272 C
HETATM   31  N1  UNL     1      19.335  23.506  19.477  1.00  0.00     0.088 N
HETATM   32  C32 UNL     1      18.135  23.455  20.281  1.00  0.00     0.286 C
BRANCH  31  33
HETATM   33  C2  UNL     1      19.519  24.755  18.796  1.00  0.00     0.268 C
HETATM   34  C1  UNL     1      20.773  25.418  19.304  1.00  0.00     0.037 C
ENDBRANCH  31  33
ENDBRANCH  23  27
ENDBRANCH  18  19
ENDBRANCH  17  18
ENDBRANCH  16  17
ENDBRANCH  15  16
ENDBRANCH  14  15
ENDBRANCH  13  14
ENDBRANCH  12  13
ENDBRANCH   1  12
BRANCH   7  35
HETATM   35  C21 UNL     1      18.075  24.164  15.599  1.00  0.00     0.139 C
HETATM   36  N5  UNL     1      19.113  23.386  15.790  1.00  0.00    -0.249 N
HETATM   37  O2  UNL     1      20.391  23.803  15.599  1.00  0.00    -0.264 OA
ATOM     38  H5  UNL     1      18.954  22.425  16.095  1.00  0.00     0.196 HD
HETATM   39  C22 UNL     1      20.787  25.161  15.615  1.00  0.00     0.237 C
HETATM   40  C26 UNL     1      19.691  25.944  15.001  1.00  0.00     0.112 C
HETATM   41  N7  UNL     1      19.952  26.998  14.316  1.00  0.00    -0.386 N
HETATM   42  N8  UNL     1      18.327  25.491  15.192  1.00  0.00    -0.323 N
ATOM     43  H72 UNL     1      20.912  27.317  14.181  1.00  0.00     0.157 HD
ATOM     44  H71 UNL     1      19.197  27.537  13.893  1.00  0.00     0.157 HD
HETATM   45  C27 UNL     1      17.273  26.437  14.973  1.00  0.00     0.159 C
BRANCH  39  46
HETATM   46  C23 UNL     1      22.066  25.255  14.812  1.00  0.00     0.165 C
BRANCH  46  47
HETATM   47  N6  UNL     1      23.101  25.924  15.566  1.00  0.00    -0.358 N
HETATM   48  C24 UNL     1      23.413  27.292  15.415  1.00  0.00     0.213 C
HETATM   49  C25 UNL     1      24.482  27.932  16.209  1.00  0.00     0.117 C
HETATM   50  O3  UNL     1      22.736  27.950  14.566  1.00  0.00    -0.274 OA
ATOM     51  H6  UNL     1      23.635  25.378  16.243  1.00  0.00     0.162 HD
ENDBRANCH  46  47
ENDBRANCH  39  46
ENDBRANCH   7  35
TORSDOF 13
ENDMDL