MODEL 4
REMARK VINA RESULT: -8.664010371      2.159     11.429
REMARK  18 active torsions:
REMARK  status: ('A' for Active; 'I' for Inactive)
REMARK    1  A    between atoms: C2_2  and  C3_3
REMARK    2  A    between atoms: C3_3  and  C4_4
REMARK    3  A    between atoms: C4_4  and  C5_5
REMARK    4  A    between atoms: C5_5  and  C6_6
REMARK    5  A    between atoms: C6_6  and  C7_7
REMARK    6  A    between atoms: C7_7  and  C8_8
REMARK    7  A    between atoms: C8_8  and  C9_9
REMARK    8  A    between atoms: C9_9  and  C10_10
REMARK    9  A    between atoms: C10_10  and  C11_11
REMARK       I    between atoms: C11_11  and  N1_13
REMARK       I    between atoms: N2_16  and  C14_17
REMARK   10  A    between atoms: C14_17  and  O3_19
REMARK   11  A    between atoms: O3_19  and  C15_20
REMARK   12  A    between atoms: C15_20  and  C16_21
REMARK       I    between atoms: C16_21  and  N3_23
REMARK       I    between atoms: N5_34  and  C25_35
REMARK   13  A    between atoms: C25_35  and  O6_37
REMARK   14  A    between atoms: O6_37  and  C26_38
REMARK   15  A    between atoms: C26_38  and  C27_39
REMARK   16  A    between atoms: C27_39  and  C28_40
REMARK   17  A    between atoms: C28_40  and  O7_41
REMARK   18  A    between atoms: C28_40  and  O8_43
ROOT
HETATM    1  C16 UNL     1      16.434  22.597  17.672  1.00  0.00     0.244 C
HETATM    2  O4  UNL     1      16.480  21.324  17.775  1.00  0.00    -0.271 OA
HETATM    3  N3  UNL     1      17.553  23.322  18.164  1.00  0.00    -0.349 N
HETATM    4  C17 UNL     1      18.643  22.568  18.758  1.00  0.00     0.126 C
HETATM    5  C18 UNL     1      18.730  22.796  20.250  1.00  0.00     0.020 C
HETATM    6  C19 UNL     1      19.938  22.206  20.887  1.00  0.00     0.003 C
HETATM    7  C20 UNL     1      21.246  22.762  20.447  1.00  0.00     0.019 C
HETATM    8  C21 UNL     1      21.448  24.227  20.708  1.00  0.00     0.113 C
HETATM    9  N4  UNL     1      21.935  24.943  19.575  1.00  0.00    -0.421 N
ATOM     10  H4  UNL     1      22.286  24.452  18.753  1.00  0.00     0.153 HD
HETATM   11  C22 UNL     1      21.914  26.355  19.630  1.00  0.00     0.118 C
HETATM   12  C23 UNL     1      21.174  26.975  18.421  1.00  0.00     0.064 C
HETATM   13  C24 UNL     1      19.939  26.247  18.187  1.00  0.00     0.071 C
HETATM   14  N5  UNL     1      19.585  25.709  16.941  1.00  0.00    -0.306 N
HETATM   15  C25 UNL     1      20.372  25.496  15.788  1.00  0.00     0.366 C
HETATM   16  O5  UNL     1      19.853  24.989  14.723  1.00  0.00    -0.238 OA
HETATM   17  C29 UNL     1      18.169  25.303  16.812  1.00  0.00     0.153 C
HETATM   18  C30 UNL     1      17.567  24.753  18.052  1.00  0.00     0.146 C
ENDROOT
BRANCH   1  19
HETATM   19  C15 UNL     1      15.248  23.204  17.066  1.00  0.00     0.283 C
BRANCH  19  20
HETATM   20  O3  UNL     1      15.380  23.238  15.672  1.00  0.00    -0.295 OA
BRANCH  20  21
HETATM   21  C14 UNL     1      15.207  22.166  14.811  1.00  0.00     0.363 C
HETATM   22  N2  UNL     1      13.975  21.921  14.160  1.00  0.00    -0.325 N
HETATM   23  C13 UNL     1      12.855  22.769  14.394  1.00  0.00     0.148 C
HETATM   24  C31 UNL     1      13.866  20.821  13.250  1.00  0.00     0.148 C
HETATM   25  C12 UNL     1      11.615  21.964  14.531  1.00  0.00     0.145 C
HETATM   26  N1  UNL     1      11.753  20.545  14.456  1.00  0.00    -0.349 N
HETATM   27  C11 UNL     1      10.729  19.745  15.044  1.00  0.00     0.219 C
HETATM   28  C32 UNL     1      12.853  19.860  13.821  1.00  0.00     0.145 C
HETATM   29  O1  UNL     1       9.731  20.295  15.610  1.00  0.00    -0.273 OA
HETATM   30  O2  UNL     1      16.213  21.408  14.629  1.00  0.00    -0.238 OA
BRANCH  27  31
HETATM   31  C10 UNL     1      10.876  18.277  14.973  1.00  0.00     0.103 C
BRANCH  31  32
HETATM   32  C9  UNL     1      10.422  17.595  16.231  1.00  0.00     0.009 C
BRANCH  32  33
HETATM   33  C8  UNL     1      11.504  16.775  16.825  1.00  0.00     0.000 C
BRANCH  33  34
HETATM   34  C7  UNL     1      11.333  16.598  18.336  1.00  0.00     0.000 C
BRANCH  34  35
HETATM   35  C6  UNL     1      11.073  17.896  18.984  1.00  0.00     0.000 C
BRANCH  35  36
HETATM   36  C5  UNL     1      11.799  18.236  20.236  1.00  0.00     0.000 C
BRANCH  36  37
HETATM   37  C4  UNL     1      13.256  18.158  20.298  1.00  0.00     0.000 C
BRANCH  37  38
HETATM   38  C3  UNL     1      14.116  19.117  19.581  1.00  0.00    -0.000 C
BRANCH  38  39
HETATM   39  C2  UNL     1      14.596  18.654  18.225  1.00  0.00    -0.005 C
HETATM   40  C1  UNL     1      15.023  17.192  18.322  1.00  0.00     0.005 C
ENDBRANCH  38  39
ENDBRANCH  37  38
ENDBRANCH  36  37
ENDBRANCH  35  36
ENDBRANCH  34  35
ENDBRANCH  33  34
ENDBRANCH  32  33
ENDBRANCH  31  32
ENDBRANCH  27  31
ENDBRANCH  20  21
ENDBRANCH  19  20
ENDBRANCH   1  19
BRANCH  15  41
HETATM   41  O6  UNL     1      21.716  25.774  15.622  1.00  0.00    -0.304 OA
BRANCH  41  42
HETATM   42  C26 UNL     1      22.144  26.767  14.713  1.00  0.00     0.185 C
BRANCH  42  43
HETATM   43  C27 UNL     1      22.848  27.857  15.441  1.00  0.00     0.087 C
BRANCH  43  44
HETATM   44  C28 UNL     1      24.217  27.472  15.936  1.00  0.00     0.256 C
BRANCH  44  45
HETATM   45  O7  UNL     1      24.431  27.952  17.233  1.00  0.00    -0.371 OA
ATOM     46  H7  UNL     1      24.408  27.243  17.864  1.00  0.00     0.212 HD
ENDBRANCH  44  45
BRANCH  44  47
HETATM   47  O8  UNL     1      24.366  26.096  15.933  1.00  0.00    -0.371 OA
ATOM     48  H8  UNL     1      24.966  25.826  15.248  1.00  0.00     0.212 HD
ENDBRANCH  44  47
ENDBRANCH  43  44
ENDBRANCH  42  43
ENDBRANCH  41  42
ENDBRANCH  15  41
TORSDOF 18
ENDMDL