MODEL 3
REMARK VINA RESULT: -9.955441184      1.960      2.717
REMARK  14 active torsions:
REMARK  status: ('A' for Active; 'I' for Inactive)
REMARK    1  A    between atoms: C2_2  and  C3_3
REMARK       I    between atoms: C3_3  and  N1_5
REMARK    2  A    between atoms: N1_5  and  C4_7
REMARK    3  A    between atoms: C9_12  and  C10_13
REMARK    4  A    between atoms: C14_19  and  C15_20
REMARK    5  A    between atoms: C15_20  and  C16_21
REMARK    6  A    between atoms: C17_22  and  C18_23
REMARK    7  A    between atoms: C18_23  and  S1_24
REMARK    8  A    between atoms: S1_24  and  N3_25
REMARK    9  A    between atoms: N4_32  and  C20_33
REMARK   10  A    between atoms: C20_33  and  C21_34
REMARK   11  A    between atoms: C21_34  and  C22_35
REMARK   12  A    between atoms: C22_35  and  C23_36
REMARK   13  A    between atoms: C23_36  and  S2_37
REMARK   14  A    between atoms: S2_37  and  C24_38
ROOT
HETATM    1  C10 UNL     1      19.285  24.279  19.122  1.00  0.00    -0.007 A
HETATM    2  C11 UNL     1      18.798  24.226  20.406  1.00  0.00     0.016 A
HETATM    3  C12 UNL     1      17.698  23.427  20.654  1.00  0.00     0.033 A
HETATM    4  C13 UNL     1      17.045  22.676  19.709  1.00  0.00     0.059 A
HETATM    5  N2  UNL     1      15.965  21.911  20.021  1.00  0.00    -0.353 N
ATOM      6  H2  UNL     1      15.627  21.893  20.984  1.00  0.00     0.166 HD
HETATM    7  C14 UNL     1      15.338  21.184  19.094  1.00  0.00     0.082 A
HETATM    8  C19 UNL     1      15.834  21.245  17.811  1.00  0.00     0.271 A
HETATM    9  O4  UNL     1      15.280  20.580  16.900  1.00  0.00    -0.266 OA
HETATM   10  N4  UNL     1      16.909  22.003  17.487  1.00  0.00    -0.311 N
HETATM   11  C29 UNL     1      17.545  22.739  18.428  1.00  0.00     0.065 A
HETATM   12  C30 UNL     1      18.653  23.530  18.125  1.00  0.00     0.045 A
ENDROOT
BRANCH  10  13
HETATM   13  C20 UNL     1      17.369  22.001  16.125  1.00  0.00     0.133 C
BRANCH  13  14
HETATM   14  C21 UNL     1      16.561  22.965  15.283  1.00  0.00     0.021 C
BRANCH  14  15
HETATM   15  C22 UNL     1      15.898  22.258  14.105  1.00  0.00     0.012 C
BRANCH  15  16
HETATM   16  C23 UNL     1      14.406  22.219  14.272  1.00  0.00     0.082 C
BRANCH  16  17
HETATM   17  S2  UNL     1      13.759  20.698  13.580  1.00  0.00    -0.094 SA
BRANCH  17  18
HETATM   18  C24 UNL     1      12.177  20.223  14.204  1.00  0.00     0.147 A
HETATM   19  N5  UNL     1      11.954  18.893  14.408  1.00  0.00    -0.341 N
HETATM   20  C25 UNL     1      10.804  18.401  14.863  1.00  0.00     0.012 A
ATOM     21  H5  UNL     1      12.710  18.240  14.201  1.00  0.00     0.167 HD
HETATM   22  C26 UNL     1      10.559  16.964  15.086  1.00  0.00     0.068 C
HETATM   23  C27 UNL     1       9.777  19.290  15.145  1.00  0.00     0.099 A
HETATM   24  C28 UNL     1      10.004  20.631  14.939  1.00  0.00     0.249 A
HETATM   25  O5  UNL     1       9.103  21.484  15.180  1.00  0.00    -0.268 OA
HETATM   26  N6  UNL     1      11.193  21.078  14.475  1.00  0.00    -0.304 N
ATOM     27  H6  UNL     1      11.336  22.077  14.331  1.00  0.00     0.171 HD
ENDBRANCH  17  18
ENDBRANCH  16  17
ENDBRANCH  15  16
ENDBRANCH  14  15
ENDBRANCH  13  14
ENDBRANCH  10  13
BRANCH   7  28
HETATM   28  C15 UNL     1      14.174  20.296  19.310  1.00  0.00     0.090 C
BRANCH  28  29
HETATM   29  C16 UNL     1      14.456  18.890  19.598  1.00  0.00    -0.020 C
HETATM   30  C17 UNL     1      14.108  17.776  18.750  1.00  0.00     0.010 C
BRANCH  30  31
HETATM   31  C18 UNL     1      12.768  17.324  18.397  1.00  0.00     0.131 C
BRANCH  31  32
HETATM   32  S1  UNL     1      11.315  18.060  18.982  1.00  0.00     0.246 S
HETATM   33  O2  UNL     1      11.240  18.338  20.433  1.00  0.00    -0.202 OA
HETATM   34  O3  UNL     1      10.969  19.333  18.212  1.00  0.00    -0.202 OA
BRANCH  32  35
HETATM   35  N3  UNL     1       9.942  16.953  18.698  1.00  0.00    -0.325 N
ATOM     36  H32 UNL     1       9.193  17.120  18.027  1.00  0.00     0.169 HD
ATOM     37  H31 UNL     1      10.034  16.142  19.309  1.00  0.00     0.169 HD
ENDBRANCH  32  35
ENDBRANCH  31  32
ENDBRANCH  30  31
ENDBRANCH  28  29
ENDBRANCH   7  28
BRANCH   1  38
HETATM   38  C9  UNL     1      20.445  25.093  18.760  1.00  0.00     0.044 A
HETATM   39  C8  UNL     1      21.636  24.994  19.439  1.00  0.00     0.037 A
HETATM   40  C6  UNL     1      22.746  25.761  19.079  1.00  0.00    -0.056 A
HETATM   41  C5  UNL     1      22.637  26.625  18.029  1.00  0.00     0.055 A
HETATM   42  C7  UNL     1      24.039  25.651  19.819  1.00  0.00     0.048 C
HETATM   43  C4  UNL     1      21.410  26.733  17.322  1.00  0.00     0.108 A
HETATM   44  N7  UNL     1      20.386  25.963  17.726  1.00  0.00    -0.342 N
ATOM     45  H7  UNL     1      19.505  26.039  17.219  1.00  0.00     0.167 HD
BRANCH  43  46
HETATM   46  N1  UNL     1      21.429  27.548  16.373  1.00  0.00    -0.310 N
HETATM   47  C3  UNL     1      20.674  27.570  15.214  1.00  0.00     0.245 C
HETATM   48  O1  UNL     1      19.565  27.000  15.015  1.00  0.00    -0.268 OA
ATOM     49  H1  UNL     1      22.100  28.309  16.468  1.00  0.00     0.170 HD
BRANCH  47  50
HETATM   50  C2  UNL     1      21.194  28.339  14.057  1.00  0.00     0.064 C
HETATM   51  C1  UNL     1      22.488  28.469  13.897  1.00  0.00     0.017 C
ENDBRANCH  47  50
ENDBRANCH  43  46
ENDBRANCH   1  38
TORSDOF 14
ENDMDL