MODEL 2
REMARK VINA RESULT: -10.240453075      1.951      2.981
REMARK  12 active torsions:
REMARK  status: ('A' for Active; 'I' for Inactive)
REMARK       I    between atoms: N1_2  and  C3_4
REMARK       I    between atoms: C3_4  and  N2_6
REMARK    1  A    between atoms: N2_6  and  C4_8
REMARK    2  A    between atoms: C5_13  and  C6_14
REMARK    3  A    between atoms: C6_14  and  C7_15
REMARK    4  A    between atoms: C7_15  and  S1_16
REMARK    5  A    between atoms: S1_16  and  C8_17
REMARK    6  A    between atoms: C8_17  and  C9_18
REMARK    7  A    between atoms: C9_18  and  C10_19
REMARK       I    between atoms: N7_25  and  C12_27
REMARK    8  A    between atoms: C12_27  and  C13_29
REMARK    9  A    between atoms: C13_29  and  C14_30
REMARK   10  A    between atoms: C15_31  and  C16_32
REMARK   11  A    between atoms: C16_32  and  C17_33
REMARK   12  A    between atoms: C17_33  and  N8_34
ROOT
HETATM    1  C10 UNL     1      15.321  22.297  14.841  1.00  0.00     0.070 A
HETATM    2  N5  UNL     1      14.909  23.410  15.361  1.00  0.00    -0.296 N
ATOM      3  H5  UNL     1      14.416  24.068  14.758  1.00  0.00     0.187 HD
HETATM    4  N6  UNL     1      15.082  23.730  16.570  1.00  0.00    -0.279 N
ATOM      5  H6  UNL     1      14.739  24.619  16.932  1.00  0.00     0.189 HD
HETATM    6  C11 UNL     1      15.734  22.858  17.368  1.00  0.00     0.167 A
HETATM    7  N7  UNL     1      16.021  23.034  18.635  1.00  0.00    -0.306 N
ATOM      8  H7  UNL     1      15.748  23.884  19.126  1.00  0.00     0.171 HD
HETATM    9  C12 UNL     1      16.727  21.992  19.298  1.00  0.00     0.227 C
HETATM   10  O2  UNL     1      16.164  21.407  20.220  1.00  0.00    -0.273 OA
HETATM   11  S2  UNL     1      16.060  21.591  16.275  1.00  0.00    -0.038 SA
ENDROOT
BRANCH   9  12
HETATM   12  C13 UNL     1      18.071  21.689  18.829  1.00  0.00     0.130 C
BRANCH  12  13
HETATM   13  C14 UNL     1      19.156  21.824  19.790  1.00  0.00    -0.022 C
HETATM   14  C15 UNL     1      19.438  23.020  20.529  1.00  0.00    -0.029 C
BRANCH  14  15
HETATM   15  C16 UNL     1      19.777  24.325  19.948  1.00  0.00     0.047 C
BRANCH  15  16
HETATM   16  C17 UNL     1      20.628  24.027  18.679  1.00  0.00     0.128 C
BRANCH  16  17
HETATM   17  N8  UNL     1      20.940  25.243  18.006  1.00  0.00    -0.361 N
HETATM   18  C18 UNL     1      20.162  25.588  16.836  1.00  0.00     0.058 A
HETATM   19  C19 UNL     1      18.881  25.022  16.710  1.00  0.00     0.031 A
HETATM   20  C23 UNL     1      20.602  26.447  15.862  1.00  0.00     0.061 A
HETATM   21  C20 UNL     1      18.109  25.347  15.615  1.00  0.00     0.002 A
HETATM   22  C21 UNL     1      18.590  26.207  14.673  1.00  0.00     0.002 A
HETATM   23  C22 UNL     1      19.846  26.781  14.766  1.00  0.00     0.032 A
HETATM   24  N9  UNL     1      21.881  27.031  15.999  1.00  0.00    -0.323 N
HETATM   25  C24 UNL     1      22.642  26.679  17.161  1.00  0.00     0.250 C
ATOM     26  H9  UNL     1      22.247  27.676  15.299  1.00  0.00     0.169 HD
HETATM   27  O3  UNL     1      23.896  26.745  17.195  1.00  0.00    -0.270 OA
HETATM   28  C25 UNL     1      21.931  26.208  18.406  1.00  0.00     0.106 C
HETATM   29  C26 UNL     1      22.923  25.731  19.408  1.00  0.00     0.049 C
HETATM   30  C27 UNL     1      21.187  27.406  18.969  1.00  0.00     0.049 C
ENDBRANCH  16  17
ENDBRANCH  15  16
ENDBRANCH  14  15
ENDBRANCH  12  13
ENDBRANCH   9  12
BRANCH   1  31
HETATM   31  C9  UNL     1      15.384  21.652  13.520  1.00  0.00     0.076 C
BRANCH  31  32
HETATM   32  C8  UNL     1      14.151  21.170  12.876  1.00  0.00     0.080 C
BRANCH  32  33
HETATM   33  S1  UNL     1      12.966  20.366  13.937  1.00  0.00    -0.168 SA
BRANCH  33  34
HETATM   34  C7  UNL     1      11.686  21.480  14.522  1.00  0.00     0.080 C
BRANCH  34  35
HETATM   35  C6  UNL     1      10.360  20.816  14.663  1.00  0.00     0.076 C
BRANCH  35  36
HETATM   36  C5  UNL     1      10.332  19.673  15.602  1.00  0.00     0.070 A
HETATM   37  N4  UNL     1       9.877  18.441  15.528  1.00  0.00    -0.296 N
HETATM   38  N3  UNL     1      10.014  17.617  16.479  1.00  0.00    -0.279 N
ATOM     39  H4  UNL     1       9.399  18.140  14.678  1.00  0.00     0.187 HD
HETATM   40  C4  UNL     1      10.642  18.018  17.592  1.00  0.00     0.169 A
ATOM     41  H3  UNL     1       9.653  16.667  16.400  1.00  0.00     0.189 HD
HETATM   42  S3  UNL     1      11.025  19.637  17.207  1.00  0.00    -0.038 SA
BRANCH  40  43
HETATM   43  N2  UNL     1      10.915  17.345  18.693  1.00  0.00    -0.288 N
HETATM   44  C3  UNL     1      11.798  17.963  19.626  1.00  0.00     0.323 C
HETATM   45  N1  UNL     1      13.212  17.927  19.547  1.00  0.00    -0.343 N
HETATM   46  O1  UNL     1      11.275  18.581  20.587  1.00  0.00    -0.247 OA
HETATM   47  C1  UNL     1      13.933  17.269  18.479  1.00  0.00     0.154 C
HETATM   48  C2  UNL     1      14.031  18.560  20.586  1.00  0.00     0.154 C
ATOM     49  H2  UNL     1      10.512  16.424  18.869  1.00  0.00     0.172 HD
ENDBRANCH  40  43
ENDBRANCH  35  36
ENDBRANCH  34  35
ENDBRANCH  33  34
ENDBRANCH  32  33
ENDBRANCH  31  32
ENDBRANCH   1  31
TORSDOF 12
ENDMDL