MODEL 3
REMARK VINA RESULT: -8.125780315      3.146      5.196
REMARK  14 active torsions:
REMARK  status: ('A' for Active; 'I' for Inactive)
REMARK    1  A    between atoms: C2_2  and  C5_12
REMARK    2  A    between atoms: N1_3  and  N2_5
REMARK       I    between atoms: N2_5  and  C3_7
REMARK    3  A    between atoms: C3_7  and  C4_9
REMARK    4  A    between atoms: C8_20  and  C9_21
REMARK    5  A    between atoms: C9_21  and  N5_22
REMARK    6  A    between atoms: N5_22  and  N6_23
REMARK    7  A    between atoms: C10_24  and  O5_25
REMARK    8  A    between atoms: C11_27  and  O6_28
REMARK    9  A    between atoms: C12_30  and  O7_31
REMARK   10  A    between atoms: C13_33  and  O8_34
REMARK   11  A    between atoms: C14_36  and  O9_37
REMARK   12  A    between atoms: C14_36  and  C15_39
REMARK   13  A    between atoms: C15_39  and  O10_40
REMARK   14  A    between atoms: C15_39  and  O11_42
ROOT
HETATM    1  N5  UNL     1      -8.106  15.789 -32.816  1.00  0.00    -0.134 NA
ENDROOT
BRANCH   1   2
HETATM    2  C9  UNL     1      -7.254  16.516 -33.774  1.00  0.00     0.180 C
BRANCH   2   3
HETATM    3  C8  UNL     1      -7.909  16.646 -35.108  1.00  0.00     0.045 A
HETATM    4  C5  UNL     1      -7.510  15.796 -36.092  1.00  0.00     0.046 A
HETATM    5  S1  UNL     1      -8.319  16.093 -37.624  1.00  0.00    -0.026 SA
HETATM    6  C6  UNL     1      -9.420  17.365 -37.557  1.00  0.00     0.291 A
HETATM    7  O3  UNL     1     -10.116  17.747 -38.558  1.00  0.00    -0.260 OA
HETATM    8  N4  UNL     1      -9.522  17.962 -36.367  1.00  0.00    -0.284 N
HETATM    9  C7  UNL     1      -8.850  17.642 -35.281  1.00  0.00     0.257 A
ATOM     10  H4  UNL     1     -10.181  18.737 -36.293  1.00  0.00     0.172 HD
HETATM   11  O4  UNL     1      -9.115  18.364 -34.257  1.00  0.00    -0.267 OA
BRANCH   4  12
HETATM   12  C2  UNL     1      -6.555  14.717 -36.032  1.00  0.00     0.040 C
HETATM   13  C1  UNL     1      -5.521  14.389 -36.985  1.00  0.00     0.071 C
HETATM   14  N1  UNL     1      -6.608  13.920 -34.969  1.00  0.00    -0.301 N
ATOM     15  H1  UNL     1      -7.324  14.111 -34.267  1.00  0.00     0.186 HD
BRANCH  14  16
HETATM   16  N2  UNL     1      -5.771  12.864 -34.750  1.00  0.00    -0.262 N
HETATM   17  C3  UNL     1      -6.131  11.648 -34.118  1.00  0.00     0.325 C
HETATM   18  O1  UNL     1      -7.313  11.517 -33.724  1.00  0.00    -0.261 OA
ATOM     19  H2  UNL     1      -4.805  12.958 -35.068  1.00  0.00     0.190 HD
BRANCH  17  20
HETATM   20  C4  UNL     1      -5.201  10.557 -33.910  1.00  0.00     0.324 C
HETATM   21  N3  UNL     1      -5.256   9.710 -32.781  1.00  0.00    -0.053 NA
HETATM   22  O2  UNL     1      -4.308  10.352 -34.767  1.00  0.00    -0.266 OA
ENDBRANCH  17  20
ENDBRANCH  14  16
ENDBRANCH   4  12
ENDBRANCH   2   3
ENDBRANCH   1   2
BRANCH   1  23
HETATM   23  N6  UNL     1      -7.462  15.672 -31.597  1.00  0.00    -0.259 N
HETATM   24  C10 UNL     1      -6.233  15.053 -31.530  1.00  0.00     0.267 C
HETATM   25  C11 UNL     1      -5.482  15.258 -30.243  1.00  0.00     0.199 C
HETATM   26  C12 UNL     1      -6.433  14.894 -29.125  1.00  0.00     0.185 C
HETATM   27  C13 UNL     1      -7.545  15.913 -29.148  1.00  0.00     0.211 C
HETATM   28  C14 UNL     1      -8.179  16.115 -30.480  1.00  0.00     0.226 C
BRANCH  24  29
HETATM   29  O5  UNL     1      -6.405  13.652 -31.642  1.00  0.00    -0.373 OA
ATOM     30  H5  UNL     1      -5.580  13.252 -31.893  1.00  0.00     0.212 HD
ENDBRANCH  24  29
BRANCH  25  31
HETATM   31  O6  UNL     1      -4.431  14.333 -30.187  1.00  0.00    -0.388 OA
ATOM     32  H6  UNL     1      -3.726  14.706 -29.671  1.00  0.00     0.210 HD
ENDBRANCH  25  31
BRANCH  26  33
HETATM   33  O7  UNL     1      -5.821  14.936 -27.883  1.00  0.00    -0.390 OA
ATOM     34  H7  UNL     1      -5.676  15.826 -27.584  1.00  0.00     0.210 HD
ENDBRANCH  26  33
BRANCH  27  35
HETATM   35  O8  UNL     1      -7.011  17.093 -28.614  1.00  0.00    -0.388 OA
ATOM     36  H8  UNL     1      -6.218  17.275 -29.103  1.00  0.00     0.210 HD
ENDBRANCH  27  35
BRANCH  28  37
HETATM   37  O9  UNL     1      -9.368  15.326 -30.447  1.00  0.00    -0.364 OA
ATOM     38  H9  UNL     1      -9.882  15.603 -31.196  1.00  0.00     0.213 HD
ENDBRANCH  28  37
BRANCH  28  39
HETATM   39  C15 UNL     1      -8.733  17.536 -30.639  1.00  0.00     0.314 C
BRANCH  39  40
HETATM   40  O10 UNL     1      -7.732  18.341 -31.213  1.00  0.00    -0.367 OA
ATOM     41  H10 UNL     1      -8.015  19.247 -31.170  1.00  0.00     0.212 HD
ENDBRANCH  39  40
BRANCH  39  42
HETATM   42  O11 UNL     1      -9.864  17.593 -31.389  1.00  0.00    -0.367 OA
ATOM     43  H11 UNL     1      -9.785  17.147 -32.224  1.00  0.00     0.212 HD
ENDBRANCH  39  42
ENDBRANCH  28  39
ENDBRANCH   1  23
TORSDOF 14
ENDMDL