MODEL 2
REMARK VINA RESULT: -8.239237127      1.984      9.507
REMARK  13 active torsions:
REMARK  status: ('A' for Active; 'I' for Inactive)
REMARK    1  A    between atoms: N1_1  and  C1_4
REMARK    2  A    between atoms: N4_12  and  C5_13
REMARK    3  A    between atoms: C6_15  and  O2_16
REMARK    4  A    between atoms: C7_18  and  N5_19
REMARK       I    between atoms: N5_19  and  C8_21
REMARK    5  A    between atoms: C8_21  and  C9_23
REMARK    6  A    between atoms: C9_23  and  N6_24
REMARK    7  A    between atoms: N6_24  and  C10_26
REMARK    8  A    between atoms: C11_28  and  O5_29
REMARK    9  A    between atoms: N7_33  and  C13_34
REMARK   10  A    between atoms: C14_35  and  O7_36
REMARK   11  A    between atoms: C15_38  and  O8_39
REMARK   12  A    between atoms: C16_41  and  O9_42
REMARK   13  A    between atoms: C17_44  and  O10_45
ROOT
HETATM    1  C1  UNL     1      -6.541  15.328 -34.250  1.00  0.00     0.683 A
HETATM    2  N2  UNL     1      -6.239  14.445 -35.240  1.00  0.00    -0.174 N
ATOM      3  H2  UNL     1      -6.350  14.745 -36.209  1.00  0.00     0.186 HD
HETATM    4  C2  UNL     1      -5.803  13.201 -35.005  1.00  0.00     0.159 A
HETATM    5  C3  UNL     1      -5.670  12.846 -33.682  1.00  0.00     0.148 A
HETATM    6  N3  UNL     1      -5.229  11.584 -33.675  1.00  0.00    -0.345 N
ATOM      7  H3  UNL     1      -5.027  11.026 -32.846  1.00  0.00     0.167 HD
HETATM    8  C4  UNL     1      -5.095  11.172 -34.965  1.00  0.00     0.188 A
HETATM    9  N4  UNL     1      -5.449  12.168 -35.799  1.00  0.00    -0.297 N
HETATM   10  C12 UNL     1      -5.983  13.767 -32.686  1.00  0.00     0.293 A
HETATM   11  O6  UNL     1      -5.840  13.379 -31.520  1.00  0.00    -0.265 OA
HETATM   12  N7  UNL     1      -6.420  15.013 -32.930  1.00  0.00    -0.136 N
ENDROOT
BRANCH   9  13
HETATM   13  C5  UNL     1      -5.460  12.167 -37.252  1.00  0.00     0.264 C
HETATM   14  O1  UNL     1      -5.725  13.393 -37.798  1.00  0.00    -0.332 OA
HETATM   15  C6  UNL     1      -4.610  13.861 -38.441  1.00  0.00     0.284 C
HETATM   16  C7  UNL     1      -3.949  12.621 -38.988  1.00  0.00     0.172 C
HETATM   17  C11 UNL     1      -4.194  11.634 -37.847  1.00  0.00     0.195 C
BRANCH  15  18
HETATM   18  O2  UNL     1      -3.761  14.602 -37.628  1.00  0.00    -0.369 OA
ATOM     19  H2  UNL     1      -4.031  15.504 -37.511  1.00  0.00     0.212 HD
ENDBRANCH  15  18
BRANCH  16  20
HETATM   20  N5  UNL     1      -2.516  12.816 -39.204  1.00  0.00    -0.348 N
HETATM   21  C8  UNL     1      -1.838  11.996 -40.106  1.00  0.00     0.235 C
HETATM   22  O3  UNL     1      -2.504  11.086 -40.707  1.00  0.00    -0.272 OA
ATOM     23  H5  UNL     1      -2.016  13.548 -38.698  1.00  0.00     0.163 HD
BRANCH  21  24
HETATM   24  C9  UNL     1      -0.412  12.111 -40.400  1.00  0.00     0.224 C
BRANCH  24  25
HETATM   25  N6  UNL     1       0.280  10.848 -40.329  1.00  0.00    -0.359 N
ATOM     26  H6  UNL     1       0.791  10.523 -41.149  1.00  0.00     0.162 HD
BRANCH  25  27
HETATM   27  C10 UNL     1       0.275  10.045 -39.174  1.00  0.00     0.348 C
HETATM   28  O4  UNL     1       0.286   8.783 -39.207  1.00  0.00    -0.284 OA
ENDBRANCH  25  27
ENDBRANCH  24  25
ENDBRANCH  21  24
ENDBRANCH  16  20
BRANCH  17  29
HETATM   29  O5  UNL     1      -4.344  10.326 -38.344  1.00  0.00    -0.389 OA
ATOM     30  H5  UNL     1      -4.716  10.310 -39.218  1.00  0.00     0.210 HD
ENDBRANCH  17  29
ENDBRANCH   9  13
BRANCH   1  31
HETATM   31  N1  UNL     1      -6.941  16.460 -34.648  1.00  0.00    -0.234 N
ATOM     32  H12 UNL     1      -6.518  16.948 -35.437  1.00  0.00     0.174 HD
ATOM     33  H11 UNL     1      -7.721  16.850 -34.120  1.00  0.00     0.174 HD
ENDBRANCH   1  31
BRANCH  12  34
HETATM   34  C13 UNL     1      -6.714  15.886 -31.855  1.00  0.00     0.174 C
HETATM   35  C14 UNL     1      -5.582  16.196 -30.900  1.00  0.00     0.176 C
HETATM   36  C15 UNL     1      -6.041  15.820 -29.530  1.00  0.00     0.180 C
HETATM   37  C16 UNL     1      -7.525  15.872 -29.621  1.00  0.00     0.180 C
HETATM   38  C17 UNL     1      -7.940  15.610 -31.048  1.00  0.00     0.176 C
BRANCH  35  39
HETATM   39  O7  UNL     1      -4.354  15.700 -31.278  1.00  0.00    -0.391 OA
ATOM     40  H7  UNL     1      -3.690  16.360 -31.441  1.00  0.00     0.210 HD
ENDBRANCH  35  39
BRANCH  36  41
HETATM   41  O8  UNL     1      -5.647  16.784 -28.562  1.00  0.00    -0.390 OA
ATOM     42  H8  UNL     1      -6.056  17.627 -28.720  1.00  0.00     0.210 HD
ENDBRANCH  36  41
BRANCH  37  43
HETATM   43  O9  UNL     1      -7.928  17.185 -29.272  1.00  0.00    -0.390 OA
ATOM     44  H9  UNL     1      -8.415  17.539 -30.006  1.00  0.00     0.210 HD
ENDBRANCH  37  43
BRANCH  38  45
HETATM   45  O10 UNL     1      -8.534  14.373 -31.242  1.00  0.00    -0.391 OA
ATOM     46  H10 UNL     1      -8.934  14.229 -32.091  1.00  0.00     0.210 HD
ENDBRANCH  38  45
ENDBRANCH  12  34
TORSDOF 13
ENDMDL