MODEL 5
REMARK VINA RESULT: -8.389169931      4.564      8.044
REMARK  13 active torsions:
REMARK  status: ('A' for Active; 'I' for Inactive)
REMARK    1  A    between atoms: N1_2  and  C3_4
REMARK    2  A    between atoms: C5_10  and  N4_11
REMARK    3  A    between atoms: N4_11  and  O1_12
REMARK    4  A    between atoms: O1_12  and  C6_13
REMARK    5  A    between atoms: C7_17  and  C8_18
REMARK    6  A    between atoms: C8_18  and  O2_19
REMARK    7  A    between atoms: O2_19  and  C9_20
REMARK    8  A    between atoms: N6_23  and  N7_24
REMARK    9  A    between atoms: C11_27  and  O4_28
REMARK   10  A    between atoms: C12_30  and  O5_31
REMARK   11  A    between atoms: C13_33  and  O6_34
REMARK   12  A    between atoms: C14_36  and  O7_37
REMARK   13  A    between atoms: C15_39  and  N8_40
ROOT
HETATM    1  C6  UNL     1      -6.405  13.747 -32.314  1.00  0.00     0.397 C
HETATM    2  N5  UNL     1      -7.357  14.731 -31.955  1.00  0.00    -0.034 N
ATOM      3  H51 UNL     1      -8.235  14.306 -31.659  1.00  0.00     0.281 HD
ATOM      4  H52 UNL     1      -7.692  15.239 -32.774  1.00  0.00     0.281 HD
HETATM    5  C7  UNL     1      -6.835  15.649 -30.932  1.00  0.00     0.243 C
HETATM    6  C12 UNL     1      -5.569  16.198 -31.543  1.00  0.00     0.182 C
HETATM    7  C13 UNL     1      -4.527  15.117 -31.314  1.00  0.00     0.182 C
HETATM    8  C14 UNL     1      -5.096  13.747 -31.568  1.00  0.00     0.209 C
ENDROOT
BRANCH   1   9
HETATM    9  O1  UNL     1      -6.223  13.754 -33.704  1.00  0.00    -0.170 OA
BRANCH   9  10
HETATM   10  N4  UNL     1      -6.501  14.355 -34.714  1.00  0.00    -0.256 NA
BRANCH  10  11
HETATM   11  C5  UNL     1      -6.755  14.949 -35.718  1.00  0.00     0.257 C
HETATM   12  N3  UNL     1      -7.575  16.057 -35.678  1.00  0.00    -0.309 N
HETATM   13  C4  UNL     1      -8.249  16.683 -36.657  1.00  0.00     0.156 A
ATOM     14  H3  UNL     1      -7.689  16.469 -34.752  1.00  0.00     0.170 HD
HETATM   15  N2  UNL     1      -8.972  17.819 -36.470  1.00  0.00    -0.174 N
HETATM   16  C17 UNL     1      -8.375  16.356 -37.987  1.00  0.00     0.161 A
HETATM   17  C3  UNL     1      -9.536  18.196 -37.640  1.00  0.00     0.681 A
ATOM     18  H2  UNL     1      -9.074  18.311 -35.582  1.00  0.00     0.186 HD
HETATM   19  N10 UNL     1      -9.151  17.280 -38.545  1.00  0.00    -0.182 N
ATOM     20  H10 UNL     1      -9.419  17.293 -39.529  1.00  0.00     0.184 HD
HETATM   21  C16 UNL     1      -7.797  15.283 -38.618  1.00  0.00     0.278 C
HETATM   22  N9  UNL     1      -6.709  14.580 -38.192  1.00  0.00    -0.304 N
HETATM   23  O8  UNL     1      -8.329  14.926 -39.679  1.00  0.00    -0.265 OA
HETATM   24  C15 UNL     1      -6.214  14.517 -36.951  1.00  0.00     0.164 C
ATOM     25  H9  UNL     1      -6.215  14.039 -38.902  1.00  0.00     0.171 HD
BRANCH  17  26
HETATM   26  N1  UNL     1     -10.360  19.347 -37.876  1.00  0.00    -0.226 N
HETATM   27  C1  UNL     1     -11.775  19.277 -38.128  1.00  0.00     0.168 C
HETATM   28  C2  UNL     1      -9.710  20.646 -37.879  1.00  0.00     0.168 C
ENDBRANCH  17  26
BRANCH  24  29
HETATM   29  N8  UNL     1      -5.037  13.975 -36.786  1.00  0.00    -0.381 N
ATOM     30  H82 UNL     1      -4.667  13.913 -35.838  1.00  0.00     0.157 HD
ATOM     31  H81 UNL     1      -4.640  13.679 -37.678  1.00  0.00     0.157 HD
ENDBRANCH  24  29
ENDBRANCH  10  11
ENDBRANCH   9  10
ENDBRANCH   1   9
BRANCH   8  32
HETATM   32  O7  UNL     1      -5.193  13.030 -30.379  1.00  0.00    -0.388 OA
ATOM     33  H7  UNL     1      -4.336  12.777 -30.059  1.00  0.00     0.210 HD
ENDBRANCH   8  32
BRANCH   5  34
HETATM   34  C8  UNL     1      -7.841  16.688 -30.587  1.00  0.00     0.207 C
BRANCH  34  35
HETATM   35  O2  UNL     1      -7.490  17.943 -30.923  1.00  0.00    -0.355 OA
BRANCH  35  36
HETATM   36  C9  UNL     1      -8.297  18.719 -31.676  1.00  0.00     0.305 C
HETATM   37  O3  UNL     1      -9.630  18.764 -31.113  1.00  0.00    -0.342 OA
HETATM   38  C10 UNL     1     -10.329  19.422 -32.142  1.00  0.00     0.287 C
HETATM   39  N6  UNL     1      -9.869  18.872 -33.372  1.00  0.00    -0.180 NA
HETATM   40  C11 UNL     1      -8.580  18.300 -33.070  1.00  0.00     0.268 C
BRANCH  39  41
HETATM   41  N7  UNL     1      -9.643  19.890 -34.312  1.00  0.00    -0.359 NA
ATOM     42  H72 UNL     1     -10.407  19.838 -34.986  1.00  0.00     0.171 HD
ATOM     43  H71 UNL     1      -8.800  19.697 -34.852  1.00  0.00     0.171 HD
ENDBRANCH  39  41
BRANCH  40  44
HETATM   44  O4  UNL     1      -7.597  18.733 -33.964  1.00  0.00    -0.374 OA
ATOM     45  H4  UNL     1      -6.820  18.189 -33.935  1.00  0.00     0.212 HD
ENDBRANCH  40  44
ENDBRANCH  35  36
ENDBRANCH  34  35
ENDBRANCH   5  34
BRANCH   7  46
HETATM   46  O6  UNL     1      -3.413  15.419 -32.068  1.00  0.00    -0.390 OA
ATOM     47  H6  UNL     1      -3.035  16.224 -31.735  1.00  0.00     0.210 HD
ENDBRANCH   7  46
BRANCH   6  48
HETATM   48  O5  UNL     1      -5.739  16.462 -32.899  1.00  0.00    -0.391 OA
ATOM     49  H5  UNL     1      -5.944  17.378 -33.046  1.00  0.00     0.210 HD
ENDBRANCH   6  48
TORSDOF 13
ENDMDL