MODEL 2
REMARK VINA RESULT: -7.603767870      7.588     10.929
REMARK  15 active torsions:
REMARK  status: ('A' for Active; 'I' for Inactive)
REMARK    1  A    between atoms: N1_1  and  N2_4
REMARK       I    between atoms: N2_4  and  C1_6
REMARK    2  A    between atoms: C1_6  and  O2_8
REMARK    3  A    between atoms: O2_8  and  C2_9
REMARK    4  A    between atoms: N4_11  and  C3_12
REMARK    5  A    between atoms: C6_15  and  O3_16
REMARK    6  A    between atoms: C7_19  and  C8_20
REMARK    7  A    between atoms: C8_20  and  O5_21
REMARK    8  A    between atoms: C8_20  and  C9_23
REMARK    9  A    between atoms: C11_29  and  C12_30
REMARK   10  A    between atoms: C11_29  and  C13_33
REMARK   11  A    between atoms: C12_30  and  O8_31
REMARK   12  A    between atoms: C13_33  and  O9_34
REMARK   13  A    between atoms: C15_37  and  O10_38
REMARK   14  A    between atoms: C16_40  and  O11_41
REMARK   15  A    between atoms: C17_43  and  O12_44
ROOT
HETATM    1  C3  UNL     1      -6.466  14.269 -34.593  1.00  0.00     0.118 C
HETATM    2  C4  UNL     1      -6.457  14.075 -36.045  1.00  0.00     0.060 C
HETATM    3  C5  UNL     1      -7.672  14.350 -36.836  1.00  0.00     0.073 C
HETATM    4  C6  UNL     1      -7.812  13.233 -37.887  1.00  0.00     0.258 C
HETATM    5  O4  UNL     1      -6.569  12.889 -38.415  1.00  0.00    -0.347 OA
HETATM    6  C7  UNL     1      -5.793  12.148 -37.539  1.00  0.00     0.209 C
HETATM    7  C10 UNL     1      -6.178  12.619 -36.167  1.00  0.00     0.021 C
HETATM    8  N5  UNL     1      -6.331  12.025 -35.054  1.00  0.00    -0.379 N
ATOM      9  H5  UNL     1      -6.190  11.024 -34.916  1.00  0.00     0.160 HD
HETATM   10  C11 UNL     1      -6.731  12.939 -34.008  1.00  0.00     0.090 C
ENDROOT
BRANCH   1  11
HETATM   11  N4  UNL     1      -7.339  15.296 -34.089  1.00  0.00    -0.222 NA
HETATM   12  N3  UNL     1      -6.936  15.462 -32.735  1.00  0.00    -0.129 NA
HETATM   13  C2  UNL     1      -7.745  16.377 -32.006  1.00  0.00     0.272 C
HETATM   14  C17 UNL     1      -7.438  17.832 -32.300  1.00  0.00     0.196 C
HETATM   15  C16 UNL     1      -8.304  18.356 -33.424  1.00  0.00     0.180 C
HETATM   16  C15 UNL     1      -8.204  17.534 -34.674  1.00  0.00     0.164 C
HETATM   17  C14 UNL     1      -7.051  16.591 -34.696  1.00  0.00     0.144 C
BRANCH  13  18
HETATM   18  O2  UNL     1      -7.401  16.183 -30.624  1.00  0.00    -0.277 OA
BRANCH  18  19
HETATM   19  C1  UNL     1      -6.251  15.571 -30.211  1.00  0.00     0.380 C
HETATM   20  N2  UNL     1      -6.256  14.172 -29.977  1.00  0.00    -0.252 N
ATOM     21  H2  UNL     1      -7.126  13.658 -30.124  1.00  0.00     0.191 HD
HETATM   22  O1  UNL     1      -5.230  16.288 -30.059  1.00  0.00    -0.237 OA
BRANCH  20  23
HETATM   23  N1  UNL     1      -5.120  13.461 -29.551  1.00  0.00    -0.341 N
ATOM     24  H12 UNL     1      -4.333  13.401 -30.197  1.00  0.00     0.177 HD
ATOM     25  H11 UNL     1      -5.055  13.011 -28.638  1.00  0.00     0.177 HD
ENDBRANCH  20  23
ENDBRANCH  18  19
ENDBRANCH  13  18
BRANCH  14  26
HETATM   26  O12 UNL     1      -7.798  18.599 -31.163  1.00  0.00    -0.389 OA
ATOM     27  H12 UNL     1      -7.001  18.925 -30.761  1.00  0.00     0.210 HD
ENDBRANCH  14  26
BRANCH  15  28
HETATM   28  O11 UNL     1      -9.619  18.393 -32.925  1.00  0.00    -0.390 OA
ATOM     29  H11 UNL     1     -10.139  19.066 -33.348  1.00  0.00     0.210 HD
ENDBRANCH  15  28
BRANCH  16  30
HETATM   30  O10 UNL     1      -9.426  16.884 -34.858  1.00  0.00    -0.392 OA
ATOM     31  H10 UNL     1      -9.915  17.236 -35.593  1.00  0.00     0.210 HD
ENDBRANCH  16  30
ENDBRANCH   1  11
BRANCH  10  32
HETATM   32  C12 UNL     1      -8.175  12.724 -33.640  1.00  0.00     0.199 C
BRANCH  32  33
HETATM   33  O8  UNL     1      -8.386  13.015 -32.269  1.00  0.00    -0.398 OA
ATOM     34  H8  UNL     1      -8.965  12.371 -31.877  1.00  0.00     0.209 HD
ENDBRANCH  32  33
ENDBRANCH  10  32
BRANCH  10  35
HETATM   35  C13 UNL     1      -5.803  12.606 -32.835  1.00  0.00     0.199 C
BRANCH  35  36
HETATM   36  O9  UNL     1      -4.833  13.603 -32.692  1.00  0.00    -0.398 OA
ATOM     37  H9  UNL     1      -5.202  14.451 -32.911  1.00  0.00     0.209 HD
ENDBRANCH  35  36
ENDBRANCH  10  35
BRANCH   4  38
HETATM   38  O3  UNL     1      -8.505  12.149 -37.382  1.00  0.00    -0.371 OA
ATOM     39  H3  UNL     1      -9.222  11.900 -37.952  1.00  0.00     0.212 HD
ENDBRANCH   4  38
BRANCH   6  40
HETATM   40  C8  UNL     1      -4.322  12.448 -37.714  1.00  0.00     0.253 C
BRANCH  40  41
HETATM   41  O5  UNL     1      -3.534  11.350 -37.352  1.00  0.00    -0.382 OA
ATOM     42  H5  UNL     1      -3.349  11.353 -36.420  1.00  0.00     0.210 HD
ENDBRANCH  40  41
BRANCH  40  43
HETATM   43  C9  UNL     1      -4.028  12.878 -39.108  1.00  0.00     0.205 C
HETATM   44  O6  UNL     1      -3.991  12.025 -40.024  1.00  0.00    -0.646 OA
HETATM   45  O7  UNL     1      -3.802  14.213 -39.358  1.00  0.00    -0.646 OA
ENDBRANCH  40  43
ENDBRANCH   6  40
TORSDOF 15
ENDMDL