MODEL 1
REMARK VINA RESULT: -7.714244571      0.000      0.000
REMARK  16 active torsions:
REMARK  status: ('A' for Active; 'I' for Inactive)
REMARK    1  A    between atoms: C2_2  and  N1_3
REMARK    2  A    between atoms: C2_2  and  C3_7
REMARK    3  A    between atoms: C3_7  and  O1_8
REMARK    4  A    between atoms: C3_7  and  N2_10
REMARK    5  A    between atoms: N2_10  and  C4_11
REMARK    6  A    between atoms: C4_11  and  C5_12
REMARK    7  A    between atoms: C6_15  and  N4_16
REMARK    8  A    between atoms: N6_23  and  N7_24
REMARK    9  A    between atoms: N8_29  and  C10_30
REMARK   10  A    between atoms: C11_31  and  O3_32
REMARK   11  A    between atoms: C12_34  and  O4_35
REMARK   12  A    between atoms: C13_37  and  C14_38
REMARK   13  A    between atoms: C14_38  and  N9_39
REMARK       I    between atoms: N9_39  and  C15_40
REMARK   14  A    between atoms: C16_43  and  N11_44
REMARK   15  A    between atoms: N11_44  and  N12_45
REMARK   16  A    between atoms: C17_48  and  O6_49
ROOT
HETATM    1  C5  UNL     1      -6.583  12.868 -38.804  1.00  0.00     0.110 A
HETATM    2  N3  UNL     1      -5.281  13.036 -39.079  1.00  0.00    -0.187 N
ATOM      3  H3  UNL     1      -4.951  12.864 -40.029  1.00  0.00     0.184 HD
HETATM    4  C6  UNL     1      -4.393  13.423 -38.143  1.00  0.00     0.678 A
HETATM    5  N5  UNL     1      -4.801  13.655 -36.885  1.00  0.00    -0.174 N
ATOM      6  H5  UNL     1      -4.124  13.949 -36.181  1.00  0.00     0.186 HD
HETATM    7  C7  UNL     1      -6.087  13.505 -36.545  1.00  0.00     0.163 A
HETATM    8  C8  UNL     1      -6.990  13.107 -37.517  1.00  0.00     0.135 A
HETATM    9  N6  UNL     1      -8.179  13.034 -36.948  1.00  0.00    -0.205 N
HETATM   10  C9  UNL     1      -8.001  13.385 -35.645  1.00  0.00     0.354 A
HETATM   11  O2  UNL     1      -8.997  13.395 -34.878  1.00  0.00    -0.244 OA
HETATM   12  N8  UNL     1      -6.731  13.677 -35.376  1.00  0.00    -0.247 N
ENDROOT
BRANCH  12  13
HETATM   13  C10 UNL     1      -6.155  14.093 -34.108  1.00  0.00     0.062 C
HETATM   14  C11 UNL     1      -6.366  13.145 -32.985  1.00  0.00     0.196 C
HETATM   15  C12 UNL     1      -5.307  13.557 -31.930  1.00  0.00     0.164 C
HETATM   16  C13 UNL     1      -5.800  14.922 -31.450  1.00  0.00     0.093 C
HETATM   17  C16 UNL     1      -5.823  15.959 -32.481  1.00  0.00     0.145 C
HETATM   18  C17 UNL     1      -6.372  15.535 -33.823  1.00  0.00     0.189 C
BRANCH  14  19
HETATM   19  O3  UNL     1      -7.562  13.246 -32.298  1.00  0.00    -0.387 OA
ATOM     20  H3  UNL     1      -8.303  13.601 -32.776  1.00  0.00     0.210 HD
ENDBRANCH  14  19
BRANCH  15  21
HETATM   21  O4  UNL     1      -5.257  12.697 -30.872  1.00  0.00    -0.392 OA
ATOM     22  H4  UNL     1      -5.496  11.809 -31.111  1.00  0.00     0.210 HD
ENDBRANCH  15  21
BRANCH  16  23
HETATM   23  C14 UNL     1      -4.984  15.255 -30.234  1.00  0.00     0.169 C
BRANCH  23  24
HETATM   24  N9  UNL     1      -5.629  15.655 -29.084  1.00  0.00    -0.371 NA
HETATM   25  C15 UNL     1      -6.250  16.041 -27.972  1.00  0.00     0.405 C
HETATM   26  N10 UNL     1      -7.423  16.932 -28.017  1.00  0.00    -0.025 NA
HETATM   27  O5  UNL     1      -5.979  15.741 -26.751  1.00  0.00    -0.234 OA
ENDBRANCH  23  24
ENDBRANCH  16  23
BRANCH  17  28
HETATM   28  N11 UNL     1      -6.743  17.031 -32.050  1.00  0.00    -0.140 NA
BRANCH  28  29
HETATM   29  N12 UNL     1      -7.787  16.507 -31.276  1.00  0.00    -0.348 N
ATOM     30 2H12 UNL     1      -8.355  15.707 -31.556  1.00  0.00     0.172 HD
ATOM     31 1H12 UNL     1      -7.892  17.033 -30.408  1.00  0.00     0.172 HD
ENDBRANCH  28  29
ENDBRANCH  17  28
BRANCH  18  32
HETATM   32  O6  UNL     1      -7.692  15.945 -34.017  1.00  0.00    -0.388 OA
ATOM     33  H6  UNL     1      -8.314  15.493 -33.460  1.00  0.00     0.210 HD
ENDBRANCH  18  32
ENDBRANCH  12  13
BRANCH   9  34
HETATM   34  N7  UNL     1      -9.406  12.679 -37.519  1.00  0.00    -0.334 N
ATOM     35  H72 UNL     1      -9.515  12.091 -38.346  1.00  0.00     0.177 HD
ATOM     36  H71 UNL     1     -10.348  12.930 -37.221  1.00  0.00     0.177 HD
ENDBRANCH   9  34
BRANCH   4  37
HETATM   37  N4  UNL     1      -3.137  13.566 -38.484  1.00  0.00    -0.234 N
ATOM     38  H42 UNL     1      -2.817  13.336 -39.425  1.00  0.00     0.174 HD
ATOM     39  H41 UNL     1      -2.475  13.914 -37.790  1.00  0.00     0.174 HD
ENDBRANCH   4  37
BRANCH   1  40
HETATM   40  C4  UNL     1      -7.479  12.428 -39.888  1.00  0.00     0.217 C
BRANCH  40  41
HETATM   41  N2  UNL     1      -7.179  11.665 -40.753  1.00  0.00    -0.393 NA
BRANCH  41  42
HETATM   42  C3  UNL     1      -6.887  10.798 -41.690  1.00  0.00     0.219 C
BRANCH  42  43
HETATM   43  C2  UNL     1      -5.665   9.889 -41.647  1.00  0.00     0.268 C
HETATM   44  C1  UNL     1      -5.546   9.388 -40.199  1.00  0.00     0.050 C
BRANCH  43  45
HETATM   45  N1  UNL     1      -4.460  10.593 -41.934  1.00  0.00    -0.067 N
ATOM     46  H13 UNL     1      -4.426  11.521 -41.514  1.00  0.00     0.275 HD
ATOM     47  H12 UNL     1      -3.644  10.207 -41.459  1.00  0.00     0.275 HD
ATOM     48  H11 UNL     1      -4.366  10.608 -42.950  1.00  0.00     0.275 HD
ENDBRANCH  43  45
ENDBRANCH  42  43
BRANCH  42  49
HETATM   49  O1  UNL     1      -7.591  10.597 -42.767  1.00  0.00    -0.337 OA
ATOM     50  H1  UNL     1      -7.503  11.319 -43.380  1.00  0.00     0.220 HD
ENDBRANCH  42  49
ENDBRANCH  41  42
ENDBRANCH  40  41
ENDBRANCH   1  40
TORSDOF 16
ENDMDL