MODEL 4
REMARK VINA RESULT: -8.351228262      2.886      8.055
REMARK  11 active torsions:
REMARK  status: ('A' for Active; 'I' for Inactive)
REMARK    1  A    between atoms: C4_11  and  O1_12
REMARK    2  A    between atoms: C4_11  and  N4_14
REMARK    3  A    between atoms: N4_14  and  C5_16
REMARK    4  A    between atoms: C6_17  and  O2_18
REMARK    5  A    between atoms: O2_18  and  C7_19
REMARK    6  A    between atoms: C9_25  and  C10_26
REMARK    7  A    between atoms: C11_29  and  N7_30
REMARK    8  A    between atoms: C12_35  and  C13_36
REMARK    9  A    between atoms: C13_36  and  N8_37
REMARK   10  A    between atoms: C14_41  and  O6_42
REMARK   11  A    between atoms: C15_44  and  O7_45
ROOT
HETATM    1  C5  UNL     1      -6.607  14.069 -33.604  1.00  0.00     0.170 C
HETATM    2  C6  UNL     1      -6.495  15.567 -33.562  1.00  0.00     0.293 C
HETATM    3  O5  UNL     1      -5.420  16.001 -32.775  1.00  0.00    -0.349 OA
HETATM    4  C12 UNL     1      -5.819  15.837 -31.450  1.00  0.00     0.181 C
HETATM    5  C14 UNL     1      -6.431  14.485 -31.206  1.00  0.00     0.179 C
HETATM    6  C15 UNL     1      -5.974  13.556 -32.309  1.00  0.00     0.177 C
ENDROOT
BRANCH   1   7
HETATM    7  N4  UNL     1      -5.933  13.485 -34.757  1.00  0.00    -0.357 N
ATOM      8  H4  UNL     1      -5.161  13.964 -35.221  1.00  0.00     0.162 HD
BRANCH   7   9
HETATM    9  C4  UNL     1      -6.397  12.228 -35.202  1.00  0.00     0.170 C
HETATM   10  C3  UNL     1      -5.615  11.181 -35.094  1.00  0.00     0.170 A
HETATM   11  N3  UNL     1      -4.288  11.156 -34.558  1.00  0.00    -0.180 N
HETATM   12  C16 UNL     1      -5.882   9.790 -35.485  1.00  0.00     0.314 A
HETATM   13  C2  UNL     1      -3.804   9.963 -34.601  1.00  0.00     0.710 A
ATOM     14  H3  UNL     1      -3.795  11.970 -34.191  1.00  0.00     0.184 HD
HETATM   15  N2  UNL     1      -2.613   9.244 -34.259  1.00  0.00    -0.158 N
HETATM   16  N9  UNL     1      -4.714   9.052 -35.157  1.00  0.00    -0.043 N
HETATM   17  C1  UNL     1      -2.817   7.888 -34.617  1.00  0.00     0.207 A
ATOM     18  H2  UNL     1      -1.772   9.636 -33.836  1.00  0.00     0.187 HD
HETATM   19  N1  UNL     1      -1.993   6.886 -34.483  1.00  0.00    -0.369 N
HETATM   20  N10 UNL     1      -4.117   7.766 -35.173  1.00  0.00    -0.246 N
ATOM     21  H12 UNL     1      -1.059   6.974 -34.083  1.00  0.00     0.159 HD
ATOM     22  H11 UNL     1      -2.140   5.910 -34.741  1.00  0.00     0.159 HD
ATOM     23  H10 UNL     1      -4.544   6.908 -35.521  1.00  0.00     0.191 HD
HETATM   24  O8  UNL     1      -6.934   9.387 -35.997  1.00  0.00    -0.263 OA
BRANCH   9  25
HETATM   25  O1  UNL     1      -7.666  12.099 -35.747  1.00  0.00    -0.344 OA
ATOM     26  H1  UNL     1      -8.120  11.266 -35.710  1.00  0.00     0.219 HD
ENDBRANCH   9  25
ENDBRANCH   7   9
ENDBRANCH   1   7
BRANCH   2  27
HETATM   27  O2  UNL     1      -6.396  16.056 -34.876  1.00  0.00    -0.304 OA
BRANCH  27  28
HETATM   28  C7  UNL     1      -7.316  16.964 -35.352  1.00  0.00     0.151 C
HETATM   29  N5  UNL     1      -7.886  16.720 -36.479  1.00  0.00    -0.357 N
HETATM   30  C8  UNL     1      -8.869  17.654 -37.021  1.00  0.00     0.240 C
ATOM     31  H5  UNL     1      -7.652  15.871 -36.995  1.00  0.00     0.163 HD
HETATM   32  N6  UNL     1      -9.773  18.054 -35.997  1.00  0.00    -0.391 N
HETATM   33  C9  UNL     1      -9.216  18.276 -34.705  1.00  0.00     0.218 C
ATOM     34  H6  UNL     1     -10.770  18.175 -36.179  1.00  0.00     0.155 HD
HETATM   35  C11 UNL     1      -7.707  18.215 -34.658  1.00  0.00     0.289 C
BRANCH  33  36
HETATM   36  C10 UNL     1      -9.765  19.489 -34.109  1.00  0.00     0.199 C
HETATM   37  O3  UNL     1      -9.631  20.617 -34.636  1.00  0.00    -0.646 OA
HETATM   38  O4  UNL     1     -10.462  19.406 -32.917  1.00  0.00    -0.646 OA
ENDBRANCH  33  36
BRANCH  35  39
HETATM   39  N7  UNL     1      -7.083  19.383 -35.194  1.00  0.00    -0.065 N
ATOM     40  H73 UNL     1      -6.071  19.333 -35.086  1.00  0.00     0.275 HD
ATOM     41  H72 UNL     1      -7.145  19.390 -36.212  1.00  0.00     0.275 HD
ATOM     42  H71 UNL     1      -7.446  20.253 -34.805  1.00  0.00     0.275 HD
ENDBRANCH  35  39
ENDBRANCH  27  28
ENDBRANCH   2  27
BRANCH   6  43
HETATM   43  O7  UNL     1      -4.583  13.657 -32.493  1.00  0.00    -0.391 OA
ATOM     44  H7  UNL     1      -4.193  13.072 -31.855  1.00  0.00     0.210 HD
ENDBRANCH   6  43
BRANCH   5  45
HETATM   45  O6  UNL     1      -6.122  13.980 -29.945  1.00  0.00    -0.390 OA
ATOM     46  H6  UNL     1      -6.848  13.504 -29.557  1.00  0.00     0.210 HD
ENDBRANCH   5  45
BRANCH   4  47
HETATM   47  C13 UNL     1      -4.644  16.004 -30.530  1.00  0.00     0.264 C
BRANCH  47  48
HETATM   48  N8  UNL     1      -5.024  16.722 -29.326  1.00  0.00    -0.077 N
ATOM     49  H83 UNL     1      -5.946  17.148 -29.418  1.00  0.00     0.274 HD
ATOM     50  H82 UNL     1      -5.225  16.084 -28.555  1.00  0.00     0.274 HD
ATOM     51  H81 UNL     1      -4.315  17.409 -29.071  1.00  0.00     0.274 HD
ENDBRANCH  47  48
ENDBRANCH   4  47
TORSDOF 11
ENDMDL