MODEL 5
REMARK VINA RESULT: -8.343171563      2.472      4.025
REMARK  12 active torsions:
REMARK  status: ('A' for Active; 'I' for Inactive)
REMARK    1  A    between atoms: N1_1  and  C1_4
REMARK    2  A    between atoms: N5_15  and  C5_16
REMARK    3  A    between atoms: C6_18  and  C7_19
REMARK    4  A    between atoms: C7_19  and  O2_20
REMARK    5  A    between atoms: C8_22  and  O3_23
REMARK    6  A    between atoms: O3_23  and  C9_24
REMARK    7  A    between atoms: C9_24  and  C10_25
REMARK    8  A    between atoms: C12_32  and  O7_33
REMARK    9  A    between atoms: C13_35  and  C14_36
REMARK   10  A    between atoms: C14_36  and  O8_37
REMARK   11  A    between atoms: C14_36  and  O9_39
REMARK   12  A    between atoms: C15_42  and  O11_43
ROOT
HETATM    1  C5  UNL     1      -8.150  13.015 -35.903  1.00  0.00     0.262 C
HETATM    2  O1  UNL     1      -7.121  12.201 -35.430  1.00  0.00    -0.353 OA
HETATM    3  C6  UNL     1      -7.097  12.421 -34.060  1.00  0.00     0.179 C
HETATM    4  C8  UNL     1      -7.388  13.895 -33.833  1.00  0.00     0.191 C
HETATM    5  C15 UNL     1      -7.992  14.320 -35.183  1.00  0.00     0.199 C
ENDROOT
BRANCH   4   6
HETATM    6  O3  UNL     1      -6.260  14.633 -33.627  1.00  0.00    -0.319 OA
BRANCH   6   7
HETATM    7  C9  UNL     1      -6.252  15.499 -32.569  1.00  0.00     0.346 C
HETATM    8  N6  UNL     1      -4.837  15.621 -32.169  1.00  0.00    -0.294 N
HETATM    9  C11 UNL     1      -4.393  15.273 -30.868  1.00  0.00     0.253 C
ATOM     10  H6  UNL     1      -4.159  15.965 -32.848  1.00  0.00     0.168 HD
HETATM   11  O6  UNL     1      -3.168  15.012 -30.621  1.00  0.00    -0.270 OA
HETATM   12  C12 UNL     1      -5.415  15.223 -29.788  1.00  0.00     0.243 C
HETATM   13  C13 UNL     1      -6.690  15.810 -30.377  1.00  0.00     0.220 C
HETATM   14  O10 UNL     1      -7.009  15.062 -31.484  1.00  0.00    -0.316 OA
BRANCH   7  15
HETATM   15  C10 UNL     1      -6.718  16.856 -32.932  1.00  0.00     0.263 C
HETATM   16  O4  UNL     1      -6.443  17.345 -34.080  1.00  0.00    -0.642 OA
HETATM   17  O5  UNL     1      -7.458  17.690 -32.115  1.00  0.00    -0.642 OA
ENDBRANCH   7  15
BRANCH  12  18
HETATM   18  O7  UNL     1      -5.007  15.964 -28.673  1.00  0.00    -0.383 OA
ATOM     19  H7  UNL     1      -5.598  15.833 -27.940  1.00  0.00     0.210 HD
ENDBRANCH  12  18
BRANCH  13  20
HETATM   20  C14 UNL     1      -7.800  15.848 -29.351  1.00  0.00     0.285 C
BRANCH  20  21
HETATM   21  O8  UNL     1      -9.010  15.956 -30.068  1.00  0.00    -0.369 OA
ATOM     22  H8  UNL     1      -9.060  16.850 -30.385  1.00  0.00     0.212 HD
ENDBRANCH  20  21
BRANCH  20  23
HETATM   23  O9  UNL     1      -7.710  16.924 -28.501  1.00  0.00    -0.369 OA
ATOM     24  H9  UNL     1      -8.013  16.731 -27.622  1.00  0.00     0.212 HD
ENDBRANCH  20  23
ENDBRANCH  13  20
ENDBRANCH   6   7
ENDBRANCH   4   6
BRANCH   3  25
HETATM   25  C7  UNL     1      -5.755  12.011 -33.496  1.00  0.00     0.198 C
BRANCH  25  26
HETATM   26  O2  UNL     1      -5.607  12.316 -32.163  1.00  0.00    -0.398 OA
ATOM     27  H2  UNL     1      -6.203  12.992 -31.862  1.00  0.00     0.209 HD
ENDBRANCH  25  26
ENDBRANCH   3  25
BRANCH   5  28
HETATM   28  O11 UNL     1      -7.156  15.212 -35.830  1.00  0.00    -0.388 OA
ATOM     29  H11 UNL     1      -7.579  15.684 -36.538  1.00  0.00     0.210 HD
ENDBRANCH   5  28
BRANCH   1  30
HETATM   30  N5  UNL     1      -8.060  13.169 -37.341  1.00  0.00    -0.297 N
HETATM   31  C4  UNL     1      -9.038  13.111 -38.252  1.00  0.00     0.188 A
HETATM   32  N4  UNL     1      -8.545  13.306 -39.491  1.00  0.00    -0.346 N
HETATM   33  C3  UNL     1      -7.222  13.492 -39.380  1.00  0.00     0.123 A
ATOM     34  H4  UNL     1      -9.082  13.310 -40.357  1.00  0.00     0.167 HD
HETATM   35  C2  UNL     1      -6.263  13.728 -40.335  1.00  0.00     0.145 A
HETATM   36  C16 UNL     1      -6.932  13.404 -38.036  1.00  0.00     0.157 A
HETATM   37  N2  UNL     1      -4.996  13.879 -39.935  1.00  0.00    -0.175 N
HETATM   38  N3  UNL     1      -6.528  13.811 -41.587  1.00  0.00    -0.383 N
HETATM   39  C1  UNL     1      -4.693  13.795 -38.607  1.00  0.00     0.679 A
ATOM     40  H2  UNL     1      -4.260  14.057 -40.619  1.00  0.00     0.186 HD
HETATM   41  N7  UNL     1      -5.639  13.564 -37.681  1.00  0.00    -0.174 N
ATOM     42  H7  UNL     1      -5.376  13.508 -36.698  1.00  0.00     0.186 HD
ATOM     43  H32 UNL     1      -5.816  13.986 -42.295  1.00  0.00     0.157 HD
ATOM     44  H31 UNL     1      -7.495  13.696 -41.891  1.00  0.00     0.157 HD
BRANCH  39  45
HETATM   45  N1  UNL     1      -3.472  13.939 -38.217  1.00  0.00    -0.234 N
ATOM     46  H12 UNL     1      -3.017  13.159 -37.743  1.00  0.00     0.174 HD
ATOM     47  H11 UNL     1      -2.986  14.821 -38.384  1.00  0.00     0.174 HD
ENDBRANCH  39  45
ENDBRANCH   1  30
TORSDOF 12
ENDMDL