MODEL 1
REMARK VINA RESULT: -7.330450591      0.000      0.000
REMARK  17 active torsions:
REMARK  status: ('A' for Active; 'I' for Inactive)
REMARK    1  A    between atoms: C5_14  and  C6_15
REMARK    2  A    between atoms: C6_15  and  O1_16
REMARK    3  A    between atoms: C6_15  and  C7_18
REMARK    4  A    between atoms: C7_18  and  O2_19
REMARK    5  A    between atoms: C7_18  and  C8_21
REMARK    6  A    between atoms: C8_21  and  O3_22
REMARK    7  A    between atoms: N5_24  and  C9_25
REMARK    8  A    between atoms: C10_26  and  O4_27
REMARK    9  A    between atoms: C11_29  and  O5_30
REMARK   10  A    between atoms: C12_32  and  O6_33
REMARK   11  A    between atoms: C13_35  and  C14_36
REMARK   12  A    between atoms: C14_36  and  O7_37
REMARK   13  A    between atoms: N6_39  and  C15_40
REMARK   14  A    between atoms: C15_40  and  O8_41
REMARK   15  A    between atoms: C15_40  and  C16_43
REMARK   16  A    between atoms: C17_47  and  O9_48
REMARK   17  A    between atoms: C18_50  and  O10_51
ROOT
HETATM    1  C9  UNL     1      -3.527  10.984 -38.277  1.00  0.00     0.228 C
HETATM    2  C10 UNL     1      -3.041   9.726 -37.587  1.00  0.00     0.192 C
HETATM    3  C11 UNL     1      -3.337   9.526 -36.156  1.00  0.00     0.181 C
HETATM    4  C12 UNL     1      -4.129  10.654 -35.626  1.00  0.00     0.174 C
HETATM    5  C13 UNL     1      -5.249  10.981 -36.539  1.00  0.00     0.143 C
HETATM    6  N6  UNL     1      -4.767  11.490 -37.835  1.00  0.00    -0.330 N
ENDROOT
BRANCH   1   7
HETATM    7  N5  UNL     1      -3.439  10.728 -39.739  1.00  0.00    -0.293 N
HETATM    8  C3  UNL     1      -4.394  10.157 -40.481  1.00  0.00     0.142 A
HETATM    9  N3  UNL     1      -5.615   9.700 -40.266  1.00  0.00    -0.336 N
HETATM   10  C4  UNL     1      -3.907  10.063 -41.761  1.00  0.00     0.122 A
HETATM   11  C2  UNL     1      -6.363   9.169 -41.222  1.00  0.00     0.183 A
ATOM     12  H3  UNL     1      -5.999   9.758 -39.323  1.00  0.00     0.168 HD
HETATM   13  N2  UNL     1      -5.887   9.073 -42.489  1.00  0.00    -0.337 N
HETATM   14  C1  UNL     1      -4.666   9.512 -42.782  1.00  0.00     0.131 A
ATOM     15  H2  UNL     1      -6.468   8.662 -43.219  1.00  0.00     0.168 HD
HETATM   16  N1  UNL     1      -4.184   9.441 -43.956  1.00  0.00    -0.383 N
ATOM     17  H12 UNL     1      -4.743   9.036 -44.707  1.00  0.00     0.157 HD
ATOM     18  H11 UNL     1      -3.247   9.777 -44.181  1.00  0.00     0.157 HD
HETATM   19  N4  UNL     1      -2.669  10.580 -41.762  1.00  0.00    -0.337 N
HETATM   20  C5  UNL     1      -2.373  10.999 -40.496  1.00  0.00     0.119 A
ATOM     21  H4  UNL     1      -2.053  10.649 -42.572  1.00  0.00     0.167 HD
BRANCH  20  22
HETATM   22  C6  UNL     1      -1.052  11.609 -40.214  1.00  0.00     0.216 C
BRANCH  22  23
HETATM   23  O1  UNL     1      -0.510  12.393 -41.185  1.00  0.00    -0.385 OA
ATOM     24  H1  UNL     1       0.435  12.375 -41.280  1.00  0.00     0.210 HD
ENDBRANCH  22  23
BRANCH  22  25
HETATM   25  C7  UNL     1      -0.026  10.644 -39.678  1.00  0.00     0.177 C
BRANCH  25  26
HETATM   26  O2  UNL     1      -0.473   9.326 -39.729  1.00  0.00    -0.390 OA
ATOM     27  H2  UNL     1      -0.707   9.062 -40.611  1.00  0.00     0.210 HD
ENDBRANCH  25  26
BRANCH  25  28
HETATM   28  C8  UNL     1       0.232  11.002 -38.207  1.00  0.00     0.198 C
BRANCH  28  29
HETATM   29  O3  UNL     1       0.239  12.359 -38.011  1.00  0.00    -0.398 OA
ATOM     30  H3  UNL     1      -0.180  12.597 -37.192  1.00  0.00     0.209 HD
ENDBRANCH  28  29
ENDBRANCH  25  28
ENDBRANCH  22  25
ENDBRANCH  20  22
ENDBRANCH   1   7
BRANCH   2  31
HETATM   31  O4  UNL     1      -3.403   8.582 -38.362  1.00  0.00    -0.389 OA
ATOM     32  H4  UNL     1      -3.154   8.718 -39.269  1.00  0.00     0.210 HD
ENDBRANCH   2  31
BRANCH   6  33
HETATM   33  C15 UNL     1      -5.530  12.456 -38.447  1.00  0.00     0.150 C
BRANCH  33  34
HETATM   34  O8  UNL     1      -6.641  11.953 -38.978  1.00  0.00    -0.348 OA
ATOM     35  H8  UNL     1      -6.551  11.794 -39.911  1.00  0.00     0.219 HD
ENDBRANCH  33  34
BRANCH  33  36
HETATM   36  C16 UNL     1      -5.401  13.895 -38.638  1.00  0.00     0.295 C
HETATM   37  N7  UNL     1      -4.035  14.386 -38.789  1.00  0.00    -0.032 N
HETATM   38  C17 UNL     1      -4.032  14.085 -40.178  1.00  0.00     0.351 C
ATOM     39  H72 UNL     1      -3.808  15.332 -38.483  1.00  0.00     0.281 HD
ATOM     40  H71 UNL     1      -3.299  14.002 -38.195  1.00  0.00     0.281 HD
HETATM   41  C18 UNL     1      -5.541  14.214 -40.141  1.00  0.00     0.213 C
BRANCH  38  42
HETATM   42  O9  UNL     1      -3.408  15.056 -40.969  1.00  0.00    -0.368 OA
ATOM     43  H9  UNL     1      -2.493  15.196 -40.756  1.00  0.00     0.212 HD
ENDBRANCH  38  42
BRANCH  41  44
HETATM   44  O10 UNL     1      -5.885  15.537 -40.415  1.00  0.00    -0.389 OA
ATOM     45  H10 UNL     1      -5.322  15.963 -41.050  1.00  0.00     0.210 HD
ENDBRANCH  41  44
ENDBRANCH  33  36
ENDBRANCH   6  33
BRANCH   3  46
HETATM   46  O5  UNL     1      -3.911   8.277 -35.875  1.00  0.00    -0.390 OA
ATOM     47  H5  UNL     1      -4.507   8.294 -35.135  1.00  0.00     0.210 HD
ENDBRANCH   3  46
BRANCH   5  48
HETATM   48  C14 UNL     1      -6.226   9.891 -36.588  1.00  0.00     0.192 C
BRANCH  48  49
HETATM   49  O7  UNL     1      -7.149  10.077 -35.536  1.00  0.00    -0.399 OA
ATOM     50  H7  UNL     1      -6.851  10.805 -35.005  1.00  0.00     0.209 HD
ENDBRANCH  48  49
ENDBRANCH   5  48
BRANCH   4  51
HETATM   51  O6  UNL     1      -4.569  10.365 -34.345  1.00  0.00    -0.391 OA
ATOM     52  H6  UNL     1      -4.887  11.155 -33.923  1.00  0.00     0.210 HD
ENDBRANCH   4  51
TORSDOF 17
ENDMDL