MODEL 4
REMARK VINA RESULT: -7.806631752      8.924     11.531
REMARK  13 active torsions:
REMARK  status: ('A' for Active; 'I' for Inactive)
REMARK    1  A    between atoms: N1_1  and  C1_4
REMARK    2  A    between atoms: N3_8  and  C3_9
REMARK    3  A    between atoms: C4_10  and  C5_11
REMARK    4  A    between atoms: C5_11  and  N4_12
REMARK    5  A    between atoms: N4_12  and  S1_14
REMARK    6  A    between atoms: C6_19  and  C7_20
REMARK    7  A    between atoms: C7_20  and  O5_21
REMARK    8  A    between atoms: C8_23  and  O6_24
REMARK    9  A    between atoms: C9_26  and  C10_27
REMARK   10  A    between atoms: C11_31  and  O7_32
REMARK   11  A    between atoms: C12_34  and  C13_35
REMARK   12  A    between atoms: C13_35  and  O8_36
REMARK   13  A    between atoms: C14_42  and  N8_43
ROOT
HETATM    1  C1  UNL     1      -5.342   8.142 -29.761  1.00  0.00     0.705 A
HETATM    2  N2  UNL     1      -4.248   7.559 -30.272  1.00  0.00    -0.019 N
ATOM      3  H2  UNL     1      -3.803   6.821 -29.726  1.00  0.00     0.203 HD
HETATM    4  C2  UNL     1      -3.698   7.882 -31.454  1.00  0.00     0.737 A
HETATM    5  N3  UNL     1      -2.625   7.467 -32.177  1.00  0.00    -0.153 N
HETATM    6  C9  UNL     1      -2.579   8.197 -33.323  1.00  0.00     0.173 A
HETATM    7  N6  UNL     1      -3.629   9.027 -33.250  1.00  0.00    -0.248 N
ATOM      8  H6  UNL     1      -3.865   9.708 -33.972  1.00  0.00     0.190 HD
HETATM    9  N7  UNL     1      -4.322   8.865 -32.137  1.00  0.00     0.092 N
HETATM   10  C14 UNL     1      -5.433   9.470 -31.641  1.00  0.00     0.727 A
HETATM   11  N9  UNL     1      -5.952   9.119 -30.456  1.00  0.00    -0.020 N
ATOM     12  H9  UNL     1      -6.786   9.579 -30.092  1.00  0.00     0.203 HD
ENDROOT
BRANCH   5  13
HETATM   13  C3  UNL     1      -1.696   6.451 -31.844  1.00  0.00     0.171 C
HETATM   14  C4  UNL     1      -2.050   5.056 -32.318  1.00  0.00     0.167 C
HETATM   15  O4  UNL     1      -1.267   4.181 -31.565  1.00  0.00    -0.372 OA
HETATM   16  C6  UNL     1      -0.822   4.798 -30.433  1.00  0.00     0.176 C
HETATM   17  C8  UNL     1      -1.543   6.150 -30.368  1.00  0.00     0.175 C
BRANCH  14  18
HETATM   18  C5  UNL     1      -3.486   4.682 -32.065  1.00  0.00     0.168 C
BRANCH  18  19
HETATM   19  N4  UNL     1      -3.687   3.399 -32.759  1.00  0.00    -0.298 N
ATOM     20  H4  UNL     1      -3.451   3.191 -33.729  1.00  0.00     0.174 HD
BRANCH  19  21
HETATM   21  S1  UNL     1      -4.397   2.318 -31.621  1.00  0.00     0.204 S
HETATM   22  O1  UNL     1      -3.482   1.157 -31.305  1.00  0.00    -0.578 OA
HETATM   23  O2  UNL     1      -5.738   1.874 -32.079  1.00  0.00    -0.578 OA
HETATM   24  O3  UNL     1      -4.593   3.173 -30.172  1.00  0.00    -0.578 OA
ENDBRANCH  19  21
ENDBRANCH  18  19
ENDBRANCH  14  18
BRANCH  16  25
HETATM   25  C7  UNL     1      -1.073   3.991 -29.184  1.00  0.00     0.198 C
BRANCH  25  26
HETATM   26  O5  UNL     1      -1.745   2.806 -29.484  1.00  0.00    -0.398 OA
ATOM     27  H5  UNL     1      -1.372   2.075 -29.006  1.00  0.00     0.209 HD
ENDBRANCH  25  26
ENDBRANCH  16  25
BRANCH  17  28
HETATM   28  O6  UNL     1      -0.692   7.010 -29.701  1.00  0.00    -0.391 OA
ATOM     29  H6  UNL     1       0.206   6.985 -30.010  1.00  0.00     0.210 HD
ENDBRANCH  17  28
ENDBRANCH   5  13
BRANCH   6  30
HETATM   30  C10 UNL     1      -1.576   8.140 -34.438  1.00  0.00     0.395 C
HETATM   31  N5  UNL     1      -1.061   9.443 -34.797  1.00  0.00    -0.013 N
HETATM   32  C11 UNL     1      -0.941   9.362 -36.265  1.00  0.00     0.353 C
ATOM     33  H52 UNL     1      -1.618  10.228 -34.459  1.00  0.00     0.283 HD
ATOM     34  H51 UNL     1      -0.202   9.708 -34.314  1.00  0.00     0.283 HD
HETATM   35  C12 UNL     1      -2.206   8.566 -36.561  1.00  0.00     0.204 C
HETATM   36  O9  UNL     1      -2.204   7.625 -35.571  1.00  0.00    -0.341 OA
BRANCH  32  37
HETATM   37  O7  UNL     1       0.207   8.661 -36.528  1.00  0.00    -0.368 OA
ATOM     38  H7  UNL     1       0.298   8.632 -37.474  1.00  0.00     0.212 HD
ENDBRANCH  32  37
BRANCH  35  39
HETATM   39  C13 UNL     1      -2.100   7.852 -37.892  1.00  0.00     0.200 C
BRANCH  39  40
HETATM   40  O8  UNL     1      -1.801   6.516 -37.775  1.00  0.00    -0.398 OA
ATOM     41  H8  UNL     1      -1.024   6.347 -37.255  1.00  0.00     0.209 HD
ENDBRANCH  39  40
ENDBRANCH  35  39
ENDBRANCH   6  30
BRANCH   1  42
HETATM   42  N1  UNL     1      -5.855   7.817 -28.622  1.00  0.00    -0.234 N
ATOM     43  H12 UNL     1      -5.295   7.996 -27.789  1.00  0.00     0.174 HD
ATOM     44  H11 UNL     1      -6.779   7.398 -28.522  1.00  0.00     0.174 HD
ENDBRANCH   1  42
BRANCH  10  45
HETATM   45  N8  UNL     1      -5.960  10.387 -32.352  1.00  0.00    -0.232 N
ATOM     46  H82 UNL     1      -5.405  10.934 -33.011  1.00  0.00     0.174 HD
ATOM     47  H81 UNL     1      -6.959  10.550 -32.233  1.00  0.00     0.174 HD
ENDBRANCH  10  45
TORSDOF 13
ENDMDL