MODEL 5
REMARK VINA RESULT: -4.760310430      1.528      2.131
REMARK  5 active torsions:
REMARK  status: ('A' for Active; 'I' for Inactive)
REMARK    1  A    between atoms: C5_5  and  O1_6
REMARK    2  A    between atoms: C5_5  and  O2_8
REMARK    3  A    between atoms: N1_11  and  C7_13
REMARK    4  A    between atoms: C7_13  and  C8_14
REMARK    5  A    between atoms: C8_14  and  C9_15
ROOT
HETATM    1  C1  UNL     1     -65.349  38.917 -45.744  1.00  0.00     0.010 C
HETATM    2  C2  UNL     1     -65.283  38.341 -44.347  1.00  0.00    -0.013 C
HETATM    3  C3  UNL     1     -63.935  37.747 -44.046  1.00  0.00     0.010 C
HETATM    4  C4  UNL     1     -63.917  37.485 -42.534  1.00  0.00     0.075 C
HETATM    5  C5  UNL     1     -64.776  36.247 -42.340  1.00  0.00     0.199 C
HETATM    6  C6  UNL     1     -66.105  36.413 -42.977  1.00  0.00     0.044 C
HETATM    7  N1  UNL     1     -67.081  35.742 -42.510  1.00  0.00    -0.392 N
ATOM      8  H1  UNL     1     -66.880  35.128 -41.720  1.00  0.00     0.159 HD
HETATM    9  C13 UNL     1     -66.348  37.317 -44.126  1.00  0.00     0.062 C
ENDROOT
BRANCH   5  10
HETATM   10  O1  UNL     1     -64.918  35.971 -40.977  1.00  0.00    -0.361 OA
ATOM     11  H1  UNL     1     -65.839  35.952 -40.743  1.00  0.00     0.213 HD
ENDBRANCH   5  10
BRANCH   5  12
HETATM   12  O2  UNL     1     -64.075  35.186 -42.931  1.00  0.00    -0.361 OA
ATOM     13  H2  UNL     1     -64.397  35.118 -43.822  1.00  0.00     0.213 HD
ENDBRANCH   5  12
BRANCH   7  14
HETATM   14  C7  UNL     1     -68.413  35.765 -42.979  1.00  0.00     0.120 C
BRANCH  14  15
HETATM   15  C8  UNL     1     -69.123  34.489 -42.594  1.00  0.00     0.028 C
BRANCH  15  16
HETATM   16  C9  UNL     1     -70.544  34.770 -42.157  1.00  0.00    -0.050 C
HETATM   17  C10 UNL     1     -71.436  34.553 -43.358  1.00  0.00     0.014 C
HETATM   18  C11 UNL     1     -70.627  36.221 -41.749  1.00  0.00     0.014 C
HETATM   19  C12 UNL     1     -70.986  33.849 -41.051  1.00  0.00     0.014 C
ENDBRANCH  15  16
ENDBRANCH  14  15
ENDBRANCH   7  14
TORSDOF 5
ENDMDL