MODEL 1
REMARK VINA RESULT: -5.093897697      0.000      0.000
REMARK  2 active torsions:
REMARK  status: ('A' for Active; 'I' for Inactive)
REMARK    1  A    between atoms: C4_6  and  N1_7
REMARK    2  A    between atoms: N1_7  and  C5_10
ROOT
HETATM    1  N1  UNL     1     -69.256  26.985 -51.813  1.00  0.00    -0.058 N
ATOM      2  H11 UNL     1     -69.651  26.540 -52.641  1.00  0.00     0.278 HD
ATOM      3  H12 UNL     1     -69.431  26.251 -51.126  1.00  0.00     0.278 HD
ENDROOT
BRANCH   1   4
HETATM    4  C4  UNL     1     -69.985  28.177 -51.479  1.00  0.00     0.287 C
HETATM    5  C1  UNL     1     -71.075  27.854 -50.518  1.00  0.00     0.289 C
HETATM    6  O1  UNL     1     -71.788  26.824 -50.453  1.00  0.00    -0.263 OA
HETATM    7  O2  UNL     1     -71.222  28.927 -49.620  1.00  0.00    -0.320 OA
HETATM    8  C2  UNL     1     -70.216  29.896 -49.817  1.00  0.00     0.181 C
HETATM    9  C3  UNL     1     -69.213  29.225 -50.760  1.00  0.00     0.070 C
ENDBRANCH   1   4
BRANCH   1  10
HETATM   10  C5  UNL     1     -67.824  27.208 -51.979  1.00  0.00     0.187 C
HETATM   11  C6  UNL     1     -67.224  25.811 -51.760  1.00  0.00     0.033 C
HETATM   12  C7  UNL     1     -65.722  25.819 -51.821  1.00  0.00     0.002 C
HETATM   13  C8  UNL     1     -65.218  25.476 -53.184  1.00  0.00     0.000 C
HETATM   14  C9  UNL     1     -64.966  26.612 -54.097  1.00  0.00     0.000 C
HETATM   15  C10 UNL     1     -65.051  27.991 -53.546  1.00  0.00     0.000 C
HETATM   16  C11 UNL     1     -66.428  28.577 -53.552  1.00  0.00     0.002 C
HETATM   17  C12 UNL     1     -67.550  27.591 -53.393  1.00  0.00     0.033 C
ENDBRANCH   1  10
TORSDOF 2
ENDMDL