MODEL 3
REMARK VINA RESULT: -4.427627622      1.400      1.546
REMARK  2 active torsions:
REMARK  status: ('A' for Active; 'I' for Inactive)
REMARK    1  A    between atoms: C2_2  and  O1_4
REMARK    2  A    between atoms: O1_4  and  C4_5
ROOT
HETATM    1  C4  UNL     1     -68.770  27.546 -52.005  1.00  0.00     0.141 C
HETATM    2  C5  UNL     1     -67.589  27.672 -52.484  1.00  0.00    -0.022 C
HETATM    3  C6  UNL     1     -66.489  28.434 -51.749  1.00  0.00     0.153 C
HETATM    4  C7  UNL     1     -65.476  27.434 -51.277  1.00  0.00     0.037 C
HETATM    5  C8  UNL     1     -65.585  26.082 -51.868  1.00  0.00     0.004 C
HETATM    6  C9  UNL     1     -66.053  26.022 -53.281  1.00  0.00     0.012 C
HETATM    7  C10 UNL     1     -66.845  27.251 -53.686  1.00  0.00     0.053 C
HETATM    8  C11 UNL     1     -65.941  28.448 -53.905  1.00  0.00     0.062 C
HETATM    9  C12 UNL     1     -66.517  29.211 -55.109  1.00  0.00     0.046 C
HETATM   10  C13 UNL     1     -64.538  28.104 -54.256  1.00  0.00     0.046 C
HETATM   11  O2  UNL     1     -65.992  29.211 -52.773  1.00  0.00    -0.370 OA
ENDROOT
BRANCH   1  12
HETATM   12  O1  UNL     1     -69.812  26.911 -52.537  1.00  0.00    -0.358 OA
BRANCH  12  13
HETATM   13  C2  UNL     1     -71.161  27.044 -52.392  1.00  0.00     0.119 C
HETATM   14  C1  UNL     1     -71.775  25.682 -52.830  1.00  0.00     0.039 C
HETATM   15  C3  UNL     1     -71.624  27.265 -50.968  1.00  0.00     0.039 C
ENDBRANCH  12  13
ENDBRANCH   1  12
TORSDOF 2
ENDMDL