MODEL 1
REMARK VINA RESULT: -4.479138179      0.000      0.000
REMARK  2 active torsions:
REMARK  status: ('A' for Active; 'I' for Inactive)
REMARK    1  A    between atoms: C2_2  and  S1_3
REMARK    2  A    between atoms: S1_3  and  C3_4
ROOT
HETATM    1  C3  UNL     1     -67.186  27.366 -52.282  1.00  0.00     0.183 C
HETATM    2  C4  UNL     1     -67.167  28.782 -51.754  1.00  0.00     0.046 C
HETATM    3  C5  UNL     1     -68.656  29.108 -51.806  1.00  0.00     0.043 C
HETATM    4  C6  UNL     1     -69.278  27.759 -51.586  1.00  0.00     0.078 C
HETATM    5  C7  UNL     1     -69.974  27.674 -50.249  1.00  0.00     0.040 C
HETATM    6  C8  UNL     1     -71.188  28.557 -50.158  1.00  0.00     0.004 C
HETATM    7  C9  UNL     1     -72.243  28.146 -51.151  1.00  0.00     0.019 C
HETATM    8  C10 UNL     1     -72.193  26.699 -51.520  1.00  0.00     0.113 C
HETATM    9  N1  UNL     1     -71.066  26.304 -52.298  1.00  0.00    -0.418 N
ATOM     10  H1  UNL     1     -70.886  25.329 -52.537  1.00  0.00     0.153 HD
HETATM   11  C11 UNL     1     -70.202  27.363 -52.722  1.00  0.00     0.151 C
HETATM   12  O1  UNL     1     -68.245  26.822 -51.547  1.00  0.00    -0.363 OA
ENDROOT
BRANCH   1  13
HETATM   13  S1  UNL     1     -65.665  26.468 -51.953  1.00  0.00    -0.138 SA
BRANCH  13  14
HETATM   14  C2  UNL     1     -64.573  26.375 -53.386  1.00  0.00     0.072 C
HETATM   15  C1  UNL     1     -64.065  27.773 -53.679  1.00  0.00     0.016 C
ENDBRANCH  13  14
ENDBRANCH   1  13
TORSDOF 2
ENDMDL