MODEL 1
REMARK VINA RESULT: -4.600672033      0.000      0.000
REMARK  3 active torsions:
REMARK  status: ('A' for Active; 'I' for Inactive)
REMARK    1  A    between atoms: C5_5  and  C6_6
REMARK    2  A    between atoms: C6_6  and  S1_7
REMARK    3  A    between atoms: S1_7  and  C7_8
ROOT
HETATM    1  C6  UNL     1     -68.345  29.025 -52.695  1.00  0.00     0.087 C
ENDROOT
BRANCH   1   2
HETATM    2  C5  UNL     1     -67.222  28.008 -52.705  1.00  0.00    -0.005 C
HETATM    3  C4  UNL     1     -66.357  28.295 -51.499  1.00  0.00     0.005 C
HETATM    4  C3  UNL     1     -64.951  27.837 -51.661  1.00  0.00     0.000 C
HETATM    5  C2  UNL     1     -64.781  26.691 -52.607  1.00  0.00     0.000 C
HETATM    6  C1  UNL     1     -65.547  25.475 -52.285  1.00  0.00     0.000 C
HETATM    7  C11 UNL     1     -66.950  25.660 -51.850  1.00  0.00     0.000 C
HETATM    8  C10 UNL     1     -67.750  26.619 -52.671  1.00  0.00     0.005 C
ENDBRANCH   1   2
BRANCH   1   9
HETATM    9  S1  UNL     1     -68.934  29.398 -51.047  1.00  0.00    -0.094 SA
BRANCH   9  10
HETATM   10  C7  UNL     1     -70.521  28.615 -50.813  1.00  0.00     0.136 C
HETATM   11  N1  UNL     1     -71.646  29.222 -50.690  1.00  0.00    -0.369 N
HETATM   12  C8  UNL     1     -72.743  28.302 -50.514  1.00  0.00     0.141 C
ATOM     13  H1  UNL     1     -71.751  30.237 -50.714  1.00  0.00     0.161 HD
HETATM   14  C9  UNL     1     -72.156  26.992 -50.965  1.00  0.00     0.141 C
HETATM   15  N2  UNL     1     -70.748  27.189 -50.732  1.00  0.00    -0.369 N
ATOM     16  H2  UNL     1     -70.051  26.468 -50.546  1.00  0.00     0.161 HD
ENDBRANCH   9  10
ENDBRANCH   1   9
TORSDOF 3
ENDMDL