MODEL 4
REMARK VINA RESULT: -4.049640828      2.462      4.832
REMARK  3 active torsions:
REMARK  status: ('A' for Active; 'I' for Inactive)
REMARK    1  A    between atoms: C2_2  and  S1_3
REMARK    2  A    between atoms: S1_3  and  C3_4
REMARK    3  A    between atoms: C8_9  and  O1_10
ROOT
HETATM    1  C3  UNL     1     -64.811  39.128 -42.436  1.00  0.00     0.052 C
HETATM    2  C4  UNL     1     -63.503  39.910 -42.426  1.00  0.00     0.015 C
HETATM    3  C5  UNL     1     -62.392  39.150 -41.754  1.00  0.00     0.002 C
HETATM    4  C6  UNL     1     -62.385  37.701 -42.144  1.00  0.00     0.008 C
HETATM    5  C7  UNL     1     -63.222  37.497 -43.381  1.00  0.00     0.030 C
HETATM    6  C8  UNL     1     -63.146  36.089 -43.904  1.00  0.00     0.183 C
HETATM    7  S2  UNL     1     -64.731  35.945 -44.803  1.00  0.00    -0.137 SA
HETATM    8  C9  UNL     1     -65.474  37.528 -44.264  1.00  0.00     0.082 C
HETATM    9  C10 UNL     1     -64.660  37.767 -43.018  1.00  0.00     0.016 C
ENDROOT
BRANCH   1  10
HETATM   10  S1  UNL     1     -66.004  40.169 -43.334  1.00  0.00    -0.164 SA
BRANCH  10  11
HETATM   11  C2  UNL     1     -67.238  40.689 -42.095  1.00  0.00     0.070 C
HETATM   12  C1  UNL     1     -67.217  39.639 -40.999  1.00  0.00     0.016 C
ENDBRANCH  10  11
ENDBRANCH   1  10
BRANCH   6  13
HETATM   13  O1  UNL     1     -63.062  35.152 -42.882  1.00  0.00    -0.385 OA
ATOM     14  H1  UNL     1     -63.885  35.051 -42.418  1.00  0.00     0.211 HD
ENDBRANCH   6  13
TORSDOF 3
ENDMDL