MODEL 3
REMARK VINA RESULT: -4.352099149      2.137      3.129
REMARK  3 active torsions:
REMARK  status: ('A' for Active; 'I' for Inactive)
REMARK    1  A    between atoms: C2_2  and  C4_4
REMARK    2  A    between atoms: C4_4  and  C5_5
REMARK    3  A    between atoms: C10_11  and  N1_12
ROOT
HETATM    1  C5  UNL     1     -64.572  37.143 -44.388  1.00  0.00     0.024 C
HETATM    2  C6  UNL     1     -66.103  36.962 -44.420  1.00  0.00     0.028 C
HETATM    3  S1  UNL     1     -64.162  38.825 -45.024  1.00  0.00    -0.146 SA
HETATM    4  C7  UNL     1     -63.870  39.645 -43.405  1.00  0.00     0.031 C
HETATM    5  C8  UNL     1     -64.575  40.962 -43.358  1.00  0.00     0.029 C
HETATM    6  C9  UNL     1     -62.385  39.797 -43.149  1.00  0.00     0.029 C
HETATM    7  C10 UNL     1     -64.482  38.639 -42.489  1.00  0.00     0.220 C
HETATM    8  C11 UNL     1     -64.095  37.251 -42.995  1.00  0.00     0.143 C
HETATM    9  C12 UNL     1     -64.833  36.333 -42.079  1.00  0.00     0.067 C
HETATM   10  N2  UNL     1     -65.391  35.604 -41.360  1.00  0.00    -0.197 NA
ENDROOT
BRANCH   1  11
HETATM   11  C4  UNL     1     -64.042  36.110 -45.281  1.00  0.00     0.025 C
BRANCH  11  12
HETATM   12  C2  UNL     1     -64.852  34.998 -45.780  1.00  0.00    -0.021 C
HETATM   13  C1  UNL     1     -64.265  33.719 -45.101  1.00  0.00     0.009 C
HETATM   14  C3  UNL     1     -64.635  34.742 -47.250  1.00  0.00     0.009 C
ENDBRANCH  11  12
ENDBRANCH   1  11
BRANCH   7  15
HETATM   15  N1  UNL     1     -65.869  38.806 -42.268  1.00  0.00    -0.072 N
ATOM     16  H13 UNL     1     -66.040  39.117 -41.313  1.00  0.00     0.274 HD
ATOM     17  H12 UNL     1     -66.213  39.618 -42.782  1.00  0.00     0.274 HD
ATOM     18  H11 UNL     1     -66.437  37.986 -42.481  1.00  0.00     0.274 HD
ENDBRANCH   7  15
TORSDOF 3
ENDMDL