MODEL 3
REMARK VINA RESULT: -5.052047382      3.372      5.453
REMARK  3 active torsions:
REMARK  status: ('A' for Active; 'I' for Inactive)
REMARK    1  A    between atoms: N1_1  and  N2_4
REMARK    2  A    between atoms: N3_6  and  C1_8
REMARK    3  A    between atoms: C1_8  and  C2_9
ROOT
HETATM    1  C2  UNL     1     -64.154  35.047 -44.747  1.00  0.00     0.206 C
HETATM    2  C3  UNL     1     -62.873  34.760 -44.000  1.00  0.00     0.035 C
HETATM    3  C4  UNL     1     -62.385  35.881 -43.173  1.00  0.00     0.004 C
HETATM    4  C5  UNL     1     -63.067  37.182 -43.298  1.00  0.00     0.039 C
HETATM    5  C6  UNL     1     -64.501  37.150 -43.714  1.00  0.00     0.126 C
HETATM    6  C7  UNL     1     -65.317  37.700 -42.534  1.00  0.00     0.039 C
HETATM    7  C8  UNL     1     -65.015  39.186 -42.511  1.00  0.00     0.002 C
HETATM    8  C9  UNL     1     -65.874  39.747 -43.642  1.00  0.00     0.000 C
HETATM    9  C10 UNL     1     -65.708  39.028 -44.920  1.00  0.00     0.002 C
HETATM   10  C11 UNL     1     -64.753  37.912 -44.971  1.00  0.00     0.039 C
HETATM   11  N4  UNL     1     -65.007  35.777 -43.866  1.00  0.00    -0.060 N
ATOM     12  H41 UNL     1     -65.124  35.308 -42.967  1.00  0.00     0.278 HD
ATOM     13  H42 UNL     1     -65.981  35.756 -44.170  1.00  0.00     0.278 HD
ENDROOT
BRANCH   1  14
HETATM   14  C1  UNL     1     -64.858  33.761 -45.123  1.00  0.00     0.173 C
BRANCH  14  15
HETATM   15  N3  UNL     1     -63.934  32.629 -45.107  1.00  0.00    -0.321 N
HETATM   16  N2  UNL     1     -64.396  31.501 -45.106  1.00  0.00    -0.254 N
ATOM     17  H2  UNL     1     -64.888  31.510 -46.000  1.00  0.00     0.207 HD
ATOM     18  H3  UNL     1     -62.925  32.780 -45.096  1.00  0.00     0.181 HD
BRANCH  16  19
HETATM   19  N1  UNL     1     -64.658  30.345 -44.726  1.00  0.00    -0.331 N
ATOM     20  H12 UNL     1     -63.877  30.251 -44.077  1.00  0.00     0.178 HD
ATOM     21  H11 UNL     1     -65.138  29.449 -44.646  1.00  0.00     0.178 HD
ENDBRANCH  16  19
ENDBRANCH  14  15
ENDBRANCH   1  14
TORSDOF 3
ENDMDL