MODEL 5
REMARK VINA RESULT: -4.588495235      2.299      5.036
REMARK  3 active torsions:
REMARK  status: ('A' for Active; 'I' for Inactive)
REMARK    1  A    between atoms: C4_4  and  C5_5
REMARK    2  A    between atoms: C5_5  and  C6_6
REMARK    3  A    between atoms: C11_13  and  O3_15
ROOT
HETATM    1  C6  UNL     1     -63.328  36.971 -43.798  1.00  0.00     0.119 C
HETATM    2  C7  UNL     1     -62.387  35.829 -43.562  1.00  0.00     0.052 C
HETATM    3  O1  UNL     1     -62.646  38.143 -43.956  1.00  0.00    -0.339 OA
HETATM    4  C8  UNL     1     -63.382  39.181 -43.449  1.00  0.00     0.161 C
HETATM    5  C9  UNL     1     -64.151  39.956 -44.488  1.00  0.00     0.078 C
HETATM    6  C10 UNL     1     -62.385  40.166 -42.823  1.00  0.00     0.078 C
HETATM    7  O2  UNL     1     -64.250  38.674 -42.490  1.00  0.00    -0.317 OA
HETATM    8  C11 UNL     1     -64.057  37.299 -42.466  1.00  0.00     0.193 C
HETATM    9  C12 UNL     1     -65.359  36.606 -42.362  1.00  0.00     0.082 C
ENDROOT
BRANCH   1  10
HETATM   10  C5  UNL     1     -64.277  36.725 -44.870  1.00  0.00     0.071 C
BRANCH  10  11
HETATM   11  C4  UNL     1     -63.840  36.683 -46.239  1.00  0.00    -0.022 C
HETATM   12  C2  UNL     1     -63.921  36.012 -47.320  1.00  0.00    -0.091 C
HETATM   13  C1  UNL     1     -63.140  36.572 -48.528  1.00  0.00     0.042 C
HETATM   14  C3  UNL     1     -64.632  34.778 -47.624  1.00  0.00     0.042 C
ENDBRANCH  10  11
ENDBRANCH   1  10
BRANCH   8  15
HETATM   15  O3  UNL     1     -63.172  37.014 -41.441  1.00  0.00    -0.363 OA
ATOM     16  H3  UNL     1     -63.122  36.068 -41.373  1.00  0.00     0.213 HD
ENDBRANCH   8  15
TORSDOF 3
ENDMDL