MODEL 4
REMARK VINA RESULT: -4.758163784      2.641      5.402
REMARK  3 active torsions:
REMARK  status: ('A' for Active; 'I' for Inactive)
REMARK    1  A    between atoms: C2_2  and  C3_3
REMARK    2  A    between atoms: C3_3  and  N1_4
REMARK    3  A    between atoms: C12_15  and  N3_16
ROOT
HETATM    1  N1  UNL     1     -63.761  39.441 -42.394  1.00  0.00    -0.354 N
HETATM    2  C4  UNL     1     -64.596  40.350 -41.716  1.00  0.00     0.176 C
HETATM    3  N2  UNL     1     -65.798  40.075 -41.423  1.00  0.00    -0.381 N
ATOM      4  H2  UNL     1     -66.352  40.778 -40.935  1.00  0.00     0.160 HD
HETATM    5  C5  UNL     1     -66.416  38.824 -41.746  1.00  0.00     0.090 C
HETATM    6  C6  UNL     1     -67.825  39.030 -42.241  1.00  0.00     0.026 C
HETATM    7  C7  UNL     1     -68.352  38.014 -43.183  1.00  0.00     0.002 C
HETATM    8  C8  UNL     1     -68.340  36.601 -42.729  1.00  0.00     0.000 C
HETATM    9  C9  UNL     1     -67.049  35.874 -42.777  1.00  0.00     0.001 C
HETATM   10  C10 UNL     1     -65.922  36.465 -42.018  1.00  0.00     0.010 C
HETATM   11  C11 UNL     1     -65.644  37.874 -42.575  1.00  0.00     0.052 C
HETATM   12  C12 UNL     1     -64.198  38.119 -42.770  1.00  0.00     0.205 C
ENDROOT
BRANCH  12  13
HETATM   13  N3  UNL     1     -63.361  37.202 -42.005  1.00  0.00    -0.319 N
HETATM   14  N4  UNL     1     -62.567  36.414 -42.514  1.00  0.00    -0.348 N
ATOM     15  H42 UNL     1     -62.502  36.414 -43.532  1.00  0.00     0.176 HD
ATOM     16  H41 UNL     1     -61.982  35.773 -41.979  1.00  0.00     0.176 HD
ATOM     17  H3  UNL     1     -63.439  37.216 -40.988  1.00  0.00     0.182 HD
ENDBRANCH  12  13
BRANCH   1  18
HETATM   18  C3  UNL     1     -62.410  39.834 -42.729  1.00  0.00     0.125 C
BRANCH  18  19
HETATM   19  C2  UNL     1     -62.387  41.114 -43.539  1.00  0.00     0.015 C
HETATM   20  C1  UNL     1     -62.748  40.871 -44.980  1.00  0.00     0.006 C
ENDBRANCH  18  19
ENDBRANCH   1  18
TORSDOF 3
ENDMDL