MODEL 5
REMARK VINA RESULT: -6.589346402      3.386      8.854
REMARK  10 active torsions:
REMARK  status: ('A' for Active; 'I' for Inactive)
REMARK    1  A    between atoms: O1_2  and  C2_3
REMARK    2  A    between atoms: C2_3  and  C3_4
REMARK    3  A    between atoms: N1_9  and  C8_10
REMARK    4  A    between atoms: C9_13  and  N3_14
REMARK    5  A    between atoms: N3_14  and  N4_15
REMARK       I    between atoms: N4_15  and  C10_16
REMARK    6  A    between atoms: C10_16  and  C11_18
REMARK    7  A    between atoms: C11_18  and  N5_19
REMARK    8  A    between atoms: C13_26  and  N9_27
REMARK    9  A    between atoms: C14_32  and  N11_33
REMARK   10  A    between atoms: N13_39  and  O3_40
ROOT
HETATM    1  C8  UNL     1      26.981  -5.877  11.398  1.00  0.00     0.711 A
HETATM    2  N2  UNL     1      27.231  -4.585  11.672  1.00  0.00    -0.158 N
ATOM      3  H2  UNL     1      28.145  -4.330  12.047  1.00  0.00     0.187 HD
HETATM    4  C9  UNL     1      26.283  -3.577  11.463  1.00  0.00     0.251 A
HETATM    5  C12 UNL     1      25.061  -3.992  10.956  1.00  0.00     0.117 A
HETATM    6  C13 UNL     1      24.041  -3.078  10.729  1.00  0.00     0.134 A
HETATM    7  N10 UNL     1      22.862  -3.533  10.250  1.00  0.00    -0.176 N
ATOM      8  H10 UNL     1      22.109  -2.866  10.081  1.00  0.00     0.186 HD
HETATM    9  C14 UNL     1      22.648  -4.827   9.989  1.00  0.00     0.679 A
HETATM   10  N12 UNL     1      23.618  -5.750  10.197  1.00  0.00    -0.173 N
ATOM     11  H12 UNL     1      23.458  -6.738   9.999  1.00  0.00     0.186 HD
HETATM   12  C15 UNL     1      24.798  -5.318  10.672  1.00  0.00     0.185 A
HETATM   13  N13 UNL     1      25.803  -6.233  10.913  1.00  0.00    -0.034 N
ENDROOT
BRANCH   4  14
HETATM   14  N3  UNL     1      26.593  -2.466  11.735  1.00  0.00    -0.225 NA
BRANCH  14  15
HETATM   15  N4  UNL     1      26.908  -1.273  11.965  1.00  0.00    -0.206 NA
HETATM   16  C10 UNL     1      27.249   0.025  12.215  1.00  0.00     0.348 C
HETATM   17  O2  UNL     1      26.466   0.907  12.694  1.00  0.00    -0.252 OA
BRANCH  16  18
HETATM   18  C11 UNL     1      28.624   0.603  11.957  1.00  0.00     0.291 C
BRANCH  18  19
HETATM   19  N5  UNL     1      28.451   1.691  10.999  1.00  0.00    -0.191 N
HETATM   20  N6  UNL     1      28.571   1.830   9.691  1.00  0.00     0.015 NA
HETATM   21  N7  UNL     1      28.189   3.101   9.840  1.00  0.00    -0.209 N
HETATM   22  N8  UNL     1      28.068   2.968  11.147  1.00  0.00    -0.214 N
ATOM     23  H7  UNL     1      28.047   3.876   9.193  1.00  0.00     0.207 HD
ATOM     24  H8  UNL     1      27.800   3.570  11.926  1.00  0.00     0.211 HD
ENDBRANCH  18  19
ENDBRANCH  16  18
ENDBRANCH  14  15
ENDBRANCH   4  14
BRANCH   1  25
HETATM   25  N1  UNL     1      28.044  -6.838  11.639  1.00  0.00    -0.215 N
HETATM   26  C7  UNL     1      28.093  -7.511  12.892  1.00  0.00     0.141 C
HETATM   27  C6  UNL     1      29.409  -8.073  13.321  1.00  0.00     0.020 C
HETATM   28  C5  UNL     1      30.485  -8.155  12.311  1.00  0.00     0.002 C
HETATM   29  C4  UNL     1      30.000  -9.066  11.197  1.00  0.00     0.008 C
HETATM   30  C3  UNL     1      29.404  -8.245  10.080  1.00  0.00     0.028 C
HETATM   31  C16 UNL     1      28.900  -6.921  10.471  1.00  0.00     0.148 C
BRANCH  30  32
HETATM   32  C2  UNL     1      28.512  -9.102   9.248  1.00  0.00     0.173 C
BRANCH  32  33
HETATM   33  O1  UNL     1      27.655  -9.782  10.152  1.00  0.00    -0.396 OA
HETATM   34  C1  UNL     1      27.525 -11.108   9.762  1.00  0.00     0.201 C
ENDBRANCH  32  33
ENDBRANCH  30  32
ENDBRANCH   1  25
BRANCH   6  35
HETATM   35  N9  UNL     1      24.228  -1.850  10.970  1.00  0.00    -0.384 N
ATOM     36  H92 UNL     1      23.466  -1.246  11.277  1.00  0.00     0.157 HD
ATOM     37  H91 UNL     1      25.156  -1.445  10.855  1.00  0.00     0.157 HD
ENDBRANCH   6  35
BRANCH  13  38
HETATM   38  O3  UNL     1      25.480  -7.514  10.577  1.00  0.00    -0.268 OA
ATOM     39  H3  UNL     1      25.152  -7.767   9.722  1.00  0.00     0.246 HD
ENDBRANCH  13  38
BRANCH   9  40
HETATM   40  N11 UNL     1      21.519  -5.233   9.542  1.00  0.00    -0.234 N
ATOM     41 2H11 UNL     1      20.674  -4.904  10.010  1.00  0.00     0.174 HD
ATOM     42 1H11 UNL     1      21.466  -5.860   8.739  1.00  0.00     0.174 HD
ENDBRANCH   9  40
TORSDOF 10
ENDMDL