MODEL 3
REMARK VINA RESULT: -6.258489032      1.246      1.480
REMARK  14 active torsions:
REMARK  status: ('A' for Active; 'I' for Inactive)
REMARK    1  A    between atoms: C3_4  and  O2_5
REMARK    2  A    between atoms: O2_5  and  C4_6
REMARK    3  A    between atoms: C6_8  and  O3_9
REMARK    4  A    between atoms: O3_9  and  C7_10
REMARK    5  A    between atoms: C8_12  and  C9_13
REMARK    6  A    between atoms: C9_13  and  N1_14
REMARK    7  A    between atoms: C10_18  and  O5_19
REMARK    8  A    between atoms: C11_22  and  O7_23
REMARK    9  A    between atoms: C12_25  and  N2_26
REMARK   10  A    between atoms: C14_31  and  N3_32
REMARK   11  A    between atoms: N3_32  and  N4_34
REMARK   12  A    between atoms: N4_34  and  N5_35
REMARK   13  A    between atoms: C15_38  and  N6_39
REMARK   14  A    between atoms: C17_44  and  N7_45
ROOT
HETATM    1  C4  UNL     1      28.181  -7.078  11.170  1.00  0.00     0.152 C
HETATM    2  C5  UNL     1      28.152  -8.438  10.582  1.00  0.00     0.068 C
HETATM    3  C6  UNL     1      28.608  -9.539  11.550  1.00  0.00     0.157 C
HETATM    4  C12 UNL     1      29.931  -9.221  12.162  1.00  0.00     0.214 C
HETATM    5  C13 UNL     1      30.219  -7.759  12.314  1.00  0.00     0.065 C
HETATM    6  C14 UNL     1      28.987  -6.907  12.408  1.00  0.00     0.145 C
ENDROOT
BRANCH   1   7
HETATM    7  O2  UNL     1      26.870  -6.639  11.473  1.00  0.00    -0.352 OA
BRANCH   7   8
HETATM    8  C3  UNL     1      26.469  -5.588  10.661  1.00  0.00     0.291 C
HETATM    9  O1  UNL     1      25.235  -5.946  10.125  1.00  0.00    -0.352 OA
HETATM   10  C2  UNL     1      24.169  -5.292  10.697  1.00  0.00     0.151 C
HETATM   11  C1  UNL     1      22.904  -5.920  10.101  1.00  0.00     0.042 C
HETATM   12  C17 UNL     1      24.211  -3.839  10.230  1.00  0.00     0.214 C
HETATM   13  C16 UNL     1      25.588  -3.317  10.473  1.00  0.00     0.073 C
HETATM   14  C15 UNL     1      26.345  -4.282  11.373  1.00  0.00     0.240 C
BRANCH  12  15
HETATM   15  N7  UNL     1      23.194  -3.062  10.898  1.00  0.00    -0.072 N
ATOM     16  H73 UNL     1      22.256  -3.321  10.592  1.00  0.00     0.274 HD
ATOM     17  H72 UNL     1      23.109  -3.316  11.883  1.00  0.00     0.274 HD
ATOM     18  H71 UNL     1      23.369  -2.064  10.778  1.00  0.00     0.274 HD
ENDBRANCH  12  15
BRANCH  14  19
HETATM   19  N6  UNL     1      27.630  -3.658  11.641  1.00  0.00    -0.070 N
ATOM     20  H63 UNL     1      27.902  -3.789  12.615  1.00  0.00     0.274 HD
ATOM     21  H62 UNL     1      28.385  -4.170  11.185  1.00  0.00     0.274 HD
ATOM     22  H61 UNL     1      27.654  -2.671  11.386  1.00  0.00     0.274 HD
ENDBRANCH  14  19
ENDBRANCH   7   8
ENDBRANCH   1   7
BRANCH   6  23
HETATM   23  N3  UNL     1      28.226  -7.166  13.613  1.00  0.00    -0.245 N
ATOM     24  H3  UNL     1      27.246  -7.446  13.558  1.00  0.00     0.197 HD
BRANCH  23  25
HETATM   25  N4  UNL     1      28.781  -7.043  14.708  1.00  0.00    -0.248 NA
BRANCH  25  26
HETATM   26  N5  UNL     1      29.204  -7.169  15.877  1.00  0.00    -0.261 N
ATOM     27  H52 UNL     1      29.839  -7.920  15.604  1.00  0.00     0.193 HD
ATOM     28  H51 UNL     1      29.395  -7.095  16.876  1.00  0.00     0.193 HD
ENDBRANCH  25  26
ENDBRANCH  23  25
ENDBRANCH   6  23
BRANCH   3  29
HETATM   29  O3  UNL     1      28.722 -10.665  10.812  1.00  0.00    -0.349 OA
BRANCH  29  30
HETATM   30  C7  UNL     1      29.184 -10.584   9.533  1.00  0.00     0.315 C
HETATM   31  O4  UNL     1      30.537 -10.759   9.388  1.00  0.00    -0.344 OA
HETATM   32  C8  UNL     1      30.936 -12.086   9.219  1.00  0.00     0.205 C
HETATM   33  C10 UNL     1      30.200 -12.718   8.067  1.00  0.00     0.290 C
HETATM   34  O6  UNL     1      29.223 -11.883   7.559  1.00  0.00    -0.324 OA
HETATM   35  C11 UNL     1      28.434 -11.275   8.486  1.00  0.00     0.315 C
BRANCH  32  36
HETATM   36  C9  UNL     1      30.819 -12.833  10.499  1.00  0.00     0.266 C
BRANCH  36  37
HETATM   37  N1  UNL     1      29.776 -13.839  10.491  1.00  0.00    -0.077 N
ATOM     38  H13 UNL     1      29.134 -13.697  11.271  1.00  0.00     0.274 HD
ATOM     39  H12 UNL     1      29.135 -13.687   9.713  1.00  0.00     0.274 HD
ATOM     40  H11 UNL     1      30.131 -14.795  10.486  1.00  0.00     0.274 HD
ENDBRANCH  36  37
ENDBRANCH  32  36
BRANCH  33  41
HETATM   41  O5  UNL     1      31.042 -13.111   7.040  1.00  0.00    -0.368 OA
ATOM     42  H5  UNL     1      30.645 -13.750   6.461  1.00  0.00     0.212 HD
ENDBRANCH  33  41
BRANCH  35  43
HETATM   43  O7  UNL     1      27.579 -12.286   8.965  1.00  0.00    -0.367 OA
ATOM     44  H7  UNL     1      28.032 -13.014   9.374  1.00  0.00     0.212 HD
ENDBRANCH  35  43
ENDBRANCH  29  30
ENDBRANCH   3  29
BRANCH   4  45
HETATM   45  N2  UNL     1      29.952  -9.782  13.510  1.00  0.00    -0.072 N
ATOM     46  H23 UNL     1      29.062 -10.204  13.775  1.00  0.00     0.274 HD
ATOM     47  H22 UNL     1      30.526 -10.622  13.579  1.00  0.00     0.274 HD
ATOM     48  H21 UNL     1      30.248  -9.048  14.153  1.00  0.00     0.274 HD
ENDBRANCH   4  45
TORSDOF 14
ENDMDL