MODEL 3
REMARK VINA RESULT: -7.152352898      1.260      1.472
REMARK  8 active torsions:
REMARK  status: ('A' for Active; 'I' for Inactive)
REMARK    1  A    between atoms: N1_1  and  C1_4
REMARK    2  A    between atoms: C2_7  and  N3_8
REMARK    3  A    between atoms: N3_8  and  C3_10
REMARK    4  A    between atoms: C6_13  and  C7_14
REMARK    5  A    between atoms: C10_22  and  N6_23
REMARK    6  A    between atoms: C13_32  and  C14_33
REMARK    7  A    between atoms: C14_33  and  N8_34
REMARK    8  A    between atoms: C14_33  and  C15_38
ROOT
HETATM    1  C3  UNL     1      29.743 -11.332  10.016  1.00  0.00     0.102 A
HETATM    2  C4  UNL     1      29.929 -10.592  11.167  1.00  0.00     0.038 A
HETATM    3  C5  UNL     1      29.445  -9.300  11.263  1.00  0.00     0.034 A
HETATM    4  C6  UNL     1      28.775  -8.771  10.189  1.00  0.00     0.060 A
HETATM    5  N7  UNL     1      28.585  -9.474   9.072  1.00  0.00    -0.320 N
ATOM      6  H7  UNL     1      28.081  -9.050   8.293  1.00  0.00     0.169 HD
HETATM    7  C12 UNL     1      29.042 -10.719   8.954  1.00  0.00     0.272 A
HETATM    8  O5  UNL     1      28.856 -11.388   7.874  1.00  0.00    -0.266 OA
ENDROOT
BRANCH   1   9
HETATM    9  N3  UNL     1      30.106 -12.676   9.827  1.00  0.00    -0.337 N
ATOM     10  H3  UNL     1      29.380 -13.283   9.448  1.00  0.00     0.167 HD
BRANCH   9  11
HETATM   11  C2  UNL     1      31.345 -13.293  10.095  1.00  0.00     0.136 A
HETATM   12  N2  UNL     1      31.701 -13.746  11.295  1.00  0.00    -0.176 N
HETATM   13  C1  UNL     1      32.935 -14.249  11.601  1.00  0.00     0.680 A
ATOM     14  H2  UNL     1      31.004 -13.716  12.039  1.00  0.00     0.186 HD
HETATM   15  N10 UNL     1      33.873 -14.299  10.650  1.00  0.00    -0.156 N
HETATM   16  C16 UNL     1      33.567 -13.850   9.412  1.00  0.00     0.272 A
ATOM     17  H10 UNL     1      34.801 -14.669  10.854  1.00  0.00     0.187 HD
HETATM   18  C13 UNL     1      32.319 -13.344   9.101  1.00  0.00     0.094 A
HETATM   19  O7  UNL     1      34.479 -13.907   8.515  1.00  0.00    -0.267 OA
BRANCH  13  20
HETATM   20  N1  UNL     1      33.190 -14.665  12.784  1.00  0.00    -0.234 N
ATOM     21  H12 UNL     1      32.863 -14.143  13.597  1.00  0.00     0.174 HD
ATOM     22  H11 UNL     1      33.721 -15.524  12.926  1.00  0.00     0.174 HD
ENDBRANCH  13  20
BRANCH  18  23
HETATM   23  C14 UNL     1      32.021 -12.902   7.721  1.00  0.00     0.314 C
BRANCH  23  24
HETATM   24  N8  UNL     1      33.247 -12.409   7.127  1.00  0.00    -0.062 N
ATOM     25  H83 UNL     1      33.581 -13.002   6.366  1.00  0.00     0.275 HD
ATOM     26  H82 UNL     1      33.106 -11.556   6.586  1.00  0.00     0.275 HD
ATOM     27  H81 UNL     1      33.938 -12.295   7.868  1.00  0.00     0.275 HD
ENDBRANCH  23  24
BRANCH  23  28
HETATM   28  C15 UNL     1      31.557 -14.083   6.890  1.00  0.00     0.266 C
HETATM   29  N9  UNL     1      30.171 -14.336   6.737  1.00  0.00    -0.060 NA
HETATM   30  O6  UNL     1      32.374 -14.850   6.328  1.00  0.00    -0.274 OA
ENDBRANCH  23  28
ENDBRANCH  18  23
ENDBRANCH   9  11
ENDBRANCH   1   9
BRANCH   4  31
HETATM   31  C7  UNL     1      28.252  -7.410  10.259  1.00  0.00     0.066 C
HETATM   32  N4  UNL     1      28.897  -6.340  10.006  1.00  0.00    -0.263 N
HETATM   33  O1  UNL     1      28.108  -5.210  10.168  1.00  0.00    -0.218 OA
ATOM     34  H4  UNL     1      29.876  -6.317   9.719  1.00  0.00     0.194 HD
HETATM   35  C8  UNL     1      27.010  -5.574  10.983  1.00  0.00     0.278 C
HETATM   36  C9  UNL     1      26.871  -7.036  10.635  1.00  0.00     0.157 C
HETATM   37  N5  UNL     1      25.792  -4.898  10.654  1.00  0.00    -0.316 N
HETATM   38  O4  UNL     1      27.239  -5.355  12.338  1.00  0.00    -0.329 OA
HETATM   39  C10 UNL     1      25.534  -4.023  11.565  1.00  0.00     0.174 C
ATOM     40  H5  UNL     1      25.219  -5.080   9.830  1.00  0.00     0.166 HD
HETATM   41  C11 UNL     1      26.638  -4.117  12.550  1.00  0.00     0.256 C
BRANCH  39  42
HETATM   42  N6  UNL     1      24.401  -3.142  11.599  1.00  0.00    -0.100 N
HETATM   43  O2  UNL     1      23.292  -3.621  11.309  1.00  0.00    -0.531 OA
HETATM   44  O3  UNL     1      24.495  -1.825  11.935  1.00  0.00    -0.531 OA
ENDBRANCH  39  42
ENDBRANCH   4  31
TORSDOF 8
ENDMDL