MODEL 3
REMARK VINA RESULT: -7.210702491      1.757      2.755
REMARK  10 active torsions:
REMARK  status: ('A' for Active; 'I' for Inactive)
REMARK       I    between atoms: N1_1  and  C1_4
REMARK       I    between atoms: C1_4  and  N2_5
REMARK       I    between atoms: C1_4  and  N7_16
REMARK    1  A    between atoms: N2_5  and  C2_7
REMARK    2  A    between atoms: N7_16  and  C3_18
REMARK    3  A    between atoms: C6_23  and  C7_24
REMARK    4  A    between atoms: C7_24  and  N9_25
REMARK    5  A    between atoms: C9_29  and  C10_30
REMARK    6  A    between atoms: N12_34  and  C12_36
REMARK    7  A    between atoms: C12_36  and  C13_37
REMARK    8  A    between atoms: C13_37  and  O1_38
REMARK    9  A    between atoms: C13_37  and  C14_40
REMARK   10  A    between atoms: C14_40  and  O2_41
ROOT
HETATM    1  C3  UNL     1      25.191  -2.635  12.218  1.00  0.00     0.065 A
HETATM    2  C4  UNL     1      26.119  -1.730  11.713  1.00  0.00     0.117 A
HETATM    3  N8  UNL     1      27.390  -1.745  12.142  1.00  0.00    -0.372 N
ATOM      4  H8  UNL     1      28.068  -1.081  11.770  1.00  0.00     0.164 HD
HETATM    5  C5  UNL     1      27.756  -2.649  13.069  1.00  0.00     0.096 A
HETATM    6  C6  UNL     1      26.871  -3.562  13.594  1.00  0.00    -0.021 A
HETATM    7  C15 UNL     1      25.567  -3.557  13.164  1.00  0.00     0.041 A
ENDROOT
BRANCH   6   8
HETATM    8  C7  UNL     1      27.317  -4.542  14.614  1.00  0.00     0.189 C
BRANCH   8   9
HETATM    9  N9  UNL     1      27.621  -5.832  14.020  1.00  0.00    -0.282 N
HETATM   10  C8  UNL     1      27.977  -6.985  14.580  1.00  0.00     0.202 A
HETATM   11  N10 UNL     1      28.149  -7.899  13.601  1.00  0.00    -0.333 N
HETATM   12  C9  UNL     1      27.897  -7.311  12.427  1.00  0.00     0.168 A
ATOM     13  H10 UNL     1      28.424  -8.873  13.735  1.00  0.00     0.168 HD
HETATM   14  N14 UNL     1      27.576  -6.044  12.712  1.00  0.00    -0.279 N
ATOM     15  H14 UNL     1      27.329  -5.338  12.018  1.00  0.00     0.189 HD
BRANCH  12  16
HETATM   16  C10 UNL     1      27.954  -7.904  11.100  1.00  0.00     0.175 A
HETATM   17  N11 UNL     1      28.568  -9.039  10.727  1.00  0.00    -0.302 N
HETATM   18  C11 UNL     1      28.383  -9.236   9.413  1.00  0.00     0.244 A
ATOM     19  H11 UNL     1      29.094  -9.656  11.347  1.00  0.00     0.171 HD
HETATM   20  N12 UNL     1      28.796 -10.189   8.656  1.00  0.00    -0.352 N
HETATM   21  O3  UNL     1      27.661  -8.229   8.990  1.00  0.00    -0.199 OA
ATOM     22  H12 UNL     1      28.566 -10.193   7.663  1.00  0.00     0.163 HD
HETATM   23  N13 UNL     1      27.395  -7.424   9.979  1.00  0.00    -0.238 N
ATOM     24  H13 UNL     1      26.848  -6.566   9.912  1.00  0.00     0.197 HD
BRANCH  20  25
HETATM   25  C12 UNL     1      29.580 -11.244   9.218  1.00  0.00     0.157 C
BRANCH  25  26
HETATM   26  C13 UNL     1      29.593 -12.487   8.355  1.00  0.00     0.159 C
BRANCH  26  27
HETATM   27  O1  UNL     1      30.624 -12.474   7.423  1.00  0.00    -0.392 OA
ATOM     28  H1  UNL     1      30.309 -12.345   6.536  1.00  0.00     0.210 HD
ENDBRANCH  26  27
BRANCH  26  29
HETATM   29  C14 UNL     1      28.267 -12.599   7.591  1.00  0.00     0.197 C
BRANCH  29  30
HETATM   30  O2  UNL     1      28.395 -11.990   6.350  1.00  0.00    -0.398 OA
ATOM     31  H2  UNL     1      27.541 -11.704   6.048  1.00  0.00     0.209 HD
ENDBRANCH  29  30
ENDBRANCH  26  29
ENDBRANCH  25  26
ENDBRANCH  20  25
ENDBRANCH  12  16
ENDBRANCH   8   9
ENDBRANCH   6   8
BRANCH   1  32
HETATM   32  N7  UNL     1      23.864  -2.561  11.717  1.00  0.00    -0.190 N
HETATM   33  C1  UNL     1      23.410  -3.386  10.664  1.00  0.00     0.691 C
HETATM   34  N1  UNL     1      23.615  -3.023   9.441  1.00  0.00    -0.234 N
HETATM   35  N2  UNL     1      22.727  -4.616  10.948  1.00  0.00    -0.020 N
ATOM     36  H12 UNL     1      23.288  -3.619   8.680  1.00  0.00     0.174 HD
ATOM     37  H11 UNL     1      24.100  -2.149   9.239  1.00  0.00     0.174 HD
ATOM     38  H2  UNL     1      22.081  -4.667  11.736  1.00  0.00     0.203 HD
ATOM     39  H7  UNL     1      23.217  -1.890  12.132  1.00  0.00     0.184 HD
BRANCH  35  40
HETATM   40  C2  UNL     1      22.925  -5.660  10.213  1.00  0.00     0.728 A
HETATM   41  N3  UNL     1      24.002  -6.479  10.186  1.00  0.00    -0.115 N
HETATM   42  N4  UNL     1      23.742  -7.405   9.273  1.00  0.00    -0.213 N
ATOM     43  H3  UNL     1      24.845  -6.400  10.755  1.00  0.00     0.207 HD
HETATM   44  N5  UNL     1      22.561  -7.176   8.756  1.00  0.00    -0.213 N
ATOM     45  H4  UNL     1      24.361  -8.173   9.016  1.00  0.00     0.210 HD
HETATM   46  N6  UNL     1      22.035  -6.111   9.313  1.00  0.00    -0.115 N
ATOM     47  H5  UNL     1      22.117  -7.739   8.030  1.00  0.00     0.210 HD
ATOM     48  H6  UNL     1      21.124  -5.702   9.104  1.00  0.00     0.207 HD
ENDBRANCH  35  40
ENDBRANCH   1  32
TORSDOF 10
ENDMDL