MODEL 5
REMARK VINA RESULT: -7.162780381      6.049      7.429
REMARK  9 active torsions:
REMARK  status: ('A' for Active; 'I' for Inactive)
REMARK    1  A    between atoms: N2_5  and  C3_6
REMARK    2  A    between atoms: C3_6  and  C4_7
REMARK    3  A    between atoms: C7_10  and  N3_11
REMARK    4  A    between atoms: C9_13  and  C10_14
REMARK    5  A    between atoms: C10_14  and  O1_15
REMARK    6  A    between atoms: O1_15  and  C11_16
REMARK    7  A    between atoms: C12_17  and  N4_18
REMARK    8  A    between atoms: N4_18  and  N5_20
REMARK    9  A    between atoms: C13_25  and  N7_26
ROOT
HETATM    1  N3  UNL     1      29.548  -8.364  12.780  1.00  0.00    -0.251 N
HETATM    2  C8  UNL     1      30.319  -9.081  11.944  1.00  0.00     0.146 A
HETATM    3  C9  UNL     1      30.963 -10.099  12.651  1.00  0.00     0.069 A
HETATM    4  N10 UNL     1      30.536  -9.940  13.918  1.00  0.00    -0.286 N
ATOM      5  H10 UNL     1      30.811 -10.521  14.711  1.00  0.00     0.188 HD
HETATM    6  N11 UNL     1      29.694  -8.902  13.976  1.00  0.00    -0.236 N
ATOM      7  H11 UNL     1      29.232  -8.573  14.823  1.00  0.00     0.209 HD
ENDROOT
BRANCH   3   8
HETATM    8  C10 UNL     1      31.893 -11.102  12.105  1.00  0.00     0.236 C
BRANCH   8   9
HETATM    9  O1  UNL     1      31.360 -12.313  11.695  1.00  0.00    -0.338 OA
BRANCH   9  10
HETATM   10  C11 UNL     1      31.337 -12.720  10.376  1.00  0.00     0.159 A
HETATM   11  C12 UNL     1      32.414 -13.455   9.851  1.00  0.00     0.172 A
HETATM   12  N6  UNL     1      32.400 -13.855   8.571  1.00  0.00    -0.173 N
HETATM   13  C13 UNL     1      31.387 -13.589   7.733  1.00  0.00     0.679 A
ATOM     14  H6  UNL     1      33.196 -14.387   8.218  1.00  0.00     0.186 HD
HETATM   15  N8  UNL     1      30.357 -12.893   8.216  1.00  0.00    -0.174 N
HETATM   16  C14 UNL     1      30.306 -12.454   9.515  1.00  0.00     0.152 A
ATOM     17  H8  UNL     1      29.576 -12.678   7.595  1.00  0.00     0.186 HD
HETATM   18  N9  UNL     1      29.254 -11.843   9.901  1.00  0.00    -0.383 N
ATOM     19  H92 UNL     1      29.216 -11.517  10.867  1.00  0.00     0.157 HD
ATOM     20  H91 UNL     1      28.485 -11.644   9.260  1.00  0.00     0.157 HD
BRANCH  11  21
HETATM   21  N4  UNL     1      33.475 -13.733  10.738  1.00  0.00    -0.289 N
ATOM     22  H4  UNL     1      34.414 -13.392  10.533  1.00  0.00     0.188 HD
BRANCH  21  23
HETATM   23  N5  UNL     1      33.237 -14.474  11.898  1.00  0.00    -0.344 N
ATOM     24  H52 UNL     1      33.100 -13.981  12.781  1.00  0.00     0.176 HD
ATOM     25  H51 UNL     1      33.202 -15.492  11.854  1.00  0.00     0.176 HD
ENDBRANCH  21  23
ENDBRANCH  11  21
BRANCH  13  26
HETATM   26  N7  UNL     1      31.386 -13.979   6.502  1.00  0.00    -0.234 N
ATOM     27  H72 UNL     1      32.256 -14.001   5.971  1.00  0.00     0.174 HD
ATOM     28  H71 UNL     1      30.535 -14.274   6.023  1.00  0.00     0.174 HD
ENDBRANCH  13  26
ENDBRANCH   9  10
ENDBRANCH   8   9
ENDBRANCH   3   8
BRANCH   1  29
HETATM   29  C7  UNL     1      28.740  -7.240  12.407  1.00  0.00     0.057 A
HETATM   30  C6  UNL     1      27.975  -6.562  13.314  1.00  0.00     0.032 A
HETATM   31  C5  UNL     1      27.185  -5.463  12.950  1.00  0.00     0.011 A
HETATM   32  C4  UNL     1      27.175  -5.052  11.646  1.00  0.00    -0.038 A
HETATM   33  C16 UNL     1      27.959  -5.747  10.714  1.00  0.00     0.011 A
HETATM   34  C15 UNL     1      28.730  -6.824  11.086  1.00  0.00     0.032 A
BRANCH  32  35
HETATM   35  C3  UNL     1      26.358  -3.890  11.221  1.00  0.00     0.192 C
BRANCH  35  36
HETATM   36  N2  UNL     1      25.005  -4.262  10.828  1.00  0.00    -0.238 N
HETATM   37  N1  UNL     1      24.743  -5.545  10.513  1.00  0.00    -0.293 N
HETATM   38  C2  UNL     1      23.513  -5.930  10.138  1.00  0.00     0.090 A
ATOM     39  H1  UNL     1      25.492  -6.235  10.559  1.00  0.00     0.187 HD
HETATM   40  C1  UNL     1      23.183  -7.342   9.781  1.00  0.00     0.076 C
HETATM   41  C18 UNL     1      22.543  -4.948  10.095  1.00  0.00     0.273 A
HETATM   42  N12 UNL     1      22.806  -3.666  10.410  1.00  0.00    -0.273 N
HETATM   43  O3  UNL     1      21.386  -5.292   9.746  1.00  0.00    -0.266 OA
HETATM   44  C17 UNL     1      24.071  -3.315  10.787  1.00  0.00     0.344 A
ATOM     45  H12 UNL     1      22.068  -2.964  10.367  1.00  0.00     0.173 HD
HETATM   46  O2  UNL     1      24.314  -2.120  11.081  1.00  0.00    -0.245 OA
ENDBRANCH  35  36
ENDBRANCH  32  35
ENDBRANCH   1  29
TORSDOF 9
ENDMDL