MODEL 3
REMARK VINA RESULT: -5.923291743      2.622      3.383
REMARK  11 active torsions:
REMARK  status: ('A' for Active; 'I' for Inactive)
REMARK    1  A    between atoms: C5_5  and  N1_6
REMARK    2  A    between atoms: C6_10  and  O1_11
REMARK    3  A    between atoms: O1_11  and  C7_12
REMARK    4  A    between atoms: C9_14  and  O2_15
REMARK    5  A    between atoms: O2_15  and  C10_16
REMARK    6  A    between atoms: C11_18  and  N2_19
REMARK    7  A    between atoms: C12_24  and  S1_25
REMARK    8  A    between atoms: S1_25  and  C13_26
REMARK    9  A    between atoms: C15_29  and  O5_30
REMARK   10  A    between atoms: C16_32  and  N4_33
REMARK   11  A    between atoms: C18_38  and  N5_39
ROOT
HETATM    1  C13 UNL     1      29.016 -12.037   8.043  1.00  0.00     0.200 C
HETATM    2  C14 UNL     1      27.944 -12.048   9.006  1.00  0.00     0.069 C
HETATM    3  N3  UNL     1      27.081 -12.037   9.788  1.00  0.00    -0.197 NA
ENDROOT
BRANCH   1   4
HETATM    4  S1  UNL     1      30.626 -12.477   8.803  1.00  0.00    -0.120 SA
BRANCH   4   5
HETATM    5  C12 UNL     1      31.517 -10.901   9.038  1.00  0.00     0.222 C
HETATM    6  O4  UNL     1      32.545 -11.114   9.946  1.00  0.00    -0.320 OA
HETATM    7  C11 UNL     1      32.082 -11.543  11.182  1.00  0.00     0.470 C
HETATM    8  O3  UNL     1      30.685 -11.472  11.263  1.00  0.00    -0.306 OA
HETATM    9  C10 UNL     1      30.329 -10.160  11.035  1.00  0.00     0.297 C
HETATM   10  C15 UNL     1      30.587  -9.835   9.582  1.00  0.00     0.212 C
BRANCH   7  11
HETATM   11  N2  UNL     1      32.542 -12.865  11.510  1.00  0.00    -0.029 N
ATOM     12  H23 UNL     1      31.813 -13.419  11.958  1.00  0.00     0.280 HD
ATOM     13  H22 UNL     1      32.678 -13.436  10.676  1.00  0.00     0.280 HD
ATOM     14  H21 UNL     1      33.386 -12.820  12.081  1.00  0.00     0.280 HD
ENDBRANCH   7  11
BRANCH   9  15
HETATM   15  O2  UNL     1      29.069  -9.838  11.460  1.00  0.00    -0.351 OA
BRANCH  15  16
HETATM   16  C9  UNL     1      28.757  -8.471  11.275  1.00  0.00     0.157 C
HETATM   17  C8  UNL     1      27.364  -8.452  10.686  1.00  0.00     0.068 C
HETATM   18  C7  UNL     1      26.761  -7.100  10.582  1.00  0.00     0.157 C
HETATM   19  C18 UNL     1      27.395  -6.104  11.567  1.00  0.00     0.214 C
HETATM   20  C17 UNL     1      27.701  -6.863  12.827  1.00  0.00     0.070 C
HETATM   21  C16 UNL     1      28.828  -7.844  12.643  1.00  0.00     0.214 C
BRANCH  18  22
HETATM   22  O1  UNL     1      25.435  -7.153  10.915  1.00  0.00    -0.350 OA
BRANCH  22  23
HETATM   23  C6  UNL     1      24.632  -6.175  10.411  1.00  0.00     0.352 C
HETATM   24  C5  UNL     1      23.280  -6.788  10.123  1.00  0.00     0.239 C
HETATM   25  C4  UNL     1      22.464  -5.725   9.413  1.00  0.00     0.039 C
HETATM   26  C3  UNL     1      22.319  -4.570  10.356  1.00  0.00     0.035 C
HETATM   27  C2  UNL     1      23.634  -4.028  10.851  1.00  0.00     0.185 C
HETATM   28  C1  UNL     1      24.207  -3.121   9.789  1.00  0.00     0.040 C
HETATM   29  N6  UNL     1      24.548  -5.036  11.285  1.00  0.00    -0.043 N
ATOM     30  H62 UNL     1      25.474  -4.636  11.437  1.00  0.00     0.280 HD
ATOM     31  H61 UNL     1      24.328  -5.332  12.236  1.00  0.00     0.280 HD
BRANCH  24  32
HETATM   32  N1  UNL     1      23.442  -7.965   9.326  1.00  0.00    -0.071 N
ATOM     33  H13 UNL     1      23.397  -8.807   9.898  1.00  0.00     0.274 HD
ATOM     34  H12 UNL     1      22.626  -8.126   8.736  1.00  0.00     0.274 HD
ATOM     35  H11 UNL     1      24.299  -7.939   8.772  1.00  0.00     0.274 HD
ENDBRANCH  24  32
ENDBRANCH  22  23
ENDBRANCH  18  22
BRANCH  19  36
HETATM   36  N5  UNL     1      28.517  -5.430  10.994  1.00  0.00    -0.072 N
ATOM     37  H53 UNL     1      29.009  -6.026  10.329  1.00  0.00     0.274 HD
ATOM     38  H52 UNL     1      28.219  -4.691  10.356  1.00  0.00     0.274 HD
ATOM     39  H51 UNL     1      29.150  -5.070  11.708  1.00  0.00     0.274 HD
ENDBRANCH  19  36
BRANCH  21  40
HETATM   40  N4  UNL     1      28.718  -8.844  13.689  1.00  0.00    -0.072 N
ATOM     41  H43 UNL     1      28.183  -9.655  13.376  1.00  0.00     0.274 HD
ATOM     42  H42 UNL     1      29.612  -9.303  13.863  1.00  0.00     0.274 HD
ATOM     43  H41 UNL     1      28.329  -8.446  14.543  1.00  0.00     0.274 HD
ENDBRANCH  21  40
ENDBRANCH  15  16
ENDBRANCH   9  15
BRANCH  10  44
HETATM   44  O5  UNL     1      31.137  -8.578   9.413  1.00  0.00    -0.387 OA
ATOM     45  H5  UNL     1      30.560  -7.990   8.940  1.00  0.00     0.210 HD
ENDBRANCH  10  44
ENDBRANCH   4   5
ENDBRANCH   1   4
TORSDOF 11
ENDMDL