MODEL 1
REMARK VINA RESULT: -8.158234812      0.000      0.000
REMARK  9 active torsions:
REMARK  status: ('A' for Active; 'I' for Inactive)
REMARK    1  A    between atoms: O1_2  and  C2_3
REMARK    2  A    between atoms: C2_3  and  C3_5
REMARK    3  A    between atoms: C6_8  and  C7_9
REMARK    4  A    between atoms: C7_9  and  N1_10
REMARK    5  A    between atoms: C13_25  and  N7_26
REMARK    6  A    between atoms: N7_26  and  C14_28
REMARK    7  A    between atoms: C14_28  and  N8_29
REMARK    8  A    between atoms: C14_28  and  C15_33
REMARK    9  A    between atoms: C15_33  and  N9_34
REMARK       I    between atoms: N9_34  and  C16_37
REMARK       I    between atoms: C16_37  and  N10_38
REMARK       I    between atoms: C16_37  and  N11_42
ROOT
HETATM    1  N1  UNL     1      27.667  -7.608  11.599  1.00  0.00    -0.350 N
ATOM      2  H1  UNL     1      27.087  -8.233  12.159  1.00  0.00     0.166 HD
HETATM    3  C8  UNL     1      28.643  -8.184  11.041  1.00  0.00     0.136 A
HETATM    4  N2  UNL     1      28.810  -9.543  11.242  1.00  0.00    -0.328 N
ATOM      5  H2  UNL     1      28.145 -10.044  11.832  1.00  0.00     0.168 HD
HETATM    6  C9  UNL     1      29.818 -10.213  10.684  1.00  0.00     0.141 A
HETATM    7  N3  UNL     1      29.986 -11.609  10.894  1.00  0.00    -0.081 NA
HETATM    8  C10 UNL     1      30.736  -9.561   9.879  1.00  0.00     0.116 A
HETATM    9  C11 UNL     1      31.833 -10.286   9.272  1.00  0.00     0.105 C
HETATM   10  N4  UNL     1      32.717 -10.869   8.798  1.00  0.00    -0.191 NA
HETATM   11  C12 UNL     1      30.598  -8.212   9.659  1.00  0.00     0.103 A
HETATM   12  N5  UNL     1      31.446  -7.508   8.892  1.00  0.00    -0.283 N
ATOM     13  H5  UNL     1      32.229  -7.987   8.448  1.00  0.00     0.187 HD
HETATM   14  N6  UNL     1      31.289  -6.210   8.697  1.00  0.00    -0.132 N
ATOM     15  H6  UNL     1      31.960  -5.719   8.106  1.00  0.00     0.205 HD
HETATM   16  C13 UNL     1      30.280  -5.513   9.249  1.00  0.00     0.695 A
HETATM   17  N12 UNL     1      29.417  -6.185  10.021  1.00  0.00    -0.184 N
ATOM     18  H12 UNL     1      28.644  -5.680  10.452  1.00  0.00     0.184 HD
HETATM   19  C17 UNL     1      29.537  -7.502  10.246  1.00  0.00     0.123 A
ENDROOT
BRANCH   1  20
HETATM   20  C7  UNL     1      27.223  -6.276  11.599  1.00  0.00     0.101 C
BRANCH  20  21
HETATM   21  C6  UNL     1      25.825  -6.164  11.018  1.00  0.00    -0.021 A
HETATM   22  C5  UNL     1      25.184  -7.278  10.525  1.00  0.00     0.014 A
HETATM   23  C4  UNL     1      23.907  -7.177   9.994  1.00  0.00     0.018 A
HETATM   24  C3  UNL     1      23.238  -5.980   9.938  1.00  0.00     0.039 A
HETATM   25  C19 UNL     1      23.877  -4.863  10.431  1.00  0.00     0.018 A
HETATM   26  C18 UNL     1      25.154  -4.964  10.962  1.00  0.00     0.014 A
BRANCH  24  27
HETATM   27  C2  UNL     1      21.893  -5.886   9.377  1.00  0.00     0.292 C
HETATM   28  O2  UNL     1      21.025  -5.144   9.898  1.00  0.00    -0.259 OA
BRANCH  27  29
HETATM   29  O1  UNL     1      21.545  -6.611   8.261  1.00  0.00    -0.323 OA
HETATM   30  C1  UNL     1      22.218  -7.828   7.944  1.00  0.00     0.213 C
ENDBRANCH  27  29
ENDBRANCH  24  27
ENDBRANCH  20  21
ENDBRANCH   1  20
BRANCH  16  31
HETATM   31  N7  UNL     1      30.146  -4.228   9.043  1.00  0.00    -0.194 N
ATOM     32  H7  UNL     1      30.849  -3.611   9.448  1.00  0.00     0.180 HD
BRANCH  31  33
HETATM   33  C14 UNL     1      29.092  -3.625   8.296  1.00  0.00     0.322 C
BRANCH  33  34
HETATM   34  N8  UNL     1      28.621  -2.370   8.848  1.00  0.00    -0.056 N
ATOM     35  H83 UNL     1      29.120  -1.585   8.429  1.00  0.00     0.276 HD
ATOM     36  H82 UNL     1      27.676  -2.168   8.521  1.00  0.00     0.276 HD
ATOM     37  H81 UNL     1      28.665  -2.320   9.866  1.00  0.00     0.276 HD
ENDBRANCH  33  34
BRANCH  33  38
HETATM   38  C15 UNL     1      29.433  -3.438   6.838  1.00  0.00     0.291 C
BRANCH  38  39
HETATM   39  N9  UNL     1      29.186  -4.618   6.054  1.00  0.00    -0.018 N
HETATM   40  C16 UNL     1      29.409  -4.248   4.654  1.00  0.00     0.575 C
HETATM   41  N10 UNL     1      29.170  -5.412   3.823  1.00  0.00    -0.026 N
HETATM   42  N11 UNL     1      28.599  -3.122   4.260  1.00  0.00    -0.026 N
ATOM     43 3H10 UNL     1      29.728  -6.217   4.109  1.00  0.00     0.278 HD
ATOM     44 2H10 UNL     1      28.247  -5.819   3.978  1.00  0.00     0.278 HD
ATOM     45 1H10 UNL     1      29.326  -5.156   2.849  1.00  0.00     0.278 HD
ATOM     46 3H11 UNL     1      27.611  -3.294   4.445  1.00  0.00     0.278 HD
ATOM     47 2H11 UNL     1      28.744  -2.326   4.881  1.00  0.00     0.278 HD
ATOM     48 1H11 UNL     1      28.755  -2.865   3.285  1.00  0.00     0.278 HD
ATOM     49  H92 UNL     1      29.739  -5.421   6.351  1.00  0.00     0.281 HD
ATOM     50  H91 UNL     1      28.267  -5.026   6.220  1.00  0.00     0.281 HD
ENDBRANCH  38  39
ENDBRANCH  33  38
ENDBRANCH  31  33
ENDBRANCH  16  31
TORSDOF 9
ENDMDL