MODEL 2
REMARK VINA RESULT: -6.844453645     10.843     12.673
REMARK  8 active torsions:
REMARK  status: ('A' for Active; 'I' for Inactive)
REMARK    1  A    between atoms: C4_8  and  N3_9
REMARK    2  A    between atoms: C5_10  and  O1_11
REMARK    3  A    between atoms: C6_13  and  C7_14
REMARK    4  A    between atoms: C7_14  and  N4_15
REMARK    5  A    between atoms: C7_14  and  N7_25
REMARK    6  A    between atoms: N4_15  and  C8_17
REMARK    7  A    between atoms: N7_25  and  N8_26
REMARK       I    between atoms: N8_26  and  C12_28
REMARK    8  A    between atoms: C12_28  and  C13_30
ROOT
HETATM    1  C7  UNL     1      31.821   0.369   2.514  1.00  0.00     0.241 C
ENDROOT
BRANCH   1   2
HETATM    2  C6  UNL     1      32.103  -0.928   1.825  1.00  0.00     0.101 A
HETATM    3  C5  UNL     1      32.659  -1.946   2.546  1.00  0.00     0.167 A
HETATM    4  N3  UNL     1      32.926  -3.121   1.949  1.00  0.00    -0.226 N
HETATM    5  C15 UNL     1      32.646  -3.296   0.647  1.00  0.00     0.337 A
HETATM    6  N13 UNL     1      32.100  -2.320  -0.097  1.00  0.00    -0.274 N
HETATM    7  O4  UNL     1      32.896  -4.411   0.070  1.00  0.00    -0.246 OA
HETATM    8  C14 UNL     1      31.831  -1.143   0.494  1.00  0.00     0.263 A
ATOM      9  H13 UNL     1      31.894  -2.468  -1.085  1.00  0.00     0.173 HD
HETATM   10  O3  UNL     1      31.315  -0.194  -0.169  1.00  0.00    -0.267 OA
BRANCH   3  11
HETATM   11  O1  UNL     1      32.956  -1.775   3.911  1.00  0.00    -0.345 OA
ATOM     12  H1  UNL     1      32.491  -2.290   4.561  1.00  0.00     0.219 HD
ENDBRANCH   3  11
BRANCH   4  13
HETATM   13  C4  UNL     1      33.512  -4.206   2.681  1.00  0.00     0.140 A
HETATM   14  C2  UNL     1      32.752  -5.168   3.325  1.00  0.00     0.001 A
HETATM   15  C1  UNL     1      31.291  -5.282   3.402  1.00  0.00     0.054 C
HETATM   16  C3  UNL     1      33.658  -6.036   3.908  1.00  0.00     0.117 A
HETATM   17  N1  UNL     1      34.895  -5.625   3.632  1.00  0.00    -0.310 N
HETATM   18  N2  UNL     1      34.780  -4.534   2.902  1.00  0.00    -0.285 N
ATOM     19  H1  UNL     1      35.763  -6.069   3.930  1.00  0.00     0.186 HD
ATOM     20  H2  UNL     1      35.575  -4.003   2.546  1.00  0.00     0.188 HD
ENDBRANCH   4  13
ENDBRANCH   1   2
BRANCH   1  21
HETATM   21  N4  UNL     1      33.045   0.963   3.005  1.00  0.00    -0.352 N
ATOM     22  H4  UNL     1      33.396   0.691   3.924  1.00  0.00     0.163 HD
BRANCH  21  23
HETATM   23  C8  UNL     1      33.706   1.827   2.313  1.00  0.00     0.104 A
HETATM   24  C9  UNL     1      34.775   2.529   2.845  1.00  0.00     0.065 A
HETATM   25  C10 UNL     1      35.430   3.437   2.042  1.00  0.00     0.092 A
HETATM   26  N5  UNL     1      35.063   3.661   0.759  1.00  0.00    -0.362 N
HETATM   27  C11 UNL     1      34.014   2.944   0.311  1.00  0.00     0.181 A
ATOM     28  H5  UNL     1      35.550   4.334   0.166  1.00  0.00     0.165 HD
HETATM   29  N6  UNL     1      33.341   2.053   1.038  1.00  0.00    -0.339 N
ATOM     30  H6  UNL     1      32.555   1.546   0.631  1.00  0.00     0.168 HD
ENDBRANCH  21  23
ENDBRANCH   1  21
BRANCH   1  31
HETATM   31  N7  UNL     1      30.948   0.161   3.645  1.00  0.00    -0.107 NA
BRANCH  31  32
HETATM   32  N8  UNL     1      30.936   1.269   4.509  1.00  0.00    -0.265 N
HETATM   33  C12 UNL     1      30.817   1.079   5.918  1.00  0.00     0.303 C
HETATM   34  O2  UNL     1      30.722  -0.082   6.416  1.00  0.00    -0.263 OA
ATOM     35  H8  UNL     1      31.013   2.212   4.128  1.00  0.00     0.185 HD
BRANCH  33  36
HETATM   36  C13 UNL     1      30.810   2.264   6.770  1.00  0.00     0.204 A
HETATM   37  N9  UNL     1      31.635   3.306   6.781  1.00  0.00    -0.267 N
HETATM   38  N10 UNL     1      31.222   4.124   7.730  1.00  0.00    -0.225 N
ATOM     39  H9  UNL     1      32.438   3.446   6.169  1.00  0.00     0.190 HD
HETATM   40  N11 UNL     1      30.148   3.632   8.332  1.00  0.00    -0.005 NA
ATOM     41  H10 UNL     1      31.667   5.011   7.968  1.00  0.00     0.205 HD
HETATM   42  N12 UNL     1      29.899   2.479   7.731  1.00  0.00    -0.262 N
ATOM     43  H12 UNL     1      29.130   1.849   7.964  1.00  0.00     0.186 HD
ENDBRANCH  33  36
ENDBRANCH  31  32
ENDBRANCH   1  31
TORSDOF 8
ENDMDL