MODEL 4
REMARK VINA RESULT: -7.518744613      2.190      4.566
REMARK  10 active torsions:
REMARK  status: ('A' for Active; 'I' for Inactive)
REMARK    1  A    between atoms: C1_2  and  O2_4
REMARK    2  A    between atoms: O2_4  and  C2_5
REMARK    3  A    between atoms: C2_5  and  C3_6
REMARK       I    between atoms: C3_6  and  N2_8
REMARK    4  A    between atoms: N2_8  and  C4_10
REMARK    5  A    between atoms: C4_10  and  O4_11
REMARK    6  A    between atoms: C4_10  and  C5_13
REMARK       I    between atoms: C5_13  and  N3_15
REMARK    7  A    between atoms: N3_15  and  C6_17
REMARK    8  A    between atoms: N6_22  and  N7_23
REMARK    9  A    between atoms: C7_26  and  N8_27
REMARK       I    between atoms: C8_29  and  N10_31
REMARK   10  A    between atoms: N10_31  and  O6_33
ROOT
HETATM    1  C5  UNL     1      29.136  -8.403  12.655  1.00  0.00     0.272 C
HETATM    2  O5  UNL     1      29.214  -7.172  12.894  1.00  0.00    -0.268 OA
HETATM    3  N3  UNL     1      29.463  -9.390  13.662  1.00  0.00    -0.305 N
ATOM      4  H3  UNL     1      29.385 -10.388  13.469  1.00  0.00     0.170 HD
ENDROOT
BRANCH   1   5
HETATM    5  C4  UNL     1      28.694  -8.798  11.289  1.00  0.00     0.314 C
BRANCH   5   6
HETATM    6  N2  UNL     1      29.349 -10.038  10.926  1.00  0.00    -0.324 N
HETATM    7  C3  UNL     1      29.306 -10.598   9.646  1.00  0.00     0.264 C
HETATM    8  O3  UNL     1      28.633  -9.947   8.770  1.00  0.00    -0.269 OA
ATOM      9  H2  UNL     1      29.873 -10.533  11.648  1.00  0.00     0.165 HD
BRANCH   7  10
HETATM   10  C2  UNL     1      29.931 -11.831   9.174  1.00  0.00     0.198 A
HETATM   11  C9  UNL     1      29.701 -12.980  10.090  1.00  0.00     0.027 A
HETATM   12  C10 UNL     1      30.827 -13.365  10.658  1.00  0.00     0.012 A
HETATM   13  C11 UNL     1      31.946 -12.534  10.202  1.00  0.00    -0.026 A
HETATM   14  C12 UNL     1      33.295 -12.508  10.475  1.00  0.00     0.012 A
HETATM   15  C16 UNL     1      31.425 -11.623   9.324  1.00  0.00     0.000 A
HETATM   16  C13 UNL     1      34.158 -11.599   9.898  1.00  0.00     0.001 A
HETATM   17  C14 UNL     1      33.586 -10.704   9.021  1.00  0.00     0.001 A
HETATM   18  C15 UNL     1      32.246 -10.690   8.718  1.00  0.00     0.012 A
BRANCH  10  19
HETATM   19  O2  UNL     1      29.729 -12.165   7.842  1.00  0.00    -0.276 OA
BRANCH  19  20
HETATM   20  C1  UNL     1      28.545 -12.511   7.245  1.00  0.00     0.374 C
HETATM   21  N1  UNL     1      28.244 -12.015   5.948  1.00  0.00    -0.032 NA
HETATM   22  O1  UNL     1      27.755 -13.266   7.878  1.00  0.00    -0.242 OA
ENDBRANCH  19  20
ENDBRANCH  10  19
ENDBRANCH   7  10
ENDBRANCH   5   6
BRANCH   5  23
HETATM   23  O4  UNL     1      28.953  -7.788  10.366  1.00  0.00    -0.368 OA
ATOM     24  H4  UNL     1      28.170  -7.292  10.157  1.00  0.00     0.212 HD
ENDBRANCH   5  23
ENDBRANCH   1   5
BRANCH   3  25
HETATM   25  C6  UNL     1      29.890  -8.924  14.910  1.00  0.00     0.172 A
HETATM   26  N4  UNL     1      29.343  -7.902  15.635  1.00  0.00    -0.266 N
HETATM   27  N5  UNL     1      30.050  -7.732  16.733  1.00  0.00    -0.218 N
ATOM     28  H4  UNL     1      28.522  -7.359  15.368  1.00  0.00     0.190 HD
HETATM   29  N6  UNL     1      31.050  -8.589  16.791  1.00  0.00    -0.168 N
ATOM     30  H5  UNL     1      29.849  -7.030  17.445  1.00  0.00     0.210 HD
HETATM   31  C7  UNL     1      30.961  -9.350  15.646  1.00  0.00     0.194 A
BRANCH  29  32
HETATM   32  N7  UNL     1      32.016  -8.727  17.787  1.00  0.00    -0.321 N
ATOM     33  H72 UNL     1      31.998  -8.276  18.701  1.00  0.00     0.179 HD
ATOM     34  H71 UNL     1      32.871  -9.282  17.767  1.00  0.00     0.179 HD
ENDBRANCH  29  32
BRANCH  31  35
HETATM   35  N8  UNL     1      31.858 -10.411  15.399  1.00  0.00    -0.309 N
HETATM   36  C8  UNL     1      32.049 -11.451  16.109  1.00  0.00     0.213 C
HETATM   37  N9  UNL     1      31.315 -11.635  17.304  1.00  0.00    -0.061 NA
HETATM   38  N10 UNL     1      32.984 -12.467  15.759  1.00  0.00    -0.241 N
ATOM     39  H10 UNL     1      33.463 -12.972  16.504  1.00  0.00     0.197 HD
ATOM     40  H8  UNL     1      32.419 -10.336  14.551  1.00  0.00     0.170 HD
BRANCH  38  41
HETATM   41  O6  UNL     1      33.259 -12.786  14.474  1.00  0.00    -0.287 OA
ATOM     42  H6  UNL     1      32.627 -13.217  13.910  1.00  0.00     0.244 HD
ENDBRANCH  38  41
ENDBRANCH  31  35
ENDBRANCH   3  25
TORSDOF 10
ENDMDL