MODEL 4
REMARK VINA RESULT: -6.795358644      2.239      4.033
REMARK  11 active torsions:
REMARK  status: ('A' for Active; 'I' for Inactive)
REMARK    1  A    between atoms: N3_6  and  C3_7
REMARK    2  A    between atoms: C3_7  and  C4_8
REMARK    3  A    between atoms: C4_8  and  O1_9
REMARK    4  A    between atoms: C4_8  and  C5_11
REMARK    5  A    between atoms: C5_11  and  O2_12
REMARK    6  A    between atoms: C8_19  and  N5_20
REMARK    7  A    between atoms: N5_20  and  N6_22
REMARK    8  A    between atoms: C9_24  and  C10_25
REMARK    9  A    between atoms: C13_28  and  N7_29
REMARK   10  A    between atoms: N7_29  and  N8_31
REMARK   11  A    between atoms: C14_38  and  N11_39
REMARK       I    between atoms: N11_39  and  C15_40
REMARK       I    between atoms: C15_40  and  N12_41
REMARK       I    between atoms: C15_40  and  N13_45
ROOT
HETATM    1  N1  UNL     1      23.999  -6.443   9.951  1.00  0.00    -0.190 NA
HETATM    2  C1  UNL     1      24.995  -7.020  10.191  1.00  0.00     0.121 C
HETATM    3  C2  UNL     1      26.220  -7.718  10.465  1.00  0.00     0.158 A
HETATM    4  N2  UNL     1      26.722  -8.792   9.842  1.00  0.00    -0.286 N
ATOM      5  H2  UNL     1      26.270  -9.263   9.058  1.00  0.00     0.188 HD
HETATM    6  N3  UNL     1      27.884  -9.169  10.370  1.00  0.00    -0.281 N
HETATM    7  C6  UNL     1      28.132  -8.300  11.367  1.00  0.00     0.150 A
HETATM    8  C7  UNL     1      29.168  -8.183  12.259  1.00  0.00     0.290 A
HETATM    9  O3  UNL     1      30.114  -9.014  12.199  1.00  0.00    -0.265 OA
HETATM   10  N4  UNL     1      29.151  -7.186  13.177  1.00  0.00    -0.153 N
ATOM     11  H4  UNL     1      29.931  -7.119  13.831  1.00  0.00     0.187 HD
HETATM   12  C8  UNL     1      28.160  -6.283  13.271  1.00  0.00     0.700 A
HETATM   13  N14 UNL     1      27.143  -6.394  12.398  1.00  0.00    -0.185 N
ATOM     14  H14 UNL     1      26.375  -5.725  12.441  1.00  0.00     0.184 HD
HETATM   15  C16 UNL     1      27.115  -7.367  11.469  1.00  0.00     0.122 A
ENDROOT
BRANCH   6  16
HETATM   16  C3  UNL     1      28.693 -10.306   9.922  1.00  0.00     0.183 C
BRANCH  16  17
HETATM   17  C4  UNL     1      27.887 -11.285   9.132  1.00  0.00     0.161 C
BRANCH  17  18
HETATM   18  O1  UNL     1      26.877 -11.841   9.928  1.00  0.00    -0.392 OA
ATOM     19  H1  UNL     1      27.213 -12.053  10.791  1.00  0.00     0.210 HD
ENDBRANCH  17  18
BRANCH  17  20
HETATM   20  C5  UNL     1      28.816 -12.399   8.694  1.00  0.00     0.197 C
BRANCH  20  21
HETATM   21  O2  UNL     1      28.149 -13.397   8.015  1.00  0.00    -0.398 OA
ATOM     22  H2  UNL     1      27.227 -13.198   7.901  1.00  0.00     0.209 HD
ENDBRANCH  20  21
ENDBRANCH  17  20
ENDBRANCH  16  17
ENDBRANCH   6  16
BRANCH  12  23
HETATM   23  N5  UNL     1      28.177  -5.336  14.167  1.00  0.00    -0.132 N
ATOM     24  H5  UNL     1      27.916  -5.583  15.121  1.00  0.00     0.205 HD
BRANCH  23  25
HETATM   25  N6  UNL     1      28.509  -4.079  13.928  1.00  0.00    -0.297 N
HETATM   26  C9  UNL     1      28.065  -3.158  13.233  1.00  0.00     0.124 C
ATOM     27  H6  UNL     1      29.340  -3.798  14.447  1.00  0.00     0.186 HD
BRANCH  26  28
HETATM   28  C10 UNL     1      26.907  -3.135  12.349  1.00  0.00     0.039 A
HETATM   29  C11 UNL     1      27.023  -3.117  10.987  1.00  0.00     0.021 A
HETATM   30  C12 UNL     1      25.897  -3.096  10.197  1.00  0.00     0.051 A
HETATM   31  C13 UNL     1      24.672  -3.092  10.818  1.00  0.00     0.123 A
HETATM   32  N10 UNL     1      24.562  -3.108  12.135  1.00  0.00    -0.316 N
HETATM   33  C14 UNL     1      25.639  -3.131  13.004  1.00  0.00     0.190 A
ATOM     34  H10 UNL     1      23.624  -3.103  12.537  1.00  0.00     0.170 HD
BRANCH  31  35
HETATM   35  N7  UNL     1      23.534  -3.068   9.938  1.00  0.00    -0.271 N
ATOM     36  H7  UNL     1      23.474  -2.394   9.174  1.00  0.00     0.190 HD
BRANCH  35  37
HETATM   37  N8  UNL     1      22.624  -3.898  10.139  1.00  0.00    -0.248 N
HETATM   38  N9  UNL     1      21.663  -4.597   9.822  1.00  0.00    -0.331 N
ATOM     39  H92 UNL     1      21.574  -4.341   8.839  1.00  0.00     0.178 HD
ATOM     40  H91 UNL     1      20.919  -5.276   9.986  1.00  0.00     0.178 HD
ATOM     41  H8  UNL     1      22.748  -4.127  11.125  1.00  0.00     0.207 HD
ENDBRANCH  35  37
ENDBRANCH  31  35
BRANCH  33  42
HETATM   42  N11 UNL     1      25.503  -3.145  14.189  1.00  0.00    -0.371 NA
HETATM   43  C15 UNL     1      25.197  -3.161  15.467  1.00  0.00     0.556 C
HETATM   44  N12 UNL     1      24.818  -1.816  15.973  1.00  0.00    -0.021 N
HETATM   45  N13 UNL     1      26.244  -3.640  16.401  1.00  0.00    -0.021 N
ATOM     46 3H12 UNL     1      25.547  -1.130  15.778  1.00  0.00     0.280 HD
ATOM     47 2H12 UNL     1      24.063  -1.413  15.419  1.00  0.00     0.280 HD
ATOM     48 1H12 UNL     1      24.580  -1.829  16.964  1.00  0.00     0.280 HD
ATOM     49 3H13 UNL     1      26.560  -4.566  16.114  1.00  0.00     0.280 HD
ATOM     50 2H13 UNL     1      27.098  -3.099  16.262  1.00  0.00     0.280 HD
ATOM     51 1H13 UNL     1      26.006  -3.652  17.393  1.00  0.00     0.280 HD
ENDBRANCH  33  42
ENDBRANCH  26  28
ENDBRANCH  23  25
ENDBRANCH  12  23
TORSDOF 11
ENDMDL