MODEL 2
REMARK VINA RESULT: -8.406670843      2.293      4.196
REMARK  16 active torsions:
REMARK  status: ('A' for Active; 'I' for Inactive)
REMARK    1  A    between atoms: C2_2  and  C3_3
REMARK    2  A    between atoms: C3_3  and  C4_4
REMARK    3  A    between atoms: C5_7  and  C6_8
REMARK    4  A    between atoms: C6_8  and  C7_9
REMARK    5  A    between atoms: C7_9  and  N2_10
REMARK    6  A    between atoms: C7_9  and  C25_38
REMARK       I    between atoms: N2_10  and  C8_12
REMARK    7  A    between atoms: C8_12  and  C9_14
REMARK    8  A    between atoms: C9_14  and  N3_15
REMARK       I    between atoms: N3_15  and  C10_17
REMARK    9  A    between atoms: C10_17  and  C11_19
REMARK   10  A    between atoms: C11_19  and  C12_20
REMARK   11  A    between atoms: C12_20  and  N4_21
REMARK   12  A    between atoms: N4_21  and  C13_24
REMARK   13  A    between atoms: C13_24  and  C14_25
REMARK   14  A    between atoms: C14_25  and  C15_26
REMARK   15  A    between atoms: C15_26  and  N5_27
REMARK   16  A    between atoms: C28_42  and  C29_43
ROOT
HETATM    1  C9  UNL     1      20.856  33.090  15.196  1.00  0.00     0.113 C
HETATM    2  C20 UNL     1      22.005  34.004  14.982  1.00  0.00     0.041 C
HETATM    3  C21 UNL     1      23.246  33.723  15.752  1.00  0.00     0.003 C
HETATM    4  C22 UNL     1      22.969  33.357  17.194  1.00  0.00     0.000 C
HETATM    5  C23 UNL     1      22.080  32.107  17.146  1.00  0.00     0.003 C
HETATM    6  C24 UNL     1      20.770  32.510  16.563  1.00  0.00     0.041 C
ENDROOT
BRANCH   1   7
HETATM    7  C8  UNL     1      20.746  32.058  14.126  1.00  0.00     0.246 C
HETATM    8  N2  UNL     1      20.096  30.839  14.322  1.00  0.00    -0.347 N
ATOM      9  H2  UNL     1      19.672  30.622  15.224  1.00  0.00     0.163 HD
HETATM   10  O1  UNL     1      21.272  32.308  12.997  1.00  0.00    -0.271 OA
BRANCH   8  11
HETATM   11  C7  UNL     1      20.024  29.848  13.194  1.00  0.00     0.159 C
BRANCH  11  12
HETATM   12  C6  UNL     1      20.487  28.552  13.746  1.00  0.00     0.089 C
BRANCH  12  13
HETATM   13  C5  UNL     1      20.832  27.547  12.742  1.00  0.00     0.012 A
HETATM   14  N1  UNL     1      19.907  26.781  12.122  1.00  0.00    -0.361 N
HETATM   15  C4  UNL     1      20.259  25.905  11.161  1.00  0.00     0.032 A
ATOM     16  H1  UNL     1      18.926  26.867  12.386  1.00  0.00     0.165 HD
HETATM   17  C32 UNL     1      21.554  25.736  10.759  1.00  0.00     0.063 A
HETATM   18  C28 UNL     1      22.551  26.493  11.358  1.00  0.00    -0.028 A
HETATM   19 CL1  UNL     1      21.966  24.605   9.528  1.00  0.00    -0.082 Cl
HETATM   20  C27 UNL     1      22.153  27.377  12.334  1.00  0.00     0.034 A
BRANCH  15  21
HETATM   21  C3  UNL     1      19.133  25.125  10.559  1.00  0.00     0.058 C
BRANCH  21  22
HETATM   22  C2  UNL     1      18.141  24.824  11.670  1.00  0.00     0.002 C
HETATM   23  C1  UNL     1      17.670  23.395  11.613  1.00  0.00     0.005 C
ENDBRANCH  21  22
ENDBRANCH  15  21
BRANCH  18  24
HETATM   24  C29 UNL     1      23.955  26.380  10.988  1.00  0.00     0.020 A
HETATM   25  C30 UNL     1      24.744  27.665  10.836  1.00  0.00     0.010 A
HETATM   26  C31 UNL     1      25.090  26.616  11.900  1.00  0.00     0.010 A
ENDBRANCH  18  24
ENDBRANCH  12  13
ENDBRANCH  11  12
BRANCH  11  27
HETATM   27  C25 UNL     1      18.651  29.888  12.737  1.00  0.00     0.145 C
HETATM   28  C26 UNL     1      17.514  30.469  13.516  1.00  0.00     0.093 C
HETATM   29  O4  UNL     1      18.343  29.421  11.643  1.00  0.00    -0.296 OA
ENDBRANCH  11  27
ENDBRANCH   8  11
ENDBRANCH   1   7
BRANCH   1  30
HETATM   30  N3  UNL     1      19.643  33.942  15.073  1.00  0.00    -0.343 N
HETATM   31  C10 UNL     1      18.391  33.562  15.605  1.00  0.00     0.220 C
HETATM   32  O2  UNL     1      18.256  32.469  16.204  1.00  0.00    -0.274 OA
ATOM     33  H3  UNL     1      19.718  34.835  14.587  1.00  0.00     0.163 HD
BRANCH  31  34
HETATM   34  C11 UNL     1      17.182  34.411  15.493  1.00  0.00     0.130 C
BRANCH  34  35
HETATM   35  C12 UNL     1      15.918  33.643  15.778  1.00  0.00     0.241 C
BRANCH  35  36
HETATM   36  N4  UNL     1      15.562  33.659  17.162  1.00  0.00    -0.075 N
ATOM     37  H42 UNL     1      15.028  32.823  17.400  1.00  0.00     0.277 HD
ATOM     38  H41 UNL     1      16.388  33.512  17.742  1.00  0.00     0.277 HD
BRANCH  36  39
HETATM   39  C13 UNL     1      14.855  34.842  17.590  1.00  0.00     0.234 C
BRANCH  39  40
HETATM   40  C14 UNL     1      15.610  35.668  18.603  1.00  0.00     0.057 C
BRANCH  40  41
HETATM   41  C15 UNL     1      15.458  37.133  18.333  1.00  0.00     0.274 C
BRANCH  41  42
HETATM   42  N5  UNL     1      16.579  37.855  18.875  1.00  0.00     0.092 N
HETATM   43  C16 UNL     1      17.836  37.347  18.338  1.00  0.00     0.298 C
HETATM   44  C17 UNL     1      18.440  38.323  17.332  1.00  0.00     0.198 C
HETATM   45  O3  UNL     1      17.502  38.892  16.496  1.00  0.00    -0.388 OA
HETATM   46  C18 UNL     1      16.484  39.560  17.134  1.00  0.00     0.198 C
HETATM   47  C19 UNL     1      16.553  39.266  18.629  1.00  0.00     0.298 C
ENDBRANCH  41  42
ENDBRANCH  40  41
ENDBRANCH  39  40
ENDBRANCH  36  39
ENDBRANCH  35  36
ENDBRANCH  34  35
ENDBRANCH  31  34
ENDBRANCH   1  30
TORSDOF 16
ENDMDL