MODEL 5
REMARK VINA RESULT: -7.995499077      1.396      1.843
REMARK  18 active torsions:
REMARK  status: ('A' for Active; 'I' for Inactive)
REMARK    1  A    between atoms: O1_2  and  C2_3
REMARK    2  A    between atoms: C2_3  and  C3_4
REMARK    3  A    between atoms: C3_4  and  C4_5
REMARK    4  A    between atoms: C4_5  and  N1_6
REMARK    5  A    between atoms: N1_6  and  C5_8
REMARK    6  A    between atoms: C6_11  and  N3_12
REMARK    7  A    between atoms: N3_12  and  C7_14
REMARK    8  A    between atoms: C7_14  and  C8_15
REMARK    9  A    between atoms: C8_15  and  C9_16
REMARK   10  A    between atoms: C11_18  and  N4_19
REMARK       I    between atoms: N4_19  and  C12_21
REMARK   11  A    between atoms: C12_21  and  C13_23
REMARK   12  A    between atoms: C13_23  and  C14_24
REMARK   13  A    between atoms: C14_24  and  C15_25
REMARK   14  A    between atoms: C15_25  and  C16_26
REMARK   15  A    between atoms: C16_26  and  C17_27
REMARK   16  A    between atoms: C17_27  and  N5_28
REMARK   17  A    between atoms: C25_40  and  C26_41
REMARK   18  A    between atoms: C26_41  and  C27_43
ROOT
HETATM    1  N3  UNL     1      22.440  30.666  13.373  1.00  0.00    -0.226 N
ATOM      2  H3  UNL     1      23.430  30.419  13.369  1.00  0.00     0.177 HD
ENDROOT
BRANCH   1   3
HETATM    3  C6  UNL     1      21.594  29.853  12.837  1.00  0.00     0.680 A
HETATM    4  N2  UNL     1      21.986  28.719  12.189  1.00  0.00    -0.176 N
HETATM    5  C5  UNL     1      21.115  27.866  11.624  1.00  0.00     0.134 A
ATOM      6  H2  UNL     1      22.983  28.510  12.130  1.00  0.00     0.186 HD
HETATM    7  C25 UNL     1      19.759  28.110  11.682  1.00  0.00     0.094 A
HETATM    8  C24 UNL     1      19.345  29.252  12.333  1.00  0.00     0.137 A
HETATM    9  N7  UNL     1      20.267  30.065  12.877  1.00  0.00    -0.180 N
HETATM   10 CL1  UNL     1      17.626  29.563  12.407  1.00  0.00    -0.063 Cl
ATOM     11  H7  UNL     1      19.935  30.904  13.354  1.00  0.00     0.185 HD
BRANCH   5  12
HETATM   12  N1  UNL     1      21.506  26.813  11.020  1.00  0.00    -0.375 N
ATOM     13  H1  UNL     1      21.662  26.902  10.016  1.00  0.00     0.161 HD
BRANCH  12  14
HETATM   14  C4  UNL     1      21.749  25.533  11.579  1.00  0.00     0.123 C
BRANCH  14  15
HETATM   15  C3  UNL     1      22.330  24.657  10.462  1.00  0.00     0.046 C
BRANCH  15  16
HETATM   16  C2  UNL     1      23.810  24.983  10.390  1.00  0.00     0.168 C
BRANCH  16  17
HETATM   17  O1  UNL     1      24.282  25.335  11.634  1.00  0.00    -0.396 OA
HETATM   18  C1  UNL     1      25.146  26.412  11.609  1.00  0.00     0.201 C
ENDBRANCH  16  17
ENDBRANCH  15  16
ENDBRANCH  14  15
ENDBRANCH  12  14
ENDBRANCH   5  12
BRANCH   7  19
HETATM   19  C26 UNL     1      18.753  27.208  11.080  1.00  0.00     0.176 C
HETATM   20  O3  UNL     1      18.490  27.301   9.854  1.00  0.00    -0.291 OA
BRANCH  19  21
HETATM   21  C27 UNL     1      18.046  26.198  11.881  1.00  0.00     0.169 C
HETATM   22 BR1  UNL     1      18.122  24.509  10.954  1.00  0.00    -0.088 Br
ENDBRANCH  19  21
ENDBRANCH   7  19
ENDBRANCH   1   3
BRANCH   1  23
HETATM   23  C7  UNL     1      22.044  31.892  13.968  1.00  0.00     0.142 C
BRANCH  23  24
HETATM   24  C8  UNL     1      23.135  32.645  14.661  1.00  0.00     0.060 C
BRANCH  24  25
HETATM   25  C9  UNL     1      22.681  33.569  15.706  1.00  0.00    -0.037 A
HETATM   26  C10 UNL     1      21.569  34.409  15.537  1.00  0.00     0.057 A
HETATM   27  C11 UNL     1      21.364  35.169  16.663  1.00  0.00     0.109 A
HETATM   28  N6  UNL     1      22.361  34.788  17.525  1.00  0.00    -0.347 N
HETATM   29  C22 UNL     1      22.566  35.307  18.846  1.00  0.00     0.157 C
HETATM   30  C23 UNL     1      23.131  33.850  16.961  1.00  0.00     0.099 A
BRANCH  27  31
HETATM   31  N4  UNL     1      20.404  36.142  17.001  1.00  0.00    -0.313 N
HETATM   32  C12 UNL     1      19.263  35.868  17.772  1.00  0.00     0.223 C
HETATM   33  O2  UNL     1      19.057  34.714  18.196  1.00  0.00    -0.273 OA
ATOM     34  H4  UNL     1      20.545  37.096  16.668  1.00  0.00     0.170 HD
BRANCH  32  35
HETATM   35  C13 UNL     1      18.281  36.980  18.087  1.00  0.00     0.103 C
BRANCH  35  36
HETATM   36  C14 UNL     1      17.062  36.714  17.237  1.00  0.00     0.009 C
BRANCH  36  37
HETATM   37  C15 UNL     1      15.843  36.366  18.083  1.00  0.00     0.002 C
BRANCH  37  38
HETATM   38  C16 UNL     1      15.074  35.237  17.512  1.00  0.00     0.030 C
BRANCH  38  39
HETATM   39  C17 UNL     1      15.881  34.078  17.058  1.00  0.00     0.272 C
BRANCH  39  40
HETATM   40  N5  UNL     1      15.679  33.641  15.714  1.00  0.00     0.088 N
HETATM   41  C18 UNL     1      16.225  32.267  15.560  1.00  0.00     0.272 C
HETATM   42  C19 UNL     1      17.707  32.435  15.458  1.00  0.00     0.032 C
HETATM   43  C20 UNL     1      17.897  33.840  14.995  1.00  0.00     0.032 C
HETATM   44  C21 UNL     1      16.485  34.353  14.724  1.00  0.00     0.272 C
ENDBRANCH  39  40
ENDBRANCH  38  39
ENDBRANCH  37  38
ENDBRANCH  36  37
ENDBRANCH  35  36
ENDBRANCH  32  35
ENDBRANCH  27  31
ENDBRANCH  24  25
ENDBRANCH  23  24
ENDBRANCH   1  23
TORSDOF 18
ENDMDL