MODEL 3
REMARK VINA RESULT: -8.851414760      1.390      1.865
REMARK  17 active torsions:
REMARK  status: ('A' for Active; 'I' for Inactive)
REMARK    1  A    between atoms: C2_2  and  C3_3
REMARK    2  A    between atoms: C3_3  and  C5_5
REMARK    3  A    between atoms: C5_5  and  N1_6
REMARK    4  A    between atoms: C5_5  and  C12_17
REMARK       I    between atoms: N1_6  and  C6_8
REMARK    5  A    between atoms: C6_8  and  C7_10
REMARK    6  A    between atoms: C7_10  and  C8_12
REMARK    7  A    between atoms: C8_12  and  C9_13
REMARK    8  A    between atoms: C9_13  and  C11_15
REMARK    9  A    between atoms: C12_17  and  C13_19
REMARK   10  A    between atoms: C13_19  and  C14_20
REMARK       I    between atoms: C14_20  and  N2_22
REMARK   11  A    between atoms: N2_22  and  C15_24
REMARK   12  A    between atoms: C15_24  and  C17_26
REMARK   13  A    between atoms: C17_26  and  C19_29
REMARK   14  A    between atoms: C19_29  and  C21_31
REMARK   15  A    between atoms: C21_31  and  C22_33
REMARK       I    between atoms: C22_33  and  N3_35
REMARK   16  A    between atoms: C23_37  and  O7_38
REMARK   17  A    between atoms: C23_37  and  C24_40
ROOT
HETATM    1  C13 UNL     1      18.860  31.108  14.388  1.00  0.00     0.103 C
HETATM    2  C28 UNL     1      18.825  30.971  12.867  1.00  0.00     0.027 C
HETATM    3  C29 UNL     1      18.706  29.614  12.332  1.00  0.00     0.002 C
HETATM    4  C30 UNL     1      18.404  28.530  13.295  1.00  0.00     0.000 C
HETATM    5  C31 UNL     1      17.600  28.906  14.469  1.00  0.00     0.002 C
HETATM    6  C32 UNL     1      17.817  30.265  15.049  1.00  0.00     0.027 C
ENDROOT
BRANCH   1   7
HETATM    7  C12 UNL     1      20.222  30.858  14.908  1.00  0.00     0.167 C
HETATM    8  O3  UNL     1      20.257  30.642  16.139  1.00  0.00    -0.294 OA
BRANCH   7   9
HETATM    9  C5  UNL     1      21.511  30.832  14.213  1.00  0.00     0.159 C
BRANCH   9  10
HETATM   10  C3  UNL     1      22.233  29.521  14.138  1.00  0.00     0.011 C
HETATM   11  C4  UNL     1      21.465  28.307  14.542  1.00  0.00     0.012 C
BRANCH  10  12
HETATM   12  C2  UNL     1      22.681  29.234  12.701  1.00  0.00     0.002 C
HETATM   13  C1  UNL     1      22.072  28.021  12.101  1.00  0.00     0.005 C
ENDBRANCH  10  12
ENDBRANCH   9  10
BRANCH   9  14
HETATM   14  N1  UNL     1      22.345  31.732  15.068  1.00  0.00    -0.343 N
HETATM   15  C6  UNL     1      22.852  32.937  14.619  1.00  0.00     0.288 C
HETATM   16  O1  UNL     1      22.630  33.329  13.447  1.00  0.00    -0.264 OA
ATOM     17  H1  UNL     1      22.549  31.444  16.024  1.00  0.00     0.163 HD
BRANCH  15  18
HETATM   18  C7  UNL     1      23.645  33.778  15.486  1.00  0.00     0.216 C
HETATM   19  O2  UNL     1      24.882  33.650  15.525  1.00  0.00    -0.287 OA
BRANCH  18  20
HETATM   20  C8  UNL     1      23.002  34.801  16.340  1.00  0.00     0.095 C
BRANCH  20  21
HETATM   21  C9  UNL     1      22.408  34.150  17.572  1.00  0.00     0.018 C
HETATM   22  C10 UNL     1      22.811  34.821  18.846  1.00  0.00     0.012 C
BRANCH  21  23
HETATM   23  C11 UNL     1      20.899  34.228  17.398  1.00  0.00     0.226 C
HETATM   24  F1  UNL     1      20.588  34.948  16.275  1.00  0.00    -0.255 F
ENDBRANCH  21  23
ENDBRANCH  20  21
ENDBRANCH  18  20
ENDBRANCH  15  18
ENDBRANCH   9  14
ENDBRANCH   7   9
ENDBRANCH   1   7
BRANCH   1  25
HETATM   25  C14 UNL     1      18.537  32.532  14.605  1.00  0.00     0.234 C
HETATM   26  O4  UNL     1      19.183  33.424  14.023  1.00  0.00    -0.272 OA
HETATM   27  N2  UNL     1      17.480  32.951  15.476  1.00  0.00    -0.353 N
ATOM     28  H2  UNL     1      16.943  32.228  15.955  1.00  0.00     0.163 HD
BRANCH  27  29
HETATM   29  C15 UNL     1      17.127  34.328  15.720  1.00  0.00     0.120 C
HETATM   30  C16 UNL     1      16.440  35.008  14.575  1.00  0.00     0.035 C
BRANCH  29  31
HETATM   31  C17 UNL     1      16.434  34.549  17.025  1.00  0.00     0.130 C
HETATM   32  C18 UNL     1      15.375  33.409  17.164  1.00  0.00     0.055 C
HETATM   33  F2  UNL     1      17.308  34.301  18.055  1.00  0.00    -0.240 F
BRANCH  31  34
HETATM   34  C19 UNL     1      15.646  35.810  17.135  1.00  0.00     0.103 C
HETATM   35  C20 UNL     1      14.266  35.540  17.767  1.00  0.00     0.022 C
BRANCH  34  36
HETATM   36  C21 UNL     1      16.204  36.943  17.817  1.00  0.00     0.223 C
HETATM   37  O5  UNL     1      15.477  37.562  18.671  1.00  0.00    -0.287 OA
BRANCH  36  38
HETATM   38  C22 UNL     1      17.562  37.512  17.657  1.00  0.00     0.293 C
HETATM   39  O6  UNL     1      17.687  38.252  16.669  1.00  0.00    -0.264 OA
HETATM   40  N3  UNL     1      18.588  37.231  18.544  1.00  0.00    -0.304 N
HETATM   41  C23 UNL     1      19.891  37.554  18.717  1.00  0.00     0.126 C
ATOM     42  H3  UNL     1      18.270  36.599  19.278  1.00  0.00     0.171 HD
BRANCH  41  43
HETATM   43  O7  UNL     1      20.454  36.989  19.792  1.00  0.00    -0.349 OA
ATOM     44  H7  UNL     1      21.063  37.556  20.253  1.00  0.00     0.219 HD
ENDBRANCH  41  43
BRANCH  41  45
HETATM   45  C24 UNL     1      20.858  38.384  18.008  1.00  0.00     0.021 A
HETATM   46  C25 UNL     1      21.344  38.102  16.599  1.00  0.00     0.024 C
HETATM   47  C26 UNL     1      20.834  39.875  18.358  1.00  0.00     0.018 A
HETATM   48  C27 UNL     1      21.951  39.028  18.859  1.00  0.00     0.018 A
ENDBRANCH  41  45
ENDBRANCH  36  38
ENDBRANCH  34  36
ENDBRANCH  31  34
ENDBRANCH  29  31
ENDBRANCH  27  29
ENDBRANCH   1  25
TORSDOF 17
ENDMDL