MODEL 4
REMARK VINA RESULT: -8.560748090      3.724     11.220
REMARK  17 active torsions:
REMARK  status: ('A' for Active; 'I' for Inactive)
REMARK    1  A    between atoms: C1_2  and  C2_4
REMARK    2  A    between atoms: C2_4  and  N1_5
REMARK    3  A    between atoms: N1_5  and  C3_7
REMARK    4  A    between atoms: C3_7  and  C4_8
REMARK    5  A    between atoms: C3_7  and  C28_42
REMARK       I    between atoms: C4_8  and  N2_10
REMARK    6  A    between atoms: C7_13  and  C8_14
REMARK    7  A    between atoms: C8_14  and  C9_16
REMARK    8  A    between atoms: C9_16  and  N3_17
REMARK    9  A    between atoms: N3_17  and  C10_20
REMARK   10  A    between atoms: C10_20  and  C11_22
REMARK   11  A    between atoms: C11_22  and  O5_23
REMARK   12  A    between atoms: O5_23  and  C12_24
REMARK   13  A    between atoms: C15_27  and  C16_28
REMARK   14  A    between atoms: C16_28  and  N4_29
REMARK   15  A    between atoms: N4_29  and  C17_30
REMARK   16  A    between atoms: N4_29  and  C23_36
REMARK   17  A    between atoms: C17_30  and  C18_31
ROOT
HETATM    1  N3  UNL     1      23.488  27.896  12.389  1.00  0.00    -0.035 N
ATOM      2  H31 UNL     1      23.077  26.987  12.599  1.00  0.00     0.281 HD
ATOM      3  H32 UNL     1      23.653  28.215  13.345  1.00  0.00     0.281 HD
ENDROOT
BRANCH   1   4
HETATM    4  C9  UNL     1      22.552  28.761  11.690  1.00  0.00     0.316 C
BRANCH   4   5
HETATM    5  C8  UNL     1      21.364  29.035  12.532  1.00  0.00     0.175 C
HETATM    6  O4  UNL     1      20.255  28.991  12.033  1.00  0.00    -0.294 OA
BRANCH   5   7
HETATM    7  C7  UNL     1      21.584  29.354  13.964  1.00  0.00     0.160 C
HETATM    8  N2  UNL     1      20.930  30.514  14.487  1.00  0.00    -0.335 N
HETATM    9  C4  UNL     1      20.693  31.874  14.116  1.00  0.00     0.267 C
HETATM   10  C5  UNL     1      20.563  29.709  15.660  1.00  0.00     0.129 C
HETATM   11  O3  UNL     1      21.161  32.247  13.034  1.00  0.00    -0.266 OA
HETATM   12  C6  UNL     1      20.610  28.498  14.786  1.00  0.00     0.053 C
BRANCH   9  13
HETATM   13  C3  UNL     1      19.933  32.769  14.990  1.00  0.00     0.082 C
BRANCH  13  14
HETATM   14  N1  UNL     1      20.494  33.832  15.630  1.00  0.00    -0.359 N
ATOM     15  H1  UNL     1      19.805  34.512  15.952  1.00  0.00     0.165 HD
BRANCH  14  16
HETATM   16  C2  UNL     1      21.776  34.190  15.937  1.00  0.00     0.173 C
BRANCH  16  17
HETATM   17  C1  UNL     1      22.438  33.613  17.131  1.00  0.00     0.214 C
HETATM   18  O1  UNL     1      23.035  34.351  17.932  1.00  0.00    -0.643 OA
HETATM   19  O2  UNL     1      22.382  32.259  17.342  1.00  0.00    -0.643 OA
ENDBRANCH  16  17
ENDBRANCH  14  16
ENDBRANCH  13  14
BRANCH  13  20
HETATM   20  C28 UNL     1      18.577  32.947  14.303  1.00  0.00     0.041 C
HETATM   21  C29 UNL     1      17.742  34.061  14.750  1.00  0.00     0.011 C
HETATM   22  C30 UNL     1      16.279  33.586  14.817  1.00  0.00     0.001 C
HETATM   23  C31 UNL     1      16.183  32.652  15.999  1.00  0.00     0.000 C
HETATM   24  C32 UNL     1      17.048  31.444  15.650  1.00  0.00     0.001 C
HETATM   25  C33 UNL     1      17.817  31.642  14.371  1.00  0.00     0.011 C
ENDBRANCH  13  20
ENDBRANCH   9  13
ENDBRANCH   5   7
ENDBRANCH   4   5
ENDBRANCH   1   4
BRANCH   1  26
HETATM   26  C10 UNL     1      24.731  27.765  11.644  1.00  0.00     0.392 C
HETATM   27  F1  UNL     1      24.374  28.042  10.312  1.00  0.00    -0.217 F
BRANCH  26  28
HETATM   28  C11 UNL     1      25.114  26.316  11.676  1.00  0.00     0.242 C
BRANCH  28  29
HETATM   29  O5  UNL     1      24.113  25.390  11.696  1.00  0.00    -0.344 OA
BRANCH  29  30
HETATM   30  C12 UNL     1      23.286  24.928  10.718  1.00  0.00     0.107 A
HETATM   31  C13 UNL     1      23.654  24.349   9.531  1.00  0.00     0.040 A
HETATM   32  C14 UNL     1      22.753  23.901   8.577  1.00  0.00     0.012 A
HETATM   33  C15 UNL     1      21.413  24.035   8.814  1.00  0.00    -0.027 A
HETATM   34  C26 UNL     1      21.014  24.611   9.995  1.00  0.00     0.054 A
HETATM   35  C27 UNL     1      21.900  25.053  10.934  1.00  0.00     0.150 A
HETATM   36  F2  UNL     1      21.439  25.616  12.085  1.00  0.00    -0.203 F
BRANCH  33  37
HETATM   37  C16 UNL     1      20.406  23.580   7.849  1.00  0.00     0.311 C
BRANCH  37  38
HETATM   38  N4  UNL     1      19.484  24.710   7.522  1.00  0.00     0.097 N
BRANCH  38  39
HETATM   39  C17 UNL     1      18.249  24.441   8.153  1.00  0.00     0.278 C
BRANCH  39  40
HETATM   40  C18 UNL     1      17.624  25.432   9.044  1.00  0.00     0.014 C
HETATM   41  C19 UNL     1      17.626  25.036  10.508  1.00  0.00     0.006 C
HETATM   42  C20 UNL     1      18.017  26.311  11.229  1.00  0.00     0.000 C
HETATM   43  C21 UNL     1      17.643  27.445  10.337  1.00  0.00     0.000 C
HETATM   44  C22 UNL     1      17.930  26.865   8.933  1.00  0.00     0.006 C
ENDBRANCH  39  40
ENDBRANCH  38  39
BRANCH  38  45
HETATM   45  C23 UNL     1      19.416  24.783   6.096  1.00  0.00     0.223 A
HETATM   46  C24 UNL     1      20.642  25.186   5.325  1.00  0.00     0.038 A
HETATM   47  C25 UNL     1      19.553  26.154   5.469  1.00  0.00     0.038 A
ENDBRANCH  38  45
ENDBRANCH  37  38
ENDBRANCH  33  37
ENDBRANCH  29  30
ENDBRANCH  28  29
ENDBRANCH  26  28
ENDBRANCH   1  26
TORSDOF 17
ENDMDL