MODEL 4
REMARK VINA RESULT: -7.896503873      1.736      2.289
REMARK  17 active torsions:
REMARK  status: ('A' for Active; 'I' for Inactive)
REMARK    1  A    between atoms: C2_2  and  C4_4
REMARK    2  A    between atoms: C8_8  and  C9_9
REMARK       I    between atoms: C9_9  and  N1_11
REMARK    3  A    between atoms: N1_11  and  C10_13
REMARK    4  A    between atoms: C10_13  and  C11_15
REMARK    5  A    between atoms: C11_15  and  O2_16
REMARK    6  A    between atoms: C11_15  and  N2_18
REMARK    7  A    between atoms: N3_21  and  C14_22
REMARK    8  A    between atoms: C14_22  and  C15_23
REMARK    9  A    between atoms: C15_23  and  C16_24
REMARK   10  A    between atoms: C16_24  and  C17_25
REMARK   11  A    between atoms: C17_25  and  C18_26
REMARK   12  A    between atoms: C18_26  and  C19_27
REMARK   13  A    between atoms: C19_27  and  C20_28
REMARK   14  A    between atoms: N4_32  and  C23_33
REMARK   15  A    between atoms: C23_33  and  S1_34
REMARK   16  A    between atoms: S1_34  and  C24_35
REMARK   17  A    between atoms: C24_35  and  C25_36
ROOT
HETATM    1  C9  UNL     1      19.112  32.128  15.780  1.00  0.00     0.243 C
HETATM    2  O1  UNL     1      18.634  31.654  16.837  1.00  0.00    -0.271 OA
HETATM    3  N1  UNL     1      19.693  31.271  14.847  1.00  0.00    -0.325 N
ATOM      4  H1  UNL     1      20.071  31.690  13.997  1.00  0.00     0.165 HD
ENDROOT
BRANCH   3   5
HETATM    5  C10 UNL     1      19.801  29.837  14.986  1.00  0.00     0.321 C
HETATM    6  F1  UNL     1      20.190  29.528  16.257  1.00  0.00    -0.222 F
BRANCH   5   7
HETATM    7  C11 UNL     1      20.690  29.199  13.985  1.00  0.00     0.277 C
BRANCH   7   8
HETATM    8  O2  UNL     1      21.897  28.751  14.548  1.00  0.00    -0.372 OA
ATOM      9  H2  UNL     1      22.350  29.435  15.027  1.00  0.00     0.212 HD
ENDBRANCH   7   8
BRANCH   7  10
HETATM   10  N2  UNL     1      20.079  28.231  13.158  1.00  0.00    -0.337 N
HETATM   11  C12 UNL     1      18.731  27.885  13.357  1.00  0.00     0.086 C
HETATM   12  C13 UNL     1      17.867  27.869  12.092  1.00  0.00     0.167 C
HETATM   13  N3  UNL     1      18.499  27.188  11.032  1.00  0.00    -0.384 N
HETATM   14  C21 UNL     1      19.864  26.914  11.159  1.00  0.00     0.103 C
HETATM   15  C22 UNL     1      20.549  28.073  11.844  1.00  0.00     0.110 C
BRANCH  13  16
HETATM   16  C14 UNL     1      17.957  27.413   9.728  1.00  0.00     0.122 C
BRANCH  16  17
HETATM   17  C15 UNL     1      18.851  27.031   8.604  1.00  0.00     0.020 C
BRANCH  17  18
HETATM   18  C16 UNL     1      18.049  26.707   7.377  1.00  0.00     0.002 C
BRANCH  18  19
HETATM   19  C17 UNL     1      17.119  25.550   7.598  1.00  0.00     0.000 C
BRANCH  19  20
HETATM   20  C18 UNL     1      17.865  24.247   7.483  1.00  0.00     0.001 C
BRANCH  20  21
HETATM   21  C19 UNL     1      17.597  23.355   8.688  1.00  0.00     0.011 C
BRANCH  21  22
HETATM   22  C20 UNL     1      18.621  23.647   9.789  1.00  0.00     0.085 C
HETATM   23 BR1  UNL     1      17.772  23.580  11.515  1.00  0.00    -0.097 Br
ENDBRANCH  21  22
ENDBRANCH  20  21
ENDBRANCH  19  20
ENDBRANCH  18  19
ENDBRANCH  17  18
ENDBRANCH  16  17
ENDBRANCH  13  16
ENDBRANCH   7  10
ENDBRANCH   5   7
ENDBRANCH   3   5
BRANCH   1  24
HETATM   24  C8  UNL     1      19.027  33.592  15.593  1.00  0.00     0.184 C
HETATM   25  C7  UNL     1      17.838  33.993  14.766  1.00  0.00     0.035 C
HETATM   26  C6  UNL     1      16.549  33.372  15.174  1.00  0.00     0.003 C
HETATM   27  C5  UNL     1      16.041  33.765  16.514  1.00  0.00     0.014 C
HETATM   28  C4  UNL     1      16.599  35.061  17.049  1.00  0.00     0.082 C
HETATM   29  C26 UNL     1      17.948  34.781  17.604  1.00  0.00     0.229 C
HETATM   30  N4  UNL     1      19.058  34.315  16.865  1.00  0.00    -0.308 N
HETATM   31  O5  UNL     1      18.159  34.956  18.812  1.00  0.00    -0.273 OA
BRANCH  28  32
HETATM   32  C2  UNL     1      15.639  35.606  18.053  1.00  0.00    -0.010 C
HETATM   33  C1  UNL     1      14.221  35.161  17.782  1.00  0.00     0.010 C
HETATM   34  C3  UNL     1      15.751  37.101  18.243  1.00  0.00     0.010 C
ENDBRANCH  28  32
BRANCH  30  35
HETATM   35  C23 UNL     1      20.364  34.561  17.386  1.00  0.00     0.140 C
BRANCH  35  36
HETATM   36  S1  UNL     1      21.610  35.011  16.192  1.00  0.00    -0.114 SA
BRANCH  36  37
HETATM   37  C24 UNL     1      22.978  33.886  16.032  1.00  0.00     0.193 C
BRANCH  37  38
HETATM   38  C25 UNL     1      22.657  32.802  15.095  1.00  0.00     0.182 C
HETATM   39  O3  UNL     1      22.792  31.603  15.491  1.00  0.00    -0.647 OA
HETATM   40  O4  UNL     1      22.216  33.084  13.806  1.00  0.00    -0.647 OA
ENDBRANCH  37  38
ENDBRANCH  36  37
ENDBRANCH  35  36
ENDBRANCH  30  35
ENDBRANCH   1  24
TORSDOF 17
ENDMDL