MODEL 4
REMARK VINA RESULT: -9.594695093      1.284      1.494
REMARK  15 active torsions:
REMARK  status: ('A' for Active; 'I' for Inactive)
REMARK    1  A    between atoms: C2_2  and  C3_3
REMARK    2  A    between atoms: C3_3  and  C4_4
REMARK    3  A    between atoms: C4_4  and  C5_5
REMARK       I    between atoms: C5_5  and  N1_7
REMARK    4  A    between atoms: N1_7  and  C6_9
REMARK    5  A    between atoms: C9_12  and  C10_13
REMARK    6  A    between atoms: C10_13  and  N2_14
REMARK    7  A    between atoms: N2_14  and  C11_16
REMARK    8  A    between atoms: C11_16  and  C12_17
REMARK    9  A    between atoms: C12_17  and  C14_21
REMARK   10  A    between atoms: C14_21  and  C15_23
REMARK   11  A    between atoms: C15_23  and  N4_25
REMARK       I    between atoms: N4_25  and  C17_27
REMARK   12  A    between atoms: C17_27  and  C18_29
REMARK   13  A    between atoms: C22_34  and  C23_35
REMARK   14  A    between atoms: C23_35  and  C24_36
REMARK   15  A    between atoms: N5_44  and  C31_45
ROOT
HETATM    1  C12 UNL     1      19.330  31.856  14.449  1.00  0.00     0.267 C
HETATM    2  F1  UNL     1      20.019  32.154  15.681  1.00  0.00    -0.216 F
HETATM    3  C13 UNL     1      18.512  30.749  14.501  1.00  0.00     0.113 C
HETATM    4  N3  UNL     1      17.856  29.795  14.533  1.00  0.00    -0.193 NA
ENDROOT
BRANCH   1   5
HETATM    5  C11 UNL     1      18.676  33.238  14.203  1.00  0.00     0.181 C
BRANCH   5   6
HETATM    6  N2  UNL     1      17.395  33.274  14.731  1.00  0.00    -0.416 N
ATOM      7  H2  UNL     1      16.909  32.384  14.839  1.00  0.00     0.153 HD
BRANCH   6   8
HETATM    8  C10 UNL     1      16.716  34.421  15.125  1.00  0.00     0.120 C
BRANCH   8   9
HETATM    9  C9  UNL     1      15.966  34.130  16.453  1.00  0.00     0.026 C
HETATM   10  C6  UNL     1      16.879  34.207  17.684  1.00  0.00     0.090 C
HETATM   11  C7  UNL     1      15.880  35.138  18.329  1.00  0.00     0.026 C
HETATM   12  C8  UNL     1      15.258  35.370  16.959  1.00  0.00     0.010 C
BRANCH  10  13
HETATM   13  N1  UNL     1      18.109  34.825  17.379  1.00  0.00    -0.356 N
HETATM   14  C5  UNL     1      19.213  35.065  18.322  1.00  0.00     0.218 C
HETATM   15  O1  UNL     1      19.013  34.738  19.483  1.00  0.00    -0.274 OA
ATOM     16  H1  UNL     1      18.247  35.134  16.417  1.00  0.00     0.162 HD
BRANCH  14  17
HETATM   17  C4  UNL     1      20.447  35.673  17.819  1.00  0.00     0.106 C
BRANCH  17  18
HETATM   18  C3  UNL     1      20.940  35.178  16.477  1.00  0.00     0.035 C
BRANCH  18  19
HETATM   19  C2  UNL     1      22.368  34.759  16.595  1.00  0.00    -0.036 C
HETATM   20  C1  UNL     1      22.930  34.271  17.666  1.00  0.00     0.007 C
ENDBRANCH  18  19
ENDBRANCH  17  18
ENDBRANCH  14  17
ENDBRANCH  10  13
ENDBRANCH   8   9
ENDBRANCH   6   8
ENDBRANCH   5   6
ENDBRANCH   1   5
BRANCH   1  21
HETATM   21  C14 UNL     1      20.471  31.701  13.439  1.00  0.00     0.204 C
HETATM   22  O2  UNL     1      20.209  32.149  12.301  1.00  0.00    -0.291 OA
BRANCH  21  23
HETATM   23  C15 UNL     1      21.670  31.103  13.788  1.00  0.00     0.155 C
HETATM   24  C16 UNL     1      22.924  31.937  13.843  1.00  0.00     0.040 C
BRANCH  23  25
HETATM   25  N4  UNL     1      22.161  30.249  12.374  1.00  0.00    -0.346 N
HETATM   26  C17 UNL     1      22.111  28.884  13.002  1.00  0.00     0.252 C
HETATM   27  O3  UNL     1      21.710  28.714  14.147  1.00  0.00    -0.268 OA
ATOM     28  H4  UNL     1      22.403  30.563  11.434  1.00  0.00     0.163 HD
BRANCH  26  29
HETATM   29  C18 UNL     1      22.565  27.712  12.229  1.00  0.00     0.035 A
HETATM   30  C19 UNL     1      23.944  27.489  12.092  1.00  0.00     0.059 A
HETATM   31  C20 UNL     1      24.329  26.373  11.349  1.00  0.00     0.117 A
HETATM   32  F2  UNL     1      25.728  26.308  11.220  1.00  0.00    -0.206 F
HETATM   33  C21 UNL     1      23.507  25.494  10.761  1.00  0.00     0.049 A
HETATM   34  C22 UNL     1      22.122  25.757  10.915  1.00  0.00    -0.052 A
HETATM   35  C34 UNL     1      21.697  26.826  11.627  1.00  0.00     0.024 A
BRANCH  34  36
HETATM   36  C23 UNL     1      21.064  24.853  10.363  1.00  0.00     0.074 C
BRANCH  36  37
HETATM   37  C24 UNL     1      20.029  25.654   9.576  1.00  0.00     0.230 C
HETATM   38  C25 UNL     1      20.313  25.396   8.114  1.00  0.00     0.067 C
HETATM   39  C26 UNL     1      20.259  24.028   7.591  1.00  0.00     0.120 C
HETATM   40  C27 UNL     1      21.142  23.927   6.322  1.00  0.00     0.039 C
HETATM   41  O4  UNL     1      18.971  23.600   7.149  1.00  0.00    -0.380 OA
HETATM   42  C28 UNL     1      18.239  23.484   8.338  1.00  0.00     0.146 C
HETATM   43  C29 UNL     1      16.995  22.633   8.198  1.00  0.00     0.041 C
HETATM   44  C30 UNL     1      17.911  24.889   8.766  1.00  0.00     0.304 C
HETATM   45  N5  UNL     1      18.695  25.254   9.909  1.00  0.00     0.099 N
BRANCH  45  46
HETATM   46  C31 UNL     1      17.940  26.191  10.676  1.00  0.00     0.215 C
HETATM   47  C32 UNL     1      18.049  26.051  12.164  1.00  0.00     0.042 C
HETATM   48  C33 UNL     1      18.318  27.597  10.185  1.00  0.00     0.042 C
ENDBRANCH  45  46
ENDBRANCH  36  37
ENDBRANCH  34  36
ENDBRANCH  26  29
ENDBRANCH  23  25
ENDBRANCH  21  23
ENDBRANCH   1  21
TORSDOF 15
ENDMDL