MODEL 4
REMARK VINA RESULT: -8.907036637      1.820      4.141
REMARK  18 active torsions:
REMARK  status: ('A' for Active; 'I' for Inactive)
REMARK    1  A    between atoms: C2_3  and  C3_4
REMARK    2  A    between atoms: C3_4  and  O1_5
REMARK    3  A    between atoms: O1_5  and  C4_6
REMARK    4  A    between atoms: C4_6  and  C5_7
REMARK    5  A    between atoms: C6_11  and  C7_12
REMARK    6  A    between atoms: C7_12  and  O2_13
REMARK    7  A    between atoms: O2_13  and  C8_14
REMARK    8  A    between atoms: C8_14  and  C9_15
REMARK    9  A    between atoms: C9_15  and  O3_16
REMARK   10  A    between atoms: O3_16  and  C10_17
REMARK   11  A    between atoms: C10_17  and  C11_18
REMARK   12  A    between atoms: C11_18  and  O4_19
REMARK   13  A    between atoms: O4_19  and  C12_20
REMARK   14  A    between atoms: C18_28  and  O5_29
REMARK   15  A    between atoms: O5_29  and  C19_30
REMARK   16  A    between atoms: C19_30  and  C20_31
REMARK   17  A    between atoms: C26_37  and  O6_38
REMARK   18  A    between atoms: C27_40  and  O7_41
ROOT
HETATM    1  C5  UNL     1      18.473  29.057  13.991  1.00  0.00     0.241 C
HETATM    2  N2  UNL     1      18.935  30.257  13.314  1.00  0.00    -0.058 N
ATOM      3  H21 UNL     1      18.309  30.523  12.554  1.00  0.00     0.278 HD
ATOM      4  H22 UNL     1      19.777  30.079  12.768  1.00  0.00     0.278 HD
HETATM    5  C6  UNL     1      19.127  31.344  14.248  1.00  0.00     0.241 C
HETATM    6  C18 UNL     1      19.992  31.006  15.407  1.00  0.00     0.185 C
HETATM    7  C26 UNL     1      19.498  29.712  16.055  1.00  0.00     0.180 C
HETATM    8  C27 UNL     1      19.543  28.636  14.919  1.00  0.00     0.182 C
ENDROOT
BRANCH   5   9
HETATM    9  C7  UNL     1      19.577  32.541  13.471  1.00  0.00     0.203 C
BRANCH   9  10
HETATM   10  O2  UNL     1      18.831  33.649  13.840  1.00  0.00    -0.387 OA
BRANCH  10  11
HETATM   11  C8  UNL     1      17.617  33.342  14.416  1.00  0.00     0.193 C
BRANCH  11  12
HETATM   12  C9  UNL     1      16.961  34.513  15.095  1.00  0.00     0.193 C
BRANCH  12  13
HETATM   13  O3  UNL     1      15.721  34.201  15.592  1.00  0.00    -0.387 OA
BRANCH  13  14
HETATM   14  C10 UNL     1      15.789  33.358  16.685  1.00  0.00     0.194 C
BRANCH  14  15
HETATM   15  C11 UNL     1      15.035  33.945  17.871  1.00  0.00     0.202 C
BRANCH  15  16
HETATM   16  O4  UNL     1      15.764  34.723  18.715  1.00  0.00    -0.346 OA
BRANCH  16  17
HETATM   17  C12 UNL     1      16.511  35.826  18.628  1.00  0.00     0.107 A
HETATM   18  C13 UNL     1      16.012  37.094  18.620  1.00  0.00     0.043 A
HETATM   19  C14 UNL     1      16.823  38.223  18.530  1.00  0.00     0.045 A
HETATM   20  C15 UNL     1      18.189  38.063  18.448  1.00  0.00     0.119 A
HETATM   21  F1  UNL     1      18.980  39.158  18.361  1.00  0.00    -0.206 F
HETATM   22  C16 UNL     1      18.739  36.792  18.454  1.00  0.00     0.087 A
HETATM   23  C17 UNL     1      17.908  35.706  18.542  1.00  0.00     0.152 A
HETATM   24  F2  UNL     1      18.470  34.469  18.546  1.00  0.00    -0.203 F
ENDBRANCH  16  17
ENDBRANCH  15  16
ENDBRANCH  14  15
ENDBRANCH  13  14
ENDBRANCH  12  13
ENDBRANCH  11  12
ENDBRANCH  10  11
ENDBRANCH   9  10
ENDBRANCH   5   9
BRANCH   6  25
HETATM   25  O5  UNL     1      19.945  31.970  16.395  1.00  0.00    -0.381 OA
BRANCH  25  26
HETATM   26  C19 UNL     1      21.216  32.351  16.803  1.00  0.00     0.172 C
BRANCH  26  27
HETATM   27  C20 UNL     1      21.345  33.826  17.033  1.00  0.00     0.009 C
HETATM   28  C21 UNL     1      21.728  34.577  15.775  1.00  0.00     0.007 C
HETATM   29  C22 UNL     1      21.509  36.043  16.047  1.00  0.00     0.000 C
HETATM   30  C23 UNL     1      22.249  36.545  17.246  1.00  0.00     0.000 C
HETATM   31  C24 UNL     1      22.190  35.635  18.431  1.00  0.00     0.000 C
HETATM   32  C25 UNL     1      22.351  34.178  18.089  1.00  0.00     0.007 C
ENDBRANCH  26  27
ENDBRANCH  25  26
ENDBRANCH   6  25
BRANCH   1  33
HETATM   33  C4  UNL     1      17.814  28.108  13.093  1.00  0.00     0.203 C
BRANCH  33  34
HETATM   34  O1  UNL     1      18.289  27.716  11.927  1.00  0.00    -0.382 OA
BRANCH  34  35
HETATM   35  C3  UNL     1      18.860  26.556  11.621  1.00  0.00     0.244 C
BRANCH  35  36
HETATM   36  C2  UNL     1      20.347  26.572  11.571  1.00  0.00     0.108 A
HETATM   37  N1  UNL     1      21.169  25.549  11.231  1.00  0.00    -0.337 N
HETATM   38  C1  UNL     1      20.695  24.246  10.861  1.00  0.00     0.158 C
HETATM   39  C33 UNL     1      22.454  25.980  11.306  1.00  0.00     0.062 A
HETATM   40  C28 UNL     1      22.422  27.308  11.704  1.00  0.00     0.060 A
HETATM   41  C32 UNL     1      23.646  25.339  11.064  1.00  0.00     0.032 A
HETATM   42  N3  UNL     1      21.111  27.617  11.852  1.00  0.00    -0.342 N
HETATM   43  C29 UNL     1      23.617  27.979  11.855  1.00  0.00     0.032 A
ATOM     44  H3  UNL     1      20.759  28.530  12.139  1.00  0.00     0.167 HD
HETATM   45  C30 UNL     1      24.823  27.334  11.612  1.00  0.00     0.002 A
HETATM   46  C31 UNL     1      24.847  26.000  11.212  1.00  0.00     0.002 A
ENDBRANCH  35  36
ENDBRANCH  34  35
ENDBRANCH  33  34
ENDBRANCH   1  33
BRANCH   7  47
HETATM   47  O6  UNL     1      20.242  29.315  17.132  1.00  0.00    -0.390 OA
ATOM     48  H6  UNL     1      20.064  29.809  17.924  1.00  0.00     0.210 HD
ENDBRANCH   7  47
BRANCH   8  49
HETATM   49  O7  UNL     1      20.857  28.848  14.410  1.00  0.00    -0.391 OA
ATOM     50  H7  UNL     1      21.374  29.452  14.930  1.00  0.00     0.210 HD
ENDBRANCH   8  49
TORSDOF 18
ENDMDL