MODEL 1
REMARK VINA RESULT: -9.655981265      0.000      0.000
REMARK  19 active torsions:
REMARK  status: ('A' for Active; 'I' for Inactive)
REMARK    1  A    between atoms: C2_2  and  C3_3
REMARK    2  A    between atoms: C3_3  and  C4_4
REMARK    3  A    between atoms: C4_4  and  C5_5
REMARK    4  A    between atoms: C5_5  and  N1_6
REMARK    5  A    between atoms: N1_6  and  C6_7
REMARK       I    between atoms: N1_6  and  C20_25
REMARK    6  A    between atoms: C6_7  and  C7_8
REMARK    7  A    between atoms: C8_9  and  C9_10
REMARK    8  A    between atoms: C9_10  and  C10_11
REMARK    9  A    between atoms: C20_25  and  C21_27
REMARK   10  A    between atoms: C21_27  and  C22_28
REMARK   11  A    between atoms: C22_28  and  C23_29
REMARK   12  A    between atoms: C23_29  and  C24_30
REMARK   13  A    between atoms: C25_31  and  C26_32
REMARK   14  A    between atoms: C26_32  and  O3_33
REMARK   15  A    between atoms: O3_33  and  C27_34
REMARK   16  A    between atoms: C28_36  and  C29_37
REMARK   17  A    between atoms: C31_39  and  O5_40
REMARK   18  A    between atoms: C32_42  and  O6_43
REMARK   19  A    between atoms: C33_45  and  O7_46
ROOT
HETATM    1  N1  UNL     1      20.530  30.280  13.245  1.00  0.00    -0.349 N
HETATM    2  C20 UNL     1      21.101  29.023  12.887  1.00  0.00     0.220 C
HETATM    3  O2  UNL     1      20.653  27.993  13.421  1.00  0.00    -0.273 OA
ENDROOT
BRANCH   1   4
HETATM    4  C5  UNL     1      21.007  31.517  12.670  1.00  0.00     0.126 C
BRANCH   4   5
HETATM    5  C4  UNL     1      21.605  32.379  13.731  1.00  0.00     0.020 C
BRANCH   5   6
HETATM    6  C3  UNL     1      22.941  31.830  14.211  1.00  0.00     0.001 C
BRANCH   6   7
HETATM    7  C2  UNL     1      23.869  32.947  14.630  1.00  0.00    -0.004 C
HETATM    8  C1  UNL     1      23.225  33.631  15.827  1.00  0.00     0.005 C
ENDBRANCH   6   7
ENDBRANCH   5   6
ENDBRANCH   4   5
ENDBRANCH   1   4
BRANCH   1   9
HETATM    9  C6  UNL     1      19.418  30.267  14.194  1.00  0.00     0.152 C
BRANCH   9  10
HETATM   10  C7  UNL     1      18.248  31.041  13.726  1.00  0.00    -0.011 C
HETATM   11  C8  UNL     1      17.302  31.537  14.464  1.00  0.00    -0.024 C
BRANCH  11  12
HETATM   12  C9  UNL     1      17.238  31.406  15.926  1.00  0.00     0.071 C
BRANCH  12  13
HETATM   13  C10 UNL     1      17.352  32.734  16.604  1.00  0.00     0.014 A
HETATM   14  C11 UNL     1      16.182  33.423  16.916  1.00  0.00     0.029 A
HETATM   15  C12 UNL     1      16.252  34.654  17.537  1.00  0.00     0.030 A
HETATM   16  C13 UNL     1      15.104  35.368  17.863  1.00  0.00     0.131 A
HETATM   17  C17 UNL     1      17.468  35.217  17.856  1.00  0.00     0.053 A
HETATM   18  F1  UNL     1      13.926  34.791  17.538  1.00  0.00    -0.205 F
HETATM   19  C14 UNL     1      15.166  36.584  18.477  1.00  0.00     0.085 A
HETATM   20  C15 UNL     1      16.384  37.143  18.794  1.00  0.00     0.121 A
HETATM   21  F2  UNL     1      16.503  38.357  19.407  1.00  0.00    -0.206 F
HETATM   22  C16 UNL     1      17.545  36.453  18.481  1.00  0.00     0.073 A
HETATM   23  N2  UNL     1      18.592  34.543  17.551  1.00  0.00    -0.317 N
HETATM   24  C18 UNL     1      19.855  35.156  17.896  1.00  0.00     0.159 C
HETATM   25  C19 UNL     1      18.536  33.325  16.936  1.00  0.00     0.254 A
HETATM   26  O1  UNL     1      19.611  32.730  16.669  1.00  0.00    -0.267 OA
ENDBRANCH  12  13
ENDBRANCH  11  12
ENDBRANCH   9  10
ENDBRANCH   1   9
BRANCH   2  27
HETATM   27  C21 UNL     1      22.200  28.924  11.908  1.00  0.00     0.103 C
BRANCH  27  28
HETATM   28  C22 UNL     1      23.335  28.053  12.304  1.00  0.00     0.013 C
BRANCH  28  29
HETATM   29  C23 UNL     1      24.318  27.731  11.191  1.00  0.00     0.027 C
BRANCH  29  30
HETATM   30  C24 UNL     1      24.872  26.397  11.476  1.00  0.00    -0.029 C
HETATM   31  C25 UNL     1      24.335  25.287  11.061  1.00  0.00    -0.005 C
BRANCH  31  32
HETATM   32  C26 UNL     1      23.122  25.153  10.262  1.00  0.00     0.198 C
BRANCH  32  33
HETATM   33  O3  UNL     1      22.104  24.626  11.086  1.00  0.00    -0.355 OA
BRANCH  33  34
HETATM   34  C27 UNL     1      20.833  24.833  10.525  1.00  0.00     0.291 C
HETATM   35  O4  UNL     1      20.363  26.050  10.933  1.00  0.00    -0.351 OA
HETATM   36  C28 UNL     1      19.003  26.193  10.896  1.00  0.00     0.155 C
HETATM   37  C31 UNL     1      18.336  25.274   9.895  1.00  0.00     0.178 C
HETATM   38  C32 UNL     1      18.603  23.828  10.203  1.00  0.00     0.183 C
HETATM   39  C33 UNL     1      19.940  23.660  10.839  1.00  0.00     0.204 C
BRANCH  36  40
HETATM   40  C29 UNL     1      18.684  27.616  10.484  1.00  0.00     0.030 C
HETATM   41  C30 UNL     1      17.637  28.234  11.383  1.00  0.00     0.007 C
ENDBRANCH  36  40
BRANCH  37  42
HETATM   42  O5  UNL     1      18.675  25.620   8.589  1.00  0.00    -0.390 OA
ATOM     43  H5  UNL     1      17.902  25.825   8.075  1.00  0.00     0.210 HD
ENDBRANCH  37  42
BRANCH  38  44
HETATM   44  O6  UNL     1      18.588  23.141   8.991  1.00  0.00    -0.390 OA
ATOM     45  H6  UNL     1      18.745  22.225   9.187  1.00  0.00     0.210 HD
ENDBRANCH  38  44
BRANCH  39  46
HETATM   46  O7  UNL     1      19.874  23.380  12.201  1.00  0.00    -0.388 OA
ATOM     47  H7  UNL     1      20.720  23.161  12.574  1.00  0.00     0.210 HD
ENDBRANCH  39  46
ENDBRANCH  33  34
ENDBRANCH  32  33
ENDBRANCH  31  32
ENDBRANCH  29  30
ENDBRANCH  28  29
ENDBRANCH  27  28
ENDBRANCH   2  27
TORSDOF 19
ENDMDL