MODEL 3
REMARK VINA RESULT: -7.378337057      2.258      5.888
REMARK  18 active torsions:
REMARK  status: ('A' for Active; 'I' for Inactive)
REMARK    1  A    between atoms: C2_2  and  C3_3
REMARK    2  A    between atoms: C3_3  and  C4_4
REMARK    3  A    between atoms: C6_6  and  C7_7
REMARK    4  A    between atoms: C12_17  and  C13_18
REMARK       I    between atoms: C13_18  and  N2_20
REMARK    5  A    between atoms: N2_20  and  C14_22
REMARK    6  A    between atoms: C14_22  and  C15_23
REMARK    7  A    between atoms: C15_23  and  C16_24
REMARK    8  A    between atoms: C16_24  and  C17_25
REMARK    9  A    between atoms: C17_25  and  C18_26
REMARK   10  A    between atoms: C18_26  and  C19_27
REMARK   11  A    between atoms: C19_27  and  C20_28
REMARK   12  A    between atoms: C20_28  and  C21_29
REMARK   13  A    between atoms: C21_29  and  C22_30
REMARK   14  A    between atoms: C22_30  and  C23_31
REMARK   15  A    between atoms: C23_31  and  N3_32
REMARK   16  A    between atoms: C25_38  and  C26_39
REMARK   17  A    between atoms: C26_39  and  O5_40
REMARK   18  A    between atoms: O5_40  and  C27_41
ROOT
HETATM    1  C4  UNL     1      19.264  26.724   6.819  1.00  0.00     0.124 C
HETATM    2  C5  UNL     1      17.993  26.911   7.674  1.00  0.00     0.053 C
HETATM    3  C6  UNL     1      18.307  25.888   8.745  1.00  0.00     0.089 C
HETATM    4  C8  UNL     1      18.981  26.652   9.862  1.00  0.00     0.185 C
HETATM    5  C9  UNL     1      18.194  27.612  10.627  1.00  0.00     0.240 C
HETATM    6  O1  UNL     1      17.592  28.692  10.481  1.00  0.00    -0.285 OA
HETATM    7  C10 UNL     1      18.381  26.752  11.777  1.00  0.00     0.292 C
HETATM    8  O2  UNL     1      17.963  26.727  12.940  1.00  0.00    -0.264 OA
HETATM    9  N1  UNL     1      19.275  25.898  11.034  1.00  0.00    -0.331 N
HETATM   10  C11 UNL     1      20.129  24.787  11.233  1.00  0.00     0.149 C
HETATM   11  C12 UNL     1      21.006  24.506  10.091  1.00  0.00     0.168 C
HETATM   12  C24 UNL     1      20.562  24.935   8.778  1.00  0.00     0.179 C
HETATM   13  O4  UNL     1      21.421  25.383   8.088  1.00  0.00    -0.293 OA
HETATM   14  C25 UNL     1      19.204  24.930   8.084  1.00  0.00     0.159 C
HETATM   15  O7  UNL     1      19.440  25.361   6.818  1.00  0.00    -0.364 OA
ENDROOT
BRANCH  11  16
HETATM   16  C13 UNL     1      22.388  24.973  10.375  1.00  0.00     0.230 C
HETATM   17  O3  UNL     1      23.382  24.164  10.363  1.00  0.00    -0.273 OA
HETATM   18  N2  UNL     1      22.685  26.325  10.674  1.00  0.00    -0.360 N
ATOM     19  H2  UNL     1      21.918  26.997  10.695  1.00  0.00     0.162 HD
BRANCH  18  20
HETATM   20  C14 UNL     1      24.018  26.795  10.948  1.00  0.00     0.122 C
BRANCH  20  21
HETATM   21  C15 UNL     1      24.006  27.921  11.942  1.00  0.00     0.020 C
BRANCH  21  22
HETATM   22  C16 UNL     1      22.685  28.664  11.933  1.00  0.00     0.002 C
BRANCH  22  23
HETATM   23  C17 UNL     1      22.161  28.775  13.352  1.00  0.00     0.000 C
BRANCH  23  24
HETATM   24  C18 UNL     1      22.198  30.160  13.879  1.00  0.00     0.000 C
BRANCH  24  25
HETATM   25  C19 UNL     1      21.887  31.288  12.990  1.00  0.00     0.000 C
BRANCH  25  26
HETATM   26  C20 UNL     1      20.549  31.530  12.453  1.00  0.00     0.000 C
BRANCH  26  27
HETATM   27  C21 UNL     1      19.395  31.768  13.348  1.00  0.00     0.002 C
BRANCH  27  28
HETATM   28  C22 UNL     1      18.506  30.491  13.310  1.00  0.00     0.027 C
BRANCH  28  29
HETATM   29  C23 UNL     1      18.310  29.988  14.716  1.00  0.00     0.229 C
BRANCH  29  30
HETATM   30  N3  UNL     1      18.919  28.698  14.918  1.00  0.00    -0.079 N
ATOM     31  H33 UNL     1      19.641  28.516  14.221  1.00  0.00     0.274 HD
ATOM     32  H32 UNL     1      19.500  28.690  15.756  1.00  0.00     0.274 HD
ATOM     33  H31 UNL     1      18.228  27.948  14.940  1.00  0.00     0.274 HD
ENDBRANCH  29  30
ENDBRANCH  28  29
ENDBRANCH  27  28
ENDBRANCH  26  27
ENDBRANCH  25  26
ENDBRANCH  24  25
ENDBRANCH  23  24
ENDBRANCH  22  23
ENDBRANCH  21  22
ENDBRANCH  20  21
ENDBRANCH  18  20
ENDBRANCH  11  16
BRANCH  14  34
HETATM   34  C26 UNL     1      18.784  23.492   8.035  1.00  0.00     0.215 C
BRANCH  34  35
HETATM   35  O5  UNL     1      18.954  22.769   6.920  1.00  0.00    -0.380 OA
BRANCH  35  36
HETATM   36  C27 UNL     1      17.891  22.186   6.301  1.00  0.00     0.148 C
HETATM   37  C28 UNL     1      16.764  21.897   7.330  1.00  0.00     0.136 C
HETATM   38  C29 UNL     1      15.568  21.917   6.441  1.00  0.00     0.222 C
HETATM   39  O6  UNL     1      14.461  21.377   6.688  1.00  0.00    -0.273 OA
HETATM   40  N4  UNL     1      15.853  22.640   5.259  1.00  0.00    -0.354 N
HETATM   41  C30 UNL     1      15.058  22.832   4.065  1.00  0.00     0.152 C
HETATM   42  C31 UNL     1      17.172  23.203   5.445  1.00  0.00     0.157 C
ENDBRANCH  35  36
ENDBRANCH  34  35
ENDBRANCH  14  34
BRANCH   3  43
HETATM   43  C7  UNL     1      17.008  25.293   9.143  1.00  0.00     0.367 C
HETATM   44  F1  UNL     1      17.261  24.066   9.805  1.00  0.00    -0.213 F
HETATM   45  F2  UNL     1      16.155  24.959   8.115  1.00  0.00    -0.213 F
ENDBRANCH   3  43
BRANCH   1  46
HETATM   46  C3  UNL     1      19.081  27.302   5.463  1.00  0.00     0.032 C
BRANCH  46  47
HETATM   47  C2  UNL     1      17.625  27.415   5.124  1.00  0.00    -0.002 C
HETATM   48  C1  UNL     1      17.197  28.744   4.578  1.00  0.00     0.005 C
ENDBRANCH  46  47
ENDBRANCH   1  46
TORSDOF 18
ENDMDL