MODEL 2
REMARK VINA RESULT: -7.495400463      1.236      1.610
REMARK  20 active torsions:
REMARK  status: ('A' for Active; 'I' for Inactive)
REMARK    1  A    between atoms: C2_2  and  C3_3
REMARK    2  A    between atoms: C3_3  and  C4_4
REMARK    3  A    between atoms: C3_3  and  C6_6
REMARK    4  A    between atoms: C7_7  and  C8_8
REMARK    5  A    between atoms: C7_7  and  C11_11
REMARK    6  A    between atoms: C11_11  and  O1_12
REMARK    7  A    between atoms: C11_11  and  C33_48
REMARK    8  A    between atoms: O1_12  and  C12_13
REMARK    9  A    between atoms: C16_19  and  O2_20
REMARK   10  A    between atoms: O2_20  and  C17_21
REMARK   11  A    between atoms: C20_25  and  C21_26
REMARK   12  A    between atoms: C21_26  and  C22_27
REMARK   13  A    between atoms: C22_27  and  C23_28
REMARK   14  A    between atoms: C23_28  and  C24_29
REMARK   15  A    between atoms: C24_29  and  C25_30
REMARK   16  A    between atoms: C25_30  and  C26_32
REMARK   17  A    between atoms: C28_34  and  O5_35
REMARK   18  A    between atoms: C28_34  and  N1_37
REMARK   19  A    between atoms: N1_37  and  C29_39
REMARK   20  A    between atoms: C29_39  and  O6_40
ROOT
HETATM    1  C8  UNL     1      21.456  39.807  14.647  1.00  0.00    -0.069 C
HETATM    2  C9  UNL     1      21.737  39.678  13.488  1.00  0.00    -0.106 C
HETATM    3  C10 UNL     1      22.042  39.502  12.059  1.00  0.00     0.112 C
ENDROOT
BRANCH   1   4
HETATM    4  C7  UNL     1      21.053  39.976  16.079  1.00  0.00     0.031 C
HETATM    5  C6  UNL     1      22.100  40.429  16.956  1.00  0.00     0.001 C
BRANCH   5   6
HETATM    6  C3  UNL     1      23.420  39.833  17.195  1.00  0.00     0.030 C
BRANCH   6   7
HETATM    7  C2  UNL     1      24.580  40.759  16.930  1.00  0.00    -0.028 C
HETATM    8  C1  UNL     1      24.799  41.131  15.682  1.00  0.00     0.007 C
ENDBRANCH   6   7
BRANCH   6   9
HETATM    9  C4  UNL     1      23.480  39.672  18.757  1.00  0.00     0.008 C
HETATM   10  C5  UNL     1      22.433  40.526  19.389  1.00  0.00     0.006 C
ENDBRANCH   6   9
ENDBRANCH   5   6
BRANCH   4  11
HETATM   11  C11 UNL     1      20.056  38.925  16.409  1.00  0.00     0.263 C
BRANCH  11  12
HETATM   12  O1  UNL     1      20.669  38.202  17.485  1.00  0.00    -0.364 OA
BRANCH  12  13
HETATM   13  C12 UNL     1      20.028  36.960  17.678  1.00  0.00     0.138 C
HETATM   14  C13 UNL     1      20.108  36.601  19.106  1.00  0.00     0.112 C
HETATM   15  C14 UNL     1      21.453  35.899  19.277  1.00  0.00     0.253 C
HETATM   16  F1  UNL     1      22.210  36.673  20.171  1.00  0.00    -0.206 F
HETATM   17  F2  UNL     1      21.262  34.656  19.772  1.00  0.00    -0.206 F
HETATM   18  C15 UNL     1      22.137  36.004  17.963  1.00  0.00     0.103 C
HETATM   19  C16 UNL     1      22.797  34.747  17.494  1.00  0.00     0.166 C
HETATM   20  C32 UNL     1      20.923  35.930  17.011  1.00  0.00     0.068 C
HETATM   21  C19 UNL     1      21.613  33.833  17.494  1.00  0.00     0.021 C
HETATM   22  C20 UNL     1      20.474  34.526  17.220  1.00  0.00    -0.011 C
BRANCH  19  23
HETATM   23  O2  UNL     1      23.224  34.894  16.145  1.00  0.00    -0.312 OA
BRANCH  23  24
HETATM   24  C17 UNL     1      23.916  33.947  15.468  1.00  0.00     0.255 C
HETATM   25  C18 UNL     1      23.045  33.037  14.593  1.00  0.00     0.126 C
HETATM   26  O3  UNL     1      25.108  33.767  15.499  1.00  0.00    -0.266 OA
ENDBRANCH  23  24
ENDBRANCH  19  23
BRANCH  22  27
HETATM   27  C21 UNL     1      19.244  33.880  17.172  1.00  0.00    -0.146 C
BRANCH  27  28
HETATM   28  C22 UNL     1      18.141  33.302  17.125  1.00  0.00     0.124 C
BRANCH  28  29
HETATM   29  C23 UNL     1      17.436  32.882  15.837  1.00  0.00     0.143 C
HETATM   30  C30 UNL     1      16.220  33.608  15.509  1.00  0.00     0.068 C
HETATM   31  C31 UNL     1      15.422  32.475  16.089  1.00  0.00     0.236 C
HETATM   32  N2  UNL     1      16.627  31.708  16.233  1.00  0.00    -0.065 N
ATOM     33  H22 UNL     1      16.731  30.828  15.728  1.00  0.00     0.278 HD
ATOM     34  H21 UNL     1      16.822  31.231  17.113  1.00  0.00     0.278 HD
BRANCH  29  35
HETATM   35  C24 UNL     1      18.404  32.481  14.778  1.00  0.00     0.123 C
BRANCH  35  36
HETATM   36  C25 UNL     1      18.684  31.083  14.552  1.00  0.00     0.165 C
HETATM   37  O4  UNL     1      17.828  30.405  13.869  1.00  0.00    -0.292 OA
BRANCH  36  38
HETATM   38  C26 UNL     1      19.823  30.298  14.982  1.00  0.00     0.051 C
HETATM   39  C27 UNL     1      20.035  30.300  16.344  1.00  0.00     0.032 C
HETATM   40  C28 UNL     1      20.704  29.530  14.234  1.00  0.00     0.154 C
BRANCH  40  41
HETATM   41  O5  UNL     1      21.678  28.829  14.825  1.00  0.00    -0.345 OA
ATOM     42  H5  UNL     1      21.746  27.889  14.704  1.00  0.00     0.219 HD
ENDBRANCH  40  41
BRANCH  40  43
HETATM   43  N1  UNL     1      20.802  29.298  12.820  1.00  0.00    -0.327 N
ATOM     44  H1  UNL     1      21.155  30.049  12.228  1.00  0.00     0.169 HD
BRANCH  43  45
HETATM   45  C29 UNL     1      20.440  28.094  12.221  1.00  0.00     0.225 C
BRANCH  45  46
HETATM   46  O6  UNL     1      21.073  27.014  12.662  1.00  0.00    -0.356 OA
ATOM     47  H6  UNL     1      20.539  26.384  13.131  1.00  0.00     0.218 HD
ENDBRANCH  45  46
ENDBRANCH  43  45
ENDBRANCH  40  43
ENDBRANCH  36  38
ENDBRANCH  35  36
ENDBRANCH  29  35
ENDBRANCH  28  29
ENDBRANCH  27  28
ENDBRANCH  22  27
ENDBRANCH  12  13
ENDBRANCH  11  12
BRANCH  11  48
HETATM   48  C33 UNL     1      18.807  39.465  16.928  1.00  0.00     0.208 C
HETATM   49  O7  UNL     1      17.680  39.518  16.412  1.00  0.00    -0.646 OA
HETATM   50  O8  UNL     1      18.871  40.035  18.271  1.00  0.00    -0.646 OA
ENDBRANCH  11  48
ENDBRANCH   4  11
ENDBRANCH   1   4
TORSDOF 20
ENDMDL