MODEL 5
REMARK VINA RESULT: -7.357517958      4.173      9.094
REMARK  18 active torsions:
REMARK  status: ('A' for Active; 'I' for Inactive)
REMARK    1  A    between atoms: C2_2  and  C3_3
REMARK    2  A    between atoms: C11_14  and  C12_15
REMARK    3  A    between atoms: C12_15  and  C13_16
REMARK    4  A    between atoms: C13_16  and  C14_17
REMARK    5  A    between atoms: C14_17  and  C15_18
REMARK    6  A    between atoms: C15_18  and  C16_19
REMARK    7  A    between atoms: C16_19  and  C17_20
REMARK       I    between atoms: C17_20  and  N1_22
REMARK    8  A    between atoms: N1_22  and  C18_24
REMARK    9  A    between atoms: C18_24  and  C19_25
REMARK   10  A    between atoms: C19_25  and  N2_26
REMARK   11  A    between atoms: N2_26  and  C21_28
REMARK   12  A    between atoms: C21_28  and  C22_29
REMARK   13  A    between atoms: C22_29  and  N3_30
REMARK       I    between atoms: N3_30  and  C23_32
REMARK   14  A    between atoms: C23_32  and  O6_34
REMARK   15  A    between atoms: O6_34  and  C24_35
REMARK   16  A    between atoms: C24_35  and  C25_36
REMARK   17  A    between atoms: C26_37  and  C27_38
REMARK   18  A    between atoms: C27_38  and  S1_39
ROOT
HETATM    1  C17 UNL     1      20.569  34.527  17.024  1.00  0.00     0.217 C
HETATM    2  O4  UNL     1      21.033  35.677  16.855  1.00  0.00    -0.274 OA
HETATM    3  N1  UNL     1      19.473  34.338  17.903  1.00  0.00    -0.359 N
ATOM      4  H1  UNL     1      19.130  33.382  17.996  1.00  0.00     0.162 HD
ENDROOT
BRANCH   1   5
HETATM    5  C16 UNL     1      21.170  33.398  16.309  1.00  0.00     0.103 C
BRANCH   5   6
HETATM    6  C15 UNL     1      22.407  33.749  15.510  1.00  0.00     0.009 C
BRANCH   6   7
HETATM    7  C14 UNL     1      22.330  32.917  14.258  1.00  0.00     0.000 C
BRANCH   7   8
HETATM    8  C13 UNL     1      21.473  31.731  14.279  1.00  0.00     0.000 C
BRANCH   8   9
HETATM    9  C12 UNL     1      20.665  31.444  13.070  1.00  0.00     0.008 C
BRANCH   9  10
HETATM   10  C11 UNL     1      19.200  31.774  13.228  1.00  0.00     0.024 C
HETATM   11  C10 UNL     1      18.303  30.803  12.512  1.00  0.00     0.159 C
HETATM   12  C6  UNL     1      17.575  30.010  13.577  1.00  0.00     0.161 C
HETATM   13  O3  UNL     1      18.965  29.813  11.827  1.00  0.00    -0.348 OA
HETATM   14  C5  UNL     1      18.185  30.377  14.907  1.00  0.00     0.048 C
HETATM   15  O2  UNL     1      17.767  28.686  13.248  1.00  0.00    -0.348 OA
HETATM   16  C4  UNL     1      17.104  30.677  15.904  1.00  0.00     0.176 C
HETATM   17  C29 UNL     1      18.715  31.768  14.623  1.00  0.00     0.034 C
HETATM   18  O1  UNL     1      16.772  32.018  15.820  1.00  0.00    -0.381 OA
HETATM   19  C3  UNL     1      17.411  32.549  14.720  1.00  0.00     0.148 C
HETATM   20  C7  UNL     1      18.043  28.755  11.886  1.00  0.00     0.158 C
HETATM   21  C8  UNL     1      18.676  27.480  11.383  1.00  0.00     0.078 C
HETATM   22  C9  UNL     1      16.808  29.025  11.066  1.00  0.00     0.078 C
BRANCH  19  23
HETATM   23  C2  UNL     1      17.579  33.998  14.718  1.00  0.00    -0.005 C
HETATM   24  C1  UNL     1      16.536  34.797  14.815  1.00  0.00     0.009 C
ENDBRANCH  19  23
ENDBRANCH   9  10
ENDBRANCH   8   9
ENDBRANCH   7   8
ENDBRANCH   6   7
ENDBRANCH   5   6
ENDBRANCH   1   5
BRANCH   3  25
HETATM   25  C18 UNL     1      18.798  35.323  18.667  1.00  0.00     0.152 C
BRANCH  25  26
HETATM   26  C19 UNL     1      17.303  35.399  18.429  1.00  0.00     0.291 C
BRANCH  26  27
HETATM   27  N2  UNL     1      16.870  36.761  18.463  1.00  0.00     0.087 N
HETATM   28  C20 UNL     1      15.539  36.883  18.975  1.00  0.00     0.310 C
BRANCH  27  29
HETATM   29  C21 UNL     1      17.037  37.525  17.276  1.00  0.00     0.291 C
BRANCH  29  30
HETATM   30  C22 UNL     1      17.909  38.733  17.587  1.00  0.00     0.155 C
BRANCH  30  31
HETATM   31  N3  UNL     1      18.965  38.865  16.630  1.00  0.00    -0.335 N
HETATM   32  C23 UNL     1      20.317  38.923  17.009  1.00  0.00     0.361 C
HETATM   33  O5  UNL     1      20.659  38.873  18.213  1.00  0.00    -0.238 OA
ATOM     34  H3  UNL     1      18.727  38.917  15.639  1.00  0.00     0.164 HD
BRANCH  32  35
HETATM   35  O6  UNL     1      21.299  39.039  16.012  1.00  0.00    -0.292 OA
BRANCH  35  36
HETATM   36  C24 UNL     1      21.431  40.301  15.387  1.00  0.00     0.274 C
BRANCH  36  37
HETATM   37  C25 UNL     1      21.648  40.013  13.950  1.00  0.00    -0.079 C
HETATM   38  C26 UNL     1      21.849  39.778  12.787  1.00  0.00    -0.094 C
BRANCH  38  39
HETATM   39  C27 UNL     1      22.122  39.493  11.380  1.00  0.00     0.167 C
BRANCH  39  40
HETATM   40  S1  UNL     1      23.903  39.350  11.114  1.00  0.00    -0.161 SA
HETATM   41  C28 UNL     1      24.505  40.830  10.278  1.00  0.00     0.090 C
ENDBRANCH  39  40
ENDBRANCH  38  39
ENDBRANCH  36  37
ENDBRANCH  35  36
ENDBRANCH  32  35
ENDBRANCH  30  31
ENDBRANCH  29  30
ENDBRANCH  27  29
ENDBRANCH  26  27
ENDBRANCH  25  26
ENDBRANCH   3  25
TORSDOF 18
ENDMDL