MODEL 2
REMARK VINA RESULT: -8.792648755      1.282      1.775
REMARK  16 active torsions:
REMARK  status: ('A' for Active; 'I' for Inactive)
REMARK    1  A    between atoms: C2_2  and  C3_3
REMARK    2  A    between atoms: C3_3  and  C4_4
REMARK    3  A    between atoms: C4_4  and  C5_5
REMARK    4  A    between atoms: C5_5  and  C6_6
REMARK    5  A    between atoms: C6_6  and  C7_7
REMARK    6  A    between atoms: N2_12  and  C9_13
REMARK    7  A    between atoms: C9_13  and  C10_14
REMARK    8  A    between atoms: C11_17  and  C12_18
REMARK    9  A    between atoms: C13_19  and  C14_20
REMARK   10  A    between atoms: C14_20  and  C15_21
REMARK   11  A    between atoms: C15_21  and  N4_22
REMARK   12  A    between atoms: N4_22  and  C16_23
REMARK   13  A    between atoms: N4_22  and  C24_37
REMARK   14  A    between atoms: C16_23  and  C17_24
REMARK   15  A    between atoms: C17_24  and  C18_25
REMARK   16  A    between atoms: C22_32  and  O2_33
ROOT
HETATM    1  C15 UNL     1      20.134  28.865  14.614  1.00  0.00     0.128 C
ENDROOT
BRANCH   1   2
HETATM    2  C14 UNL     1      21.603  28.778  14.382  1.00  0.00     0.047 C
BRANCH   2   3
HETATM    3  C13 UNL     1      22.101  28.374  13.069  1.00  0.00    -0.027 C
HETATM    4  C12 UNL     1      21.262  28.078  11.929  1.00  0.00     0.000 C
BRANCH   4   5
HETATM    5  C11 UNL     1      20.308  26.947  11.829  1.00  0.00     0.155 C
HETATM    6  C7  UNL     1      20.960  25.969  10.813  1.00  0.00     0.015 C
HETATM    7  N1  UNL     1      20.324  26.065   9.729  1.00  0.00    -0.338 N
HETATM    8  C8  UNL     1      19.116  26.794   9.864  1.00  0.00     0.175 C
ATOM      9  H1  UNL     1      20.645  25.662   8.848  1.00  0.00     0.168 HD
HETATM   10  S1  UNL     1      18.030  27.154   8.684  1.00  0.00    -0.041 SA
HETATM   11  N2  UNL     1      19.052  27.143  11.244  1.00  0.00    -0.337 N
BRANCH   6  12
HETATM   12  C6  UNL     1      22.228  25.283  11.101  1.00  0.00     0.055 C
BRANCH  12  13
HETATM   13  C5  UNL     1      23.047  25.107   9.862  1.00  0.00     0.006 C
BRANCH  13  14
HETATM   14  C4  UNL     1      24.472  25.581  10.037  1.00  0.00     0.000 C
BRANCH  14  15
HETATM   15  C3  UNL     1      24.785  26.016  11.431  1.00  0.00    -0.000 C
BRANCH  15  16
HETATM   16  C2  UNL     1      25.793  27.113  11.512  1.00  0.00    -0.005 C
HETATM   17  C1  UNL     1      25.694  27.943  12.758  1.00  0.00     0.005 C
ENDBRANCH  15  16
ENDBRANCH  14  15
ENDBRANCH  13  14
ENDBRANCH  12  13
ENDBRANCH   6  12
BRANCH  11  18
HETATM   18  C9  UNL     1      17.793  27.548  11.864  1.00  0.00     0.226 C
BRANCH  18  19
HETATM   19  C10 UNL     1      17.535  28.961  11.481  1.00  0.00     0.249 C
HETATM   20  N3  UNL     1      16.218  29.297  11.050  1.00  0.00    -0.061 NA
HETATM   21  O1  UNL     1      18.473  29.786  11.551  1.00  0.00    -0.275 OA
ENDBRANCH  18  19
ENDBRANCH  11  18
ENDBRANCH   4   5
ENDBRANCH   2   3
ENDBRANCH   1   2
BRANCH   1  22
HETATM   22  N4  UNL     1      19.565  30.159  14.777  1.00  0.00    -0.361 N
BRANCH  22  23
HETATM   23  C16 UNL     1      18.201  30.551  14.836  1.00  0.00     0.131 C
BRANCH  23  24
HETATM   24  C17 UNL     1      17.841  31.009  16.251  1.00  0.00     0.078 C
BRANCH  24  25
HETATM   25  C18 UNL     1      17.096  32.288  16.207  1.00  0.00     0.032 A
HETATM   26  C19 UNL     1      15.835  32.508  15.653  1.00  0.00     0.117 A
HETATM   27  N5  UNL     1      15.525  33.803  15.821  1.00  0.00    -0.330 N
HETATM   28  C20 UNL     1      16.563  34.393  16.465  1.00  0.00     0.226 A
ATOM     29  H5  UNL     1      14.664  34.260  15.519  1.00  0.00     0.168 HD
HETATM   30  N6  UNL     1      17.499  33.452  16.686  1.00  0.00    -0.313 N
HETATM   31  O3  UNL     1      16.807  35.690  16.901  1.00  0.00    -0.319 OA
HETATM   32  C21 UNL     1      18.711  33.874  17.378  1.00  0.00     0.166 C
HETATM   33  C22 UNL     1      18.322  34.801  18.528  1.00  0.00     0.161 C
HETATM   34  C23 UNL     1      17.758  36.051  17.855  1.00  0.00     0.212 C
BRANCH  33  35
HETATM   35  O2  UNL     1      19.423  35.099  19.309  1.00  0.00    -0.392 OA
ATOM     36  H2  UNL     1      19.675  34.349  19.835  1.00  0.00     0.210 HD
ENDBRANCH  33  35
ENDBRANCH  24  25
ENDBRANCH  23  24
ENDBRANCH  22  23
BRANCH  22  37
HETATM   37  C24 UNL     1      20.534  31.240  14.900  1.00  0.00     0.145 A
HETATM   38  C25 UNL     1      21.037  32.029  13.892  1.00  0.00     0.059 A
HETATM   39  C26 UNL     1      21.909  32.898  14.497  1.00  0.00     0.036 A
HETATM   40  C27 UNL     1      21.876  32.574  15.836  1.00  0.00     0.051 A
HETATM   41  C28 UNL     1      22.646  33.220  16.938  1.00  0.00     0.077 C
HETATM   42  O4  UNL     1      21.039  31.574  16.042  1.00  0.00    -0.299 OA
ENDBRANCH  22  37
ENDBRANCH   1  22
TORSDOF 16
ENDMDL