MODEL 5
REMARK VINA RESULT: -8.345453469      1.834      8.599
REMARK  17 active torsions:
REMARK  status: ('A' for Active; 'I' for Inactive)
REMARK    1  A    between atoms: C3_5  and  C4_6
REMARK    2  A    between atoms: C4_6  and  O1_7
REMARK    3  A    between atoms: C4_6  and  C5_9
REMARK    4  A    between atoms: C5_9  and  C6_10
REMARK    5  A    between atoms: C5_9  and  C16_27
REMARK    6  A    between atoms: C6_10  and  C7_11
REMARK    7  A    between atoms: C7_11  and  C8_12
REMARK    8  A    between atoms: C11_15  and  N2_16
REMARK       I    between atoms: N2_16  and  C12_18
REMARK    9  A    between atoms: C12_18  and  C13_20
REMARK   10  A    between atoms: C13_20  and  C14_21
REMARK   11  A    between atoms: C14_21  and  C15_22
REMARK   12  A    between atoms: C15_22  and  N3_23
REMARK   13  A    between atoms: C16_27  and  N4_28
REMARK   14  A    between atoms: N4_28  and  C18_30
REMARK   15  A    between atoms: C18_30  and  C19_31
REMARK   16  A    between atoms: C19_31  and  C20_32
REMARK   17  A    between atoms: C20_32  and  N5_33
ROOT
HETATM    1  C5  UNL     1      17.369  32.026  15.156  1.00  0.00    -0.015 C
ENDROOT
BRANCH   1   2
HETATM    2  C4  UNL     1      18.516  31.528  15.894  1.00  0.00     0.115 C
BRANCH   2   3
HETATM    3  C3  UNL     1      19.907  31.827  15.894  1.00  0.00     0.161 A
HETATM    4  N1  UNL     1      20.627  32.420  14.874  1.00  0.00    -0.321 N
HETATM    5  C2  UNL     1      21.887  32.543  15.315  1.00  0.00     0.144 A
ATOM      6  H1  UNL     1      20.269  32.708  13.964  1.00  0.00     0.169 HD
HETATM    7  C1  UNL     1      23.029  33.129  14.559  1.00  0.00     0.100 C
HETATM    8  O4  UNL     1      21.982  32.074  16.514  1.00  0.00    -0.223 OA
HETATM    9  N6  UNL     1      20.820  31.660  16.838  1.00  0.00    -0.241 N
ATOM     10  H6  UNL     1      20.613  31.237  17.744  1.00  0.00     0.196 HD
ENDBRANCH   2   3
BRANCH   2  11
HETATM   11  O1  UNL     1      18.180  30.593  16.758  1.00  0.00    -0.357 OA
ATOM     12  H1  UNL     1      18.554  29.742  16.560  1.00  0.00     0.218 HD
ENDBRANCH   2  11
ENDBRANCH   1   2
BRANCH   1  13
HETATM   13  C6  UNL     1      16.979  31.436  13.858  1.00  0.00     0.039 C
BRANCH  13  14
HETATM   14  C7  UNL     1      17.906  30.485  13.159  1.00  0.00     0.011 C
BRANCH  14  15
HETATM   15  C8  UNL     1      17.386  29.081  13.345  1.00  0.00     0.009 C
HETATM   16  C9  UNL     1      17.355  28.277  12.037  1.00  0.00     0.009 C
HETATM   17  C10 UNL     1      17.696  27.072  12.887  1.00  0.00     0.026 C
HETATM   18  C11 UNL     1      18.392  28.064  13.840  1.00  0.00     0.088 C
BRANCH  18  19
HETATM   19  N2  UNL     1      19.751  28.220  13.376  1.00  0.00    -0.356 N
HETATM   20  C12 UNL     1      20.791  28.579  14.265  1.00  0.00     0.217 C
HETATM   21  O2  UNL     1      20.482  28.760  15.482  1.00  0.00    -0.274 OA
ATOM     22  H2  UNL     1      19.964  28.068  12.390  1.00  0.00     0.162 HD
BRANCH  20  23
HETATM   23  C13 UNL     1      22.196  28.758  13.898  1.00  0.00     0.104 C
BRANCH  23  24
HETATM   24  C14 UNL     1      22.423  28.574  12.407  1.00  0.00     0.036 C
BRANCH  24  25
HETATM   25  C15 UNL     1      23.202  27.314  12.121  1.00  0.00     0.230 C
BRANCH  25  26
HETATM   26  N3  UNL     1      22.243  26.300  11.720  1.00  0.00    -0.079 N
ATOM     27  H33 UNL     1      21.704  25.927  12.502  1.00  0.00     0.274 HD
ATOM     28  H32 UNL     1      21.459  26.679  11.189  1.00  0.00     0.274 HD
ATOM     29  H31 UNL     1      22.759  25.582  11.212  1.00  0.00     0.274 HD
ENDBRANCH  25  26
ENDBRANCH  24  25
ENDBRANCH  23  24
ENDBRANCH  20  23
ENDBRANCH  18  19
ENDBRANCH  14  15
ENDBRANCH  13  14
ENDBRANCH   1  13
BRANCH   1  30
HETATM   30  C16 UNL     1      17.027  33.448  15.417  1.00  0.00     0.309 C
BRANCH  30  31
HETATM   31  N4  UNL     1      16.852  33.919  16.773  1.00  0.00     0.088 N
HETATM   32  C17 UNL     1      15.512  33.361  17.106  1.00  0.00     0.310 C
BRANCH  31  33
HETATM   33  C18 UNL     1      16.857  35.316  16.833  1.00  0.00     0.283 C
BRANCH  33  34
HETATM   34  C19 UNL     1      17.360  36.072  18.024  1.00  0.00     0.002 C
HETATM   35  C26 UNL     1      16.135  36.169  18.949  1.00  0.00     0.013 C
HETATM   36  C27 UNL     1      15.048  37.067  18.408  1.00  0.00     0.001 C
HETATM   37  C28 UNL     1      15.667  38.453  18.356  1.00  0.00     0.000 C
HETATM   38  C29 UNL     1      16.738  38.396  17.301  1.00  0.00     0.001 C
HETATM   39  C30 UNL     1      17.853  37.445  17.668  1.00  0.00     0.013 C
BRANCH  34  40
HETATM   40  C20 UNL     1      18.386  35.316  18.777  1.00  0.00     0.137 C
BRANCH  40  41
HETATM   41  N5  UNL     1      19.753  35.389  18.337  1.00  0.00    -0.351 N
HETATM   42  C21 UNL     1      20.190  35.205  16.943  1.00  0.00     0.126 C
HETATM   43  C22 UNL     1      21.230  36.304  16.732  1.00  0.00     0.020 C
HETATM   44  C23 UNL     1      22.497  35.882  17.421  1.00  0.00     0.011 C
HETATM   45  C24 UNL     1      22.215  35.400  18.813  1.00  0.00     0.103 C
HETATM   46  C25 UNL     1      20.822  35.683  19.227  1.00  0.00     0.219 C
HETATM   47  O3  UNL     1      20.612  36.174  20.351  1.00  0.00    -0.273 OA
ENDBRANCH  40  41
ENDBRANCH  34  40
ENDBRANCH  33  34
ENDBRANCH  31  33
ENDBRANCH  30  31
ENDBRANCH   1  30
TORSDOF 17
ENDMDL