MODEL 3
REMARK VINA RESULT: -7.036849181      0.978      1.194
REMARK  18 active torsions:
REMARK  status: ('A' for Active; 'I' for Inactive)
REMARK    1  A    between atoms: C2_2  and  C3_3
REMARK    2  A    between atoms: C3_3  and  N1_4
REMARK    3  A    between atoms: C14_15  and  O1_16
REMARK    4  A    between atoms: C18_21  and  C19_22
REMARK    5  A    between atoms: C19_22  and  O3_23
REMARK    6  A    between atoms: O3_23  and  C20_24
REMARK    7  A    between atoms: C20_24  and  C21_26
REMARK    8  A    between atoms: C21_26  and  C22_27
REMARK    9  A    between atoms: C22_27  and  C23_28
REMARK   10  A    between atoms: C23_28  and  C24_29
REMARK   11  A    between atoms: C24_29  and  C25_30
REMARK   12  A    between atoms: C25_30  and  C26_31
REMARK   13  A    between atoms: C26_31  and  C27_32
REMARK   14  A    between atoms: C27_32  and  C28_33
REMARK   15  A    between atoms: C28_33  and  N2_34
REMARK   16  A    between atoms: C29_38  and  O5_39
REMARK   17  A    between atoms: C30_41  and  O6_42
REMARK   18  A    between atoms: O6_42  and  C31_43
ROOT
HETATM    1  N1  UNL     1      19.357  27.987  11.498  1.00  0.00    -0.343 N
HETATM    2  C4  UNL     1      20.484  28.722  11.145  1.00  0.00     0.067 C
HETATM    3  C5  UNL     1      20.508  30.163  11.494  1.00  0.00     0.058 C
HETATM    4  C6  UNL     1      20.232  30.472  12.957  1.00  0.00     0.009 C
HETATM    5  C7  UNL     1      21.341  31.208  13.543  1.00  0.00     0.030 C
HETATM    6  C8  UNL     1      22.456  30.188  13.852  1.00  0.00     0.009 C
HETATM    7  C9  UNL     1      21.963  29.458  15.102  1.00  0.00     0.013 C
HETATM    8  C10 UNL     1      20.411  29.491  15.140  1.00  0.00    -0.005 C
HETATM    9  C11 UNL     1      20.036  28.444  16.140  1.00  0.00     0.019 C
HETATM   10  C12 UNL     1      20.015  29.181  13.750  1.00  0.00     0.020 C
HETATM   11  C13 UNL     1      18.572  29.384  13.364  1.00  0.00     0.079 C
HETATM   12  C14 UNL     1      18.254  28.644  12.094  1.00  0.00     0.233 C
HETATM   13  C16 UNL     1      18.864  30.768  13.150  1.00  0.00     0.105 A
HETATM   14  O2  UNL     1      18.510  31.987  13.044  1.00  0.00    -0.367 OA
HETATM   15  C17 UNL     1      18.121  31.450  14.167  1.00  0.00     0.167 A
HETATM   16  C18 UNL     1      18.645  31.229  15.493  1.00  0.00     0.080 C
HETATM   17  C29 UNL     1      20.121  30.917  15.600  1.00  0.00     0.100 C
HETATM   18  C30 UNL     1      21.039  31.834  14.898  1.00  0.00     0.162 C
ENDROOT
BRANCH  16  19
HETATM   19  C19 UNL     1      18.106  31.984  16.660  1.00  0.00     0.189 C
BRANCH  19  20
HETATM   20  O3  UNL     1      17.290  33.055  16.504  1.00  0.00    -0.321 OA
BRANCH  20  21
HETATM   21  C20 UNL     1      15.950  33.169  16.529  1.00  0.00     0.258 C
HETATM   22  O4  UNL     1      15.248  32.138  16.408  1.00  0.00    -0.265 OA
BRANCH  21  23
HETATM   23  C21 UNL     1      15.201  34.466  16.695  1.00  0.00     0.111 C
BRANCH  23  24
HETATM   24  C22 UNL     1      15.051  34.714  18.192  1.00  0.00     0.010 C
BRANCH  24  25
HETATM   25  C23 UNL     1      15.136  36.173  18.557  1.00  0.00     0.000 C
BRANCH  25  26
HETATM   26  C24 UNL     1      16.104  36.883  17.645  1.00  0.00     0.000 C
BRANCH  26  27
HETATM   27  C25 UNL     1      17.443  37.151  18.236  1.00  0.00     0.000 C
BRANCH  27  28
HETATM   28  C26 UNL     1      18.497  36.174  17.776  1.00  0.00     0.002 C
BRANCH  28  29
HETATM   29  C27 UNL     1      18.938  35.259  18.898  1.00  0.00     0.027 C
BRANCH  29  30
HETATM   30  C28 UNL     1      20.271  35.672  19.471  1.00  0.00     0.229 C
BRANCH  30  31
HETATM   31  N2  UNL     1      20.647  34.873  20.620  1.00  0.00    -0.079 N
ATOM     32  H23 UNL     1      20.353  33.904  20.507  1.00  0.00     0.274 HD
ATOM     33  H22 UNL     1      21.657  34.735  20.656  1.00  0.00     0.274 HD
ATOM     34  H21 UNL     1      20.298  35.264  21.495  1.00  0.00     0.274 HD
ENDBRANCH  30  31
ENDBRANCH  29  30
ENDBRANCH  28  29
ENDBRANCH  27  28
ENDBRANCH  26  27
ENDBRANCH  25  26
ENDBRANCH  24  25
ENDBRANCH  23  24
ENDBRANCH  21  23
ENDBRANCH  20  21
ENDBRANCH  19  20
ENDBRANCH  16  19
BRANCH  17  35
HETATM   35  O5  UNL     1      20.413  30.941  16.977  1.00  0.00    -0.386 OA
ATOM     36  H5  UNL     1      19.575  30.870  17.419  1.00  0.00     0.210 HD
ENDBRANCH  17  35
BRANCH  18  37
HETATM   37  O6  UNL     1      20.658  33.125  14.735  1.00  0.00    -0.383 OA
BRANCH  37  38
HETATM   38  C31 UNL     1      21.175  34.012  15.678  1.00  0.00     0.164 C
HETATM   39  C32 UNL     1      22.558  33.668  16.141  1.00  0.00     0.033 C
ENDBRANCH  37  38
ENDBRANCH  18  37
BRANCH  12  40
HETATM   40  O1  UNL     1      17.662  29.556  11.217  1.00  0.00    -0.371 OA
HETATM   41  C15 UNL     1      16.395  29.185  10.810  1.00  0.00     0.204 C
ENDBRANCH  12  40
BRANCH   1  42
HETATM   42  C3  UNL     1      19.462  26.592  11.626  1.00  0.00     0.092 C
BRANCH  42  43
HETATM   43  C2  UNL     1      18.155  25.890  11.493  1.00  0.00     0.007 C
HETATM   44  C1  UNL     1      17.739  25.439  10.309  1.00  0.00     0.012 C
ENDBRANCH  42  43
ENDBRANCH   1  42
TORSDOF 18
ENDMDL