MODEL 2
REMARK VINA RESULT: -8.291516825      2.166      3.920
REMARK  15 active torsions:
REMARK  status: ('A' for Active; 'I' for Inactive)
REMARK    1  A    between atoms: C2_2  and  C3_3
REMARK    2  A    between atoms: C3_3  and  C4_4
REMARK    3  A    between atoms: C4_4  and  C5_5
REMARK    4  A    between atoms: C5_5  and  C6_6
REMARK    5  A    between atoms: C6_6  and  C7_7
REMARK    6  A    between atoms: C7_7  and  C8_8
REMARK    7  A    between atoms: C8_8  and  C9_9
REMARK    8  A    between atoms: C9_9  and  C10_10
REMARK    9  A    between atoms: C10_10  and  N1_11
REMARK       I    between atoms: N1_11  and  C11_13
REMARK   10  A    between atoms: C11_13  and  C12_15
REMARK   11  A    between atoms: C12_15  and  N2_16
REMARK   12  A    between atoms: C15_20  and  N3_21
REMARK   13  A    between atoms: N3_21  and  S1_23
REMARK   14  A    between atoms: S1_23  and  N4_26
REMARK   15  A    between atoms: N5_32  and  C21_33
ROOT
HETATM    1  N2  UNL     1      20.771  28.384  13.411  1.00  0.00    -0.257 N
HETATM    2  C13 UNL     1      19.478  28.561  13.102  1.00  0.00     0.255 A
HETATM    3  O2  UNL     1      18.697  29.056  13.933  1.00  0.00    -0.268 OA
HETATM    4  C14 UNL     1      19.016  28.184  11.839  1.00  0.00     0.124 A
HETATM    5  C15 UNL     1      19.923  27.641  10.956  1.00  0.00     0.128 A
HETATM    6  N5  UNL     1      21.227  27.473  11.293  1.00  0.00    -0.272 N
HETATM    7  C27 UNL     1      21.641  27.845  12.513  1.00  0.00     0.334 A
HETATM    8  O6  UNL     1      22.820  27.714  12.869  1.00  0.00    -0.246 OA
ENDROOT
BRANCH   1   9
HETATM    9  C12 UNL     1      21.192  28.779  14.734  1.00  0.00     0.239 C
BRANCH   9  10
HETATM   10  C11 UNL     1      21.265  30.273  14.858  1.00  0.00     0.236 C
HETATM   11  N1  UNL     1      20.564  30.884  15.907  1.00  0.00    -0.360 N
ATOM     12  H1  UNL     1      20.075  30.238  16.526  1.00  0.00     0.162 HD
HETATM   13  O1  UNL     1      21.940  30.900  14.029  1.00  0.00    -0.272 OA
BRANCH  11  14
HETATM   14  C10 UNL     1      20.422  32.254  16.249  1.00  0.00     0.122 C
BRANCH  14  15
HETATM   15  C9  UNL     1      19.193  32.997  15.878  1.00  0.00     0.020 C
BRANCH  15  16
HETATM   16  C8  UNL     1      18.704  32.922  14.485  1.00  0.00     0.002 C
BRANCH  16  17
HETATM   17  C7  UNL     1      17.311  32.261  14.438  1.00  0.00     0.000 C
BRANCH  17  18
HETATM   18  C6  UNL     1      16.921  31.746  15.780  1.00  0.00     0.000 C
BRANCH  18  19
HETATM   19  C5  UNL     1      15.557  32.273  16.201  1.00  0.00     0.000 C
BRANCH  19  20
HETATM   20  C4  UNL     1      15.545  33.763  16.369  1.00  0.00     0.000 C
BRANCH  20  21
HETATM   21  C3  UNL     1      15.187  34.177  17.789  1.00  0.00    -0.000 C
BRANCH  21  22
HETATM   22  C2  UNL     1      14.366  35.433  17.810  1.00  0.00    -0.005 C
HETATM   23  C1  UNL     1      15.104  36.511  18.601  1.00  0.00     0.005 C
ENDBRANCH  21  22
ENDBRANCH  20  21
ENDBRANCH  19  20
ENDBRANCH  18  19
ENDBRANCH  17  18
ENDBRANCH  16  17
ENDBRANCH  15  16
ENDBRANCH  14  15
ENDBRANCH  11  14
ENDBRANCH   9  10
ENDBRANCH   1   9
BRANCH   6  24
HETATM   24  C21 UNL     1      22.130  26.924  10.342  1.00  0.00     0.165 C
HETATM   25  C22 UNL     1      23.437  27.702  10.262  1.00  0.00     0.034 C
HETATM   26  C23 UNL     1      24.641  26.790  10.225  1.00  0.00     0.003 C
HETATM   27  C24 UNL     1      24.498  25.700   9.205  1.00  0.00     0.007 C
HETATM   28  C25 UNL     1      23.277  24.852   9.425  1.00  0.00     0.080 C
HETATM   29  C26 UNL     1      22.472  25.498  10.524  1.00  0.00     0.150 C
HETATM   30  O5  UNL     1      22.161  24.805  11.475  1.00  0.00    -0.296 OA
ENDBRANCH   6  24
BRANCH   5  31
HETATM   31  N3  UNL     1      19.477  27.274   9.668  1.00  0.00    -0.252 N
ATOM     32  H3  UNL     1      19.765  27.836   8.867  1.00  0.00     0.182 HD
BRANCH  31  33
HETATM   33  S1  UNL     1      18.473  25.921   9.407  1.00  0.00     0.329 S
HETATM   34  O3  UNL     1      18.646  24.903  10.528  1.00  0.00    -0.182 OA
HETATM   35  O4  UNL     1      17.005  26.328   9.493  1.00  0.00    -0.182 OA
BRANCH  33  36
HETATM   36  N4  UNL     1      18.679  25.114   7.948  1.00  0.00    -0.253 N
HETATM   37  C16 UNL     1      19.974  24.965   7.432  1.00  0.00     0.082 C
HETATM   38  C17 UNL     1      20.114  24.720   5.970  1.00  0.00     0.046 C
HETATM   39  C18 UNL     1      18.992  25.441   5.254  1.00  0.00     0.010 C
HETATM   40  C19 UNL     1      17.713  24.778   5.715  1.00  0.00     0.046 C
HETATM   41  C20 UNL     1      17.558  24.761   7.191  1.00  0.00     0.082 C
ENDBRANCH  33  36
ENDBRANCH  31  33
ENDBRANCH   5  31
TORSDOF 15
ENDMDL