MODEL 3
REMARK VINA RESULT: -8.076333091      2.326     11.036
REMARK  15 active torsions:
REMARK  status: ('A' for Active; 'I' for Inactive)
REMARK    1  A    between atoms: C2_2  and  N1_3
REMARK    2  A    between atoms: N1_3  and  C3_6
REMARK    3  A    between atoms: C3_6  and  C4_7
REMARK    4  A    between atoms: C4_7  and  C5_8
REMARK    5  A    between atoms: C5_8  and  C6_9
REMARK    6  A    between atoms: C6_9  and  C7_10
REMARK    7  A    between atoms: C7_10  and  C8_11
REMARK    8  A    between atoms: C7_10  and  O6_29
REMARK    9  A    between atoms: C8_11  and  N2_12
REMARK   10  A    between atoms: O6_29  and  C20_30
REMARK   11  A    between atoms: C20_30  and  C21_31
REMARK   12  A    between atoms: C22_32  and  C23_33
REMARK   13  A    between atoms: C23_33  and  C24_34
REMARK   14  A    between atoms: C24_34  and  C25_35
REMARK       I    between atoms: C25_35  and  N3_37
REMARK   15  A    between atoms: N3_37  and  C26_39
ROOT
HETATM    1  C7  UNL     1      18.542  30.434  13.579  1.00  0.00     0.137 C
ENDROOT
BRANCH   1   2
HETATM    2  C6  UNL     1      17.234  30.110  12.959  1.00  0.00     0.033 C
BRANCH   2   3
HETATM    3  C5  UNL     1      17.148  29.363  11.698  1.00  0.00     0.004 C
BRANCH   3   4
HETATM    4  C4  UNL     1      18.148  28.269  11.510  1.00  0.00     0.027 C
BRANCH   4   5
HETATM    5  C3  UNL     1      18.182  27.790  10.059  1.00  0.00     0.232 C
BRANCH   5   6
HETATM    6  N1  UNL     1      19.359  27.058   9.725  1.00  0.00    -0.075 N
ATOM      7  H12 UNL     1      19.992  27.010  10.523  1.00  0.00     0.277 HD
ATOM      8  H11 UNL     1      19.941  27.588   9.076  1.00  0.00     0.277 HD
BRANCH   6   9
HETATM    9  C2  UNL     1      19.093  25.730   9.204  1.00  0.00     0.228 C
HETATM   10  C1  UNL     1      17.626  25.415   9.187  1.00  0.00     0.034 C
ENDBRANCH   6   9
ENDBRANCH   5   6
ENDBRANCH   4   5
ENDBRANCH   3   4
ENDBRANCH   2   3
ENDBRANCH   1   2
BRANCH   1  11
HETATM   11  C8  UNL     1      18.161  30.808  15.065  1.00  0.00     0.152 C
BRANCH  11  12
HETATM   12  N2  UNL     1      18.268  32.245  15.235  1.00  0.00    -0.193 NA
HETATM   13  C9  UNL     1      18.890  32.448  16.529  1.00  0.00     0.147 C
HETATM   14  C10 UNL     1      20.255  33.097  16.427  1.00  0.00     0.184 C
HETATM   15  O1  UNL     1      20.167  34.472  16.235  1.00  0.00    -0.388 OA
HETATM   16  C11 UNL     1      20.688  35.174  17.346  1.00  0.00     0.193 C
HETATM   17  C12 UNL     1      20.155  36.588  17.397  1.00  0.00     0.193 C
HETATM   18  O2  UNL     1      19.201  36.703  18.417  1.00  0.00    -0.387 OA
HETATM   19  C13 UNL     1      18.756  37.991  18.581  1.00  0.00     0.193 C
HETATM   20  C14 UNL     1      17.334  38.221  18.145  1.00  0.00     0.193 C
HETATM   21  O3  UNL     1      16.386  37.776  19.029  1.00  0.00    -0.387 OA
HETATM   22  C15 UNL     1      16.113  36.432  18.997  1.00  0.00     0.193 C
HETATM   23  C16 UNL     1      14.774  36.085  18.408  1.00  0.00     0.193 C
HETATM   24  O4  UNL     1      14.806  35.947  17.022  1.00  0.00    -0.389 OA
HETATM   25  C17 UNL     1      15.417  34.781  16.611  1.00  0.00     0.169 C
HETATM   26  C18 UNL     1      16.546  35.152  15.687  1.00  0.00     0.054 C
HETATM   27  C19 UNL     1      16.910  34.033  14.749  1.00  0.00     0.196 C
HETATM   28  O5  UNL     1      17.021  32.801  15.343  1.00  0.00    -0.303 OA
ENDBRANCH  11  12
ENDBRANCH   1  11
BRANCH   1  29
HETATM   29  O6  UNL     1      19.118  31.554  13.109  1.00  0.00    -0.381 OA
BRANCH  29  30
HETATM   30  C20 UNL     1      20.404  31.409  12.556  1.00  0.00     0.195 C
BRANCH  30  31
HETATM   31  C21 UNL     1      21.490  31.593  13.509  1.00  0.00    -0.005 C
HETATM   32  C22 UNL     1      21.941  30.565  14.422  1.00  0.00    -0.028 C
BRANCH  32  33
HETATM   33  C23 UNL     1      22.481  29.267  14.038  1.00  0.00     0.036 C
BRANCH  33  34
HETATM   34  C24 UNL     1      21.533  28.240  13.507  1.00  0.00     0.106 C
BRANCH  34  35
HETATM   35  C25 UNL     1      21.942  27.869  12.096  1.00  0.00     0.218 C
HETATM   36  O7  UNL     1      21.530  28.602  11.177  1.00  0.00    -0.274 OA
HETATM   37  N3  UNL     1      22.748  26.745  11.855  1.00  0.00    -0.356 N
ATOM     38  H3  UNL     1      23.060  26.174  12.642  1.00  0.00     0.162 HD
BRANCH  37  39
HETATM   39  C26 UNL     1      23.141  26.385  10.527  1.00  0.00     0.084 C
HETATM   40  C27 UNL     1      24.663  26.260  10.423  1.00  0.00     0.025 C
HETATM   41  C28 UNL     1      24.778  25.484   9.103  1.00  0.00     0.002 C
HETATM   42  C29 UNL     1      23.694  24.417   9.225  1.00  0.00     0.002 C
HETATM   43  C30 UNL     1      22.684  24.993  10.172  1.00  0.00     0.025 C
ENDBRANCH  37  39
ENDBRANCH  34  35
ENDBRANCH  33  34
ENDBRANCH  32  33
ENDBRANCH  30  31
ENDBRANCH  29  30
ENDBRANCH   1  29
TORSDOF 15
ENDMDL