MODEL 5
REMARK VINA RESULT: -7.907731575      1.102      1.449
REMARK  19 active torsions:
REMARK  status: ('A' for Active; 'I' for Inactive)
REMARK    1  A    between atoms: C2_2  and  C3_3
REMARK    2  A    between atoms: C3_3  and  C4_4
REMARK    3  A    between atoms: C4_4  and  C5_5
REMARK    4  A    between atoms: C5_5  and  C6_6
REMARK    5  A    between atoms: C6_6  and  C7_7
REMARK    6  A    between atoms: C7_7  and  C8_8
REMARK    7  A    between atoms: C8_8  and  C9_9
REMARK    8  A    between atoms: C9_9  and  C10_10
REMARK    9  A    between atoms: C11_11  and  C12_12
REMARK   10  A    between atoms: N2_16  and  C14_17
REMARK   11  A    between atoms: C15_19  and  C16_20
REMARK   12  A    between atoms: C16_20  and  C17_21
REMARK       I    between atoms: C17_21  and  N3_23
REMARK   13  A    between atoms: N3_23  and  C18_24
REMARK   14  A    between atoms: N3_23  and  C26_33
REMARK   15  A    between atoms: C18_24  and  C19_25
REMARK   16  A    between atoms: C19_25  and  N4_26
REMARK   17  A    between atoms: C26_33  and  C27_34
REMARK   18  A    between atoms: C30_37  and  O3_38
REMARK   19  A    between atoms: C31_40  and  O4_41
ROOT
HETATM    1  C14 UNL     1      18.503  31.077  16.584  1.00  0.00     0.276 C
HETATM    2  O1  UNL     1      17.914  30.691  15.413  1.00  0.00    -0.354 OA
HETATM    3  C15 UNL     1      18.720  29.775  14.784  1.00  0.00     0.164 C
HETATM    4  C30 UNL     1      20.060  29.753  15.427  1.00  0.00     0.180 C
HETATM    5  C31 UNL     1      19.777  30.320  16.793  1.00  0.00     0.199 C
ENDROOT
BRANCH   1   6
HETATM    6  N2  UNL     1      18.725  32.518  16.486  1.00  0.00    -0.254 N
HETATM    7  C13 UNL     1      18.753  33.172  15.302  1.00  0.00     0.205 A
HETATM    8  N1  UNL     1      18.976  34.469  15.534  1.00  0.00    -0.329 N
HETATM    9  C12 UNL     1      19.090  34.642  16.887  1.00  0.00     0.177 A
ATOM     10  H1  UNL     1      19.048  35.202  14.827  1.00  0.00     0.168 HD
HETATM   11  N5  UNL     1      18.929  33.427  17.407  1.00  0.00    -0.273 N
ATOM     12  H5  UNL     1      18.961  33.227  18.406  1.00  0.00     0.189 HD
BRANCH   9  13
HETATM   13  C11 UNL     1      19.334  35.910  17.536  1.00  0.00    -0.029 C
HETATM   14  C10 UNL     1      19.513  36.965  18.088  1.00  0.00    -0.098 C
BRANCH  14  15
HETATM   15  C9  UNL     1      19.703  38.248  18.769  1.00  0.00     0.094 C
BRANCH  15  16
HETATM   16  C8  UNL     1      18.621  39.198  18.236  1.00  0.00     0.012 C
BRANCH  16  17
HETATM   17  C7  UNL     1      17.314  38.752  18.875  1.00  0.00     0.001 C
BRANCH  17  18
HETATM   18  C6  UNL     1      16.214  38.660  17.852  1.00  0.00     0.000 C
BRANCH  18  19
HETATM   19  C5  UNL     1      15.266  37.560  18.185  1.00  0.00     0.000 C
BRANCH  19  20
HETATM   20  C4  UNL     1      15.703  36.284  17.551  1.00  0.00     0.000 C
BRANCH  20  21
HETATM   21  C3  UNL     1      15.784  35.132  18.561  1.00  0.00    -0.000 C
BRANCH  21  22
HETATM   22  C2  UNL     1      15.381  33.894  17.752  1.00  0.00    -0.005 C
HETATM   23  C1  UNL     1      15.394  34.240  16.279  1.00  0.00     0.005 C
ENDBRANCH  21  22
ENDBRANCH  20  21
ENDBRANCH  19  20
ENDBRANCH  18  19
ENDBRANCH  17  18
ENDBRANCH  16  17
ENDBRANCH  15  16
ENDBRANCH  14  15
ENDBRANCH   9  13
ENDBRANCH   1   6
BRANCH   5  24
HETATM   24  O4  UNL     1      20.830  31.097  17.268  1.00  0.00    -0.388 OA
ATOM     25  H4  UNL     1      21.448  30.624  17.812  1.00  0.00     0.210 HD
ENDBRANCH   5  24
BRANCH   3  26
HETATM   26  C16 UNL     1      18.758  30.112  13.310  1.00  0.00     0.138 C
BRANCH  26  27
HETATM   27  C17 UNL     1      19.893  29.622  12.569  1.00  0.00     0.230 C
HETATM   28  O2  UNL     1      20.800  30.506  12.323  1.00  0.00    -0.273 OA
HETATM   29  N3  UNL     1      20.180  28.320  12.054  1.00  0.00    -0.302 N
BRANCH  29  30
HETATM   30  C18 UNL     1      21.381  28.248  11.278  1.00  0.00     0.116 C
BRANCH  30  31
HETATM   31  C19 UNL     1      22.356  27.182  11.414  1.00  0.00     0.103 C
BRANCH  31  32
HETATM   32  N4  UNL     1      22.661  26.223  10.459  1.00  0.00    -0.389 N
HETATM   33  C20 UNL     1      21.578  25.645   9.756  1.00  0.00     0.122 C
HETATM   34  C21 UNL     1      21.872  24.503   8.854  1.00  0.00     0.024 C
HETATM   35  C22 UNL     1      23.124  24.688   8.077  1.00  0.00    -0.015 C
HETATM   36  C23 UNL     1      24.035  23.500   8.306  1.00  0.00     0.010 C
HETATM   37  C24 UNL     1      23.833  25.990   8.370  1.00  0.00     0.024 C
HETATM   38  C25 UNL     1      23.935  26.227   9.850  1.00  0.00     0.122 C
ENDBRANCH  31  32
ENDBRANCH  30  31
ENDBRANCH  29  30
BRANCH  29  39
HETATM   39  C26 UNL     1      19.255  27.276  12.186  1.00  0.00     0.101 C
BRANCH  39  40
HETATM   40  C27 UNL     1      18.166  26.920  11.301  1.00  0.00    -0.072 C
HETATM   41  C28 UNL     1      17.915  27.636  10.035  1.00  0.00     0.044 C
HETATM   42  C29 UNL     1      17.949  25.439  11.012  1.00  0.00     0.044 C
ENDBRANCH  39  40
ENDBRANCH  29  39
ENDBRANCH  26  27
ENDBRANCH   3  26
BRANCH   4  43
HETATM   43  O3  UNL     1      20.587  28.458  15.529  1.00  0.00    -0.390 OA
ATOM     44  H3  UNL     1      20.051  27.887  16.066  1.00  0.00     0.210 HD
ENDBRANCH   4  43
TORSDOF 19
ENDMDL