MODEL 5
REMARK VINA RESULT: -7.790782153      2.135      2.953
REMARK  15 active torsions:
REMARK  status: ('A' for Active; 'I' for Inactive)
REMARK    1  A    between atoms: C2_2  and  C3_3
REMARK    2  A    between atoms: C3_3  and  C4_4
REMARK    3  A    between atoms: C4_4  and  C5_5
REMARK    4  A    between atoms: C6_6  and  O1_7
REMARK    5  A    between atoms: O1_7  and  C7_8
REMARK    6  A    between atoms: C7_8  and  C8_9
REMARK    7  A    between atoms: C8_9  and  C9_10
REMARK    8  A    between atoms: C9_10  and  O2_11
REMARK    9  A    between atoms: O2_11  and  C10_12
REMARK   10  A    between atoms: C10_12  and  C11_13
REMARK   11  A    between atoms: C11_13  and  O3_14
REMARK   12  A    between atoms: O3_14  and  C12_15
REMARK   13  A    between atoms: C12_15  and  C13_16
REMARK   14  A    between atoms: N2_24  and  C19_25
REMARK   15  A    between atoms: C22_31  and  N4_32
ROOT
HETATM    1  O1  UNL     1      19.067  32.476  13.387  1.00  0.00    -0.335 OA
ENDROOT
BRANCH   1   2
HETATM    2  C6  UNL     1      19.608  31.209  13.301  1.00  0.00     0.169 A
HETATM    3  C5  UNL     1      20.880  30.997  13.778  1.00  0.00     0.062 A
HETATM    4  C27 UNL     1      21.369  29.685  13.666  1.00  0.00     0.270 A
HETATM    5  N5  UNL     1      20.613  28.723  13.119  1.00  0.00    -0.155 N
HETATM    6  O6  UNL     1      22.536  29.468  14.100  1.00  0.00    -0.267 OA
HETATM    7  C22 UNL     1      19.374  28.932  12.653  1.00  0.00     0.692 A
ATOM      8  H5  UNL     1      21.001  27.782  13.053  1.00  0.00     0.187 HD
HETATM    9  N3  UNL     1      18.896  30.177  12.754  1.00  0.00    -0.169 N
ATOM     10  H3  UNL     1      17.956  30.367  12.406  1.00  0.00     0.186 HD
BRANCH   3  11
HETATM   11  C4  UNL     1      21.765  32.021  14.366  1.00  0.00     0.049 C
BRANCH  11  12
HETATM   12  C3  UNL     1      21.535  32.381  15.776  1.00  0.00     0.004 C
BRANCH  12  13
HETATM   13  C2  UNL     1      21.291  33.806  16.117  1.00  0.00    -0.004 C
HETATM   14  C1  UNL     1      22.193  34.241  17.301  1.00  0.00     0.005 C
ENDBRANCH  12  13
ENDBRANCH  11  12
ENDBRANCH   3  11
BRANCH   7  15
HETATM   15  N4  UNL     1      18.559  27.883  12.082  1.00  0.00    -0.140 N
HETATM   16  C23 UNL     1      18.168  26.753  12.903  1.00  0.00     0.225 C
HETATM   17  S1  UNL     1      18.015  25.432  11.668  1.00  0.00    -0.134 SA
HETATM   18  C24 UNL     1      18.214  26.464  10.161  1.00  0.00     0.138 C
HETATM   19  C25 UNL     1      17.136  26.146   9.146  1.00  0.00     0.031 C
HETATM   20  C26 UNL     1      18.057  27.807  10.766  1.00  0.00     0.252 C
HETATM   21  O5  UNL     1      17.535  28.824  10.206  1.00  0.00    -0.271 OA
ENDBRANCH   7  15
ENDBRANCH   1   2
BRANCH   1  22
HETATM   22  C7  UNL     1      17.899  32.821  14.069  1.00  0.00     0.179 C
BRANCH  22  23
HETATM   23  C8  UNL     1      17.886  32.548  15.539  1.00  0.00     0.053 C
BRANCH  23  24
HETATM   24  C9  UNL     1      16.658  31.763  15.922  1.00  0.00     0.169 C
BRANCH  24  25
HETATM   25  O2  UNL     1      15.662  32.572  16.415  1.00  0.00    -0.389 OA
BRANCH  25  26
HETATM   26  C10 UNL     1      16.179  33.594  17.178  1.00  0.00     0.193 C
BRANCH  26  27
HETATM   27  C11 UNL     1      14.959  34.270  17.830  1.00  0.00     0.194 C
BRANCH  27  28
HETATM   28  O3  UNL     1      15.443  34.956  18.922  1.00  0.00    -0.383 OA
BRANCH  28  29
HETATM   29  C12 UNL     1      15.254  36.303  18.797  1.00  0.00     0.224 C
BRANCH  29  30
HETATM   30  C13 UNL     1      16.502  36.999  18.437  1.00  0.00     0.034 A
HETATM   31  C14 UNL     1      16.615  38.127  17.617  1.00  0.00     0.046 A
HETATM   32  C15 UNL     1      17.953  38.439  17.499  1.00  0.00     0.056 A
HETATM   33  C16 UNL     1      18.652  37.520  18.237  1.00  0.00     0.026 A
HETATM   34  C21 UNL     1      18.681  39.463  16.728  1.00  0.00     0.255 C
HETATM   35  N1  UNL     1      17.740  36.661  18.792  1.00  0.00    -0.360 N
HETATM   36  C17 UNL     1      20.123  37.617  18.333  1.00  0.00     0.078 C
ATOM     37  H1  UNL     1      17.977  35.872  19.393  1.00  0.00     0.165 HD
HETATM   38  C18 UNL     1      20.738  38.234  17.118  1.00  0.00     0.132 C
HETATM   39  N2  UNL     1      20.103  39.476  16.757  1.00  0.00    -0.348 N
HETATM   40  O4  UNL     1      18.023  40.285  16.073  1.00  0.00    -0.267 OA
BRANCH  39  41
HETATM   41  C19 UNL     1      20.846  40.657  16.420  1.00  0.00     0.121 C
HETATM   42  C20 UNL     1      22.162  40.417  15.759  1.00  0.00     0.026 C
ENDBRANCH  39  41
ENDBRANCH  29  30
ENDBRANCH  28  29
ENDBRANCH  27  28
ENDBRANCH  26  27
ENDBRANCH  25  26
ENDBRANCH  24  25
ENDBRANCH  23  24
ENDBRANCH  22  23
ENDBRANCH   1  22
TORSDOF 15
ENDMDL