MODEL 3
REMARK VINA RESULT: -8.315265203      1.532      2.118
REMARK  16 active torsions:
REMARK  status: ('A' for Active; 'I' for Inactive)
REMARK    1  A    between atoms: N1_2  and  C2_3
REMARK    2  A    between atoms: N1_2  and  C24_36
REMARK    3  A    between atoms: C5_7  and  N2_8
REMARK    4  A    between atoms: N2_8  and  C6_11
REMARK    5  A    between atoms: C6_11  and  C7_12
REMARK    6  A    between atoms: C7_12  and  C8_13
REMARK    7  A    between atoms: C8_13  and  C9_14
REMARK    8  A    between atoms: C9_14  and  C10_15
REMARK    9  A    between atoms: C10_15  and  C11_16
REMARK   10  A    between atoms: C11_16  and  C12_17
REMARK   11  A    between atoms: C12_17  and  C13_18
REMARK   12  A    between atoms: C13_18  and  C14_19
REMARK   13  A    between atoms: C14_19  and  C15_20
REMARK   14  A    between atoms: C15_20  and  C16_21
REMARK   15  A    between atoms: C16_21  and  C17_22
REMARK   16  A    between atoms: C17_22  and  S1_23
ROOT
HETATM    1  C2  UNL     1      21.237  27.559  13.282  1.00  0.00     0.119 C
HETATM    2  C3  UNL     1      20.232  28.418  13.382  1.00  0.00     0.074 C
HETATM    3  O1  UNL     1      19.810  28.870  14.642  1.00  0.00    -0.345 OA
HETATM    4  C4  UNL     1      19.126  30.112  14.769  1.00  0.00     0.178 C
HETATM    5  C5  UNL     1      20.009  31.305  14.678  1.00  0.00     0.314 C
HETATM    6  C18 UNL     1      20.376  31.740  13.328  1.00  0.00     0.295 C
HETATM    7  O5  UNL     1      21.397  32.471  13.184  1.00  0.00    -0.263 OA
HETATM    8  O6  UNL     1      19.620  31.364  12.190  1.00  0.00    -0.280 OA
HETATM    9  C19 UNL     1      18.865  30.233  12.358  1.00  0.00     0.191 C
HETATM   10  O7  UNL     1      17.969  29.788  11.431  1.00  0.00    -0.347 OA
HETATM   11  C20 UNL     1      18.131  28.517  12.060  1.00  0.00     0.141 C
HETATM   12  C21 UNL     1      17.540  28.719  13.427  1.00  0.00     0.045 C
HETATM   13  C22 UNL     1      18.105  30.142  13.670  1.00  0.00     0.084 C
HETATM   14  C23 UNL     1      19.557  28.899  12.193  1.00  0.00     0.136 C
ENDROOT
BRANCH   5  15
HETATM   15  N2  UNL     1      21.218  31.144  15.468  1.00  0.00    -0.059 N
ATOM     16  H22 UNL     1      21.412  30.161  15.665  1.00  0.00     0.278 HD
ATOM     17  H21 UNL     1      22.055  31.359  14.926  1.00  0.00     0.278 HD
BRANCH  15  18
HETATM   18  C6  UNL     1      21.150  31.933  16.687  1.00  0.00     0.233 C
BRANCH  18  19
HETATM   19  C7  UNL     1      22.256  32.956  16.748  1.00  0.00     0.027 C
BRANCH  19  20
HETATM   20  C8  UNL     1      21.810  34.266  16.115  1.00  0.00     0.002 C
BRANCH  20  21
HETATM   21  C9  UNL     1      22.240  35.380  17.037  1.00  0.00     0.000 C
BRANCH  21  22
HETATM   22  C10 UNL     1      22.164  34.924  18.502  1.00  0.00     0.000 C
BRANCH  22  23
HETATM   23  C11 UNL     1      21.320  35.842  19.313  1.00  0.00     0.000 C
BRANCH  23  24
HETATM   24  C12 UNL     1      19.991  36.132  18.762  1.00  0.00     0.000 C
BRANCH  24  25
HETATM   25  C13 UNL     1      18.847  35.248  18.966  1.00  0.00     0.000 C
BRANCH  25  26
HETATM   26  C14 UNL     1      18.519  34.172  18.021  1.00  0.00     0.000 C
BRANCH  26  27
HETATM   27  C15 UNL     1      18.169  34.515  16.632  1.00  0.00     0.001 C
BRANCH  27  28
HETATM   28  C16 UNL     1      16.664  34.481  16.379  1.00  0.00     0.018 C
BRANCH  28  29
HETATM   29  C17 UNL     1      16.070  35.855  16.577  1.00  0.00     0.165 C
BRANCH  29  30
HETATM   30  S1  UNL     1      15.160  35.836  18.104  1.00  0.00     0.101 S
HETATM   31  O2  UNL     1      13.722  36.136  17.770  1.00  0.00    -0.595 OA
HETATM   32  O3  UNL     1      15.701  36.831  19.059  1.00  0.00    -0.595 OA
HETATM   33  O4  UNL     1      15.210  34.300  18.777  1.00  0.00    -0.595 OA
ENDBRANCH  29  30
ENDBRANCH  28  29
ENDBRANCH  27  28
ENDBRANCH  26  27
ENDBRANCH  25  26
ENDBRANCH  24  25
ENDBRANCH  23  24
ENDBRANCH  22  23
ENDBRANCH  21  22
ENDBRANCH  20  21
ENDBRANCH  19  20
ENDBRANCH  18  19
ENDBRANCH  15  18
ENDBRANCH   5  15
BRANCH   1  34
HETATM   34  N1  UNL     1      21.754  27.032  12.084  1.00  0.00    -0.380 N
HETATM   35  C1  UNL     1      21.029  25.974  11.420  1.00  0.00     0.150 C
BRANCH  34  36
HETATM   36  C24 UNL     1      22.968  27.534  11.537  1.00  0.00     0.153 C
HETATM   37  C25 UNL     1      22.807  28.025  10.108  1.00  0.00     0.033 C
HETATM   38  C26 UNL     1      24.229  28.052   9.575  1.00  0.00     0.010 C
HETATM   39  C27 UNL     1      25.049  27.157  10.477  1.00  0.00     0.080 C
HETATM   40  C28 UNL     1      24.046  26.543  11.371  1.00  0.00     0.149 C
HETATM   41  O8  UNL     1      24.113  25.449  11.857  1.00  0.00    -0.296 OA
ENDBRANCH  34  36
ENDBRANCH   1  34
TORSDOF 16
ENDMDL