MODEL 5
REMARK VINA RESULT: -7.786320485      1.982      4.000
REMARK  17 active torsions:
REMARK  status: ('A' for Active; 'I' for Inactive)
REMARK    1  A    between atoms: C2_2  and  C3_3
REMARK    2  A    between atoms: C3_3  and  N1_4
REMARK       I    between atoms: N1_4  and  C4_5
REMARK    3  A    between atoms: N1_4  and  C10_15
REMARK    4  A    between atoms: C4_5  and  O2_7
REMARK    5  A    between atoms: O2_7  and  C5_8
REMARK    6  A    between atoms: C5_8  and  C6_9
REMARK    7  A    between atoms: C8_11  and  C9_12
REMARK    8  A    between atoms: C9_12  and  O3_13
REMARK    9  A    between atoms: C13_18  and  C14_19
REMARK       I    between atoms: C14_19  and  N2_21
REMARK   10  A    between atoms: N2_21  and  C15_22
REMARK   11  A    between atoms: N2_21  and  C17_24
REMARK   12  A    between atoms: C17_24  and  C18_25
REMARK   13  A    between atoms: C18_25  and  C19_26
REMARK   14  A    between atoms: C19_26  and  C20_27
REMARK   15  A    between atoms: C20_27  and  C21_28
REMARK   16  A    between atoms: C21_28  and  C22_29
REMARK   17  A    between atoms: C22_29  and  N3_30
ROOT
HETATM    1  C10 UNL     1      20.541  30.189  13.389  1.00  0.00     0.115 C
HETATM    2  C11 UNL     1      19.967  31.431  12.812  1.00  0.00     0.029 C
HETATM    3  C12 UNL     1      18.866  32.115  13.504  1.00  0.00     0.045 C
HETATM    4  C13 UNL     1      18.737  31.961  14.969  1.00  0.00     0.277 C
HETATM    5  N4  UNL     1      19.938  31.254  15.461  1.00  0.00    -0.060 N
ATOM      6  H41 UNL     1      19.962  31.178  16.478  1.00  0.00     0.278 HD
ATOM      7  H42 UNL     1      20.793  31.799  15.344  1.00  0.00     0.278 HD
HETATM    8  C31 UNL     1      20.001  29.947  14.792  1.00  0.00     0.258 C
ENDROOT
BRANCH   4   9
HETATM    9  C14 UNL     1      18.602  33.252  15.704  1.00  0.00     0.251 C
HETATM   10  O4  UNL     1      19.559  34.038  15.522  1.00  0.00    -0.271 OA
HETATM   11  N2  UNL     1      17.553  33.644  16.546  1.00  0.00    -0.341 N
BRANCH  11  12
HETATM   12  C15 UNL     1      16.436  32.743  16.752  1.00  0.00     0.122 C
HETATM   13  C16 UNL     1      15.372  32.773  15.711  1.00  0.00     0.026 C
ENDBRANCH  11  12
BRANCH  11  14
HETATM   14  C17 UNL     1      17.629  34.956  17.224  1.00  0.00     0.035 C
HETATM   15  C27 UNL     1      16.957  35.995  16.407  1.00  0.00     0.031 C
HETATM   16  C28 UNL     1      15.877  36.669  17.217  1.00  0.00     0.002 C
HETATM   17  C29 UNL     1      15.865  35.977  18.528  1.00  0.00     0.002 C
HETATM   18  C30 UNL     1      16.785  34.809  18.501  1.00  0.00     0.031 C
BRANCH  14  19
HETATM   19  C18 UNL     1      19.014  35.185  17.677  1.00  0.00     0.031 C
BRANCH  19  20
HETATM   20  C19 UNL     1      19.417  35.259  19.071  1.00  0.00     0.002 C
BRANCH  20  21
HETATM   21  C20 UNL     1      20.467  36.206  19.514  1.00  0.00     0.002 C
BRANCH  21  22
HETATM   22  C21 UNL     1      21.195  36.840  18.311  1.00  0.00     0.019 C
BRANCH  22  23
HETATM   23  C22 UNL     1      20.848  38.326  18.398  1.00  0.00     0.117 C
BRANCH  23  24
HETATM   24  N3  UNL     1      19.971  38.613  17.304  1.00  0.00    -0.408 N
HETATM   25  C23 UNL     1      18.678  39.003  17.744  1.00  0.00     0.143 C
HETATM   26  C24 UNL     1      18.129  40.258  17.155  1.00  0.00     0.187 C
HETATM   27  O5  UNL     1      18.575  40.551  15.888  1.00  0.00    -0.388 OA
HETATM   28  C25 UNL     1      19.976  40.709  15.993  1.00  0.00     0.187 C
HETATM   29  C26 UNL     1      20.541  39.347  16.228  1.00  0.00     0.143 C
ENDBRANCH  23  24
ENDBRANCH  22  23
ENDBRANCH  21  22
ENDBRANCH  20  21
ENDBRANCH  19  20
ENDBRANCH  14  19
ENDBRANCH  11  14
ENDBRANCH   4   9
BRANCH   1  30
HETATM   30  N1  UNL     1      20.561  29.038  12.536  1.00  0.00    -0.322 N
HETATM   31  C4  UNL     1      21.715  28.207  12.587  1.00  0.00     0.363 C
HETATM   32  O1  UNL     1      22.678  28.436  13.381  1.00  0.00    -0.238 OA
BRANCH  30  33
HETATM   33  C3  UNL     1      19.506  28.708  11.612  1.00  0.00     0.128 C
BRANCH  33  34
HETATM   34  C2  UNL     1      18.247  28.273  12.273  1.00  0.00     0.015 C
HETATM   35  C1  UNL     1      17.068  29.164  11.852  1.00  0.00     0.006 C
ENDBRANCH  33  34
ENDBRANCH  30  33
BRANCH  31  36
HETATM   36  O2  UNL     1      21.833  27.102  11.763  1.00  0.00    -0.304 OA
BRANCH  36  37
HETATM   37  C5  UNL     1      22.832  27.085  10.776  1.00  0.00     0.185 C
BRANCH  37  38
HETATM   38  C6  UNL     1      23.927  26.115  10.931  1.00  0.00     0.016 A
HETATM   39  C7  UNL     1      25.063  26.091   9.921  1.00  0.00     0.014 A
HETATM   40  C8  UNL     1      25.276  26.307  11.422  1.00  0.00     0.016 A
BRANCH  40  41
HETATM   41  C9  UNL     1      25.866  27.609  11.821  1.00  0.00     0.169 C
BRANCH  41  42
HETATM   42  O3  UNL     1      25.671  27.888  13.187  1.00  0.00    -0.400 OA
ATOM     43  H3  UNL     1      26.312  27.456  13.739  1.00  0.00     0.209 HD
ENDBRANCH  41  42
ENDBRANCH  40  41
ENDBRANCH  37  38
ENDBRANCH  36  37
ENDBRANCH  31  36
ENDBRANCH   1  30
TORSDOF 17
ENDMDL