MODEL 5
REMARK VINA RESULT: -7.895107804      1.163      1.667
REMARK  16 active torsions:
REMARK  status: ('A' for Active; 'I' for Inactive)
REMARK    1  A    between atoms: C1_2  and  C2_4
REMARK    2  A    between atoms: C2_4  and  N1_5
REMARK    3  A    between atoms: N1_5  and  C3_6
REMARK       I    between atoms: N1_5  and  C5_10
REMARK    4  A    between atoms: C3_6  and  C4_7
REMARK    5  A    between atoms: C5_10  and  C6_12
REMARK    6  A    between atoms: C6_12  and  C7_13
REMARK    7  A    between atoms: C7_13  and  C8_14
REMARK    8  A    between atoms: C8_14  and  N2_15
REMARK    9  A    between atoms: C8_14  and  C23_36
REMARK       I    between atoms: N2_15  and  C9_17
REMARK   10  A    between atoms: C9_17  and  C10_19
REMARK   11  A    between atoms: C12_21  and  O7_22
REMARK   12  A    between atoms: O7_22  and  C13_23
REMARK   13  A    between atoms: C13_23  and  C14_24
REMARK       I    between atoms: N3_28  and  C18_29
REMARK   14  A    between atoms: C18_29  and  O9_31
REMARK   15  A    between atoms: O9_31  and  C19_32
REMARK   16  A    between atoms: C19_32  and  C20_33
ROOT
HETATM    1  N2  UNL     1      -7.215  -2.600 -13.675  1.00  0.00    -0.354 N
ATOM      2  H2  UNL     1      -7.109  -3.378 -13.023  1.00  0.00     0.162 HD
HETATM    3  C9  UNL     1      -7.769  -2.807 -14.958  1.00  0.00     0.241 C
HETATM    4  O6  UNL     1      -7.886  -1.840 -15.742  1.00  0.00    -0.271 OA
ENDROOT
BRANCH   1   5
HETATM    5  C8  UNL     1      -6.800  -1.257 -13.301  1.00  0.00     0.089 C
BRANCH   5   6
HETATM    6  C7  UNL     1      -7.261  -0.891 -11.934  1.00  0.00     0.034 C
BRANCH   6   7
HETATM    7  C6  UNL     1      -8.254   0.247 -12.041  1.00  0.00     0.105 C
BRANCH   7   8
HETATM    8  C5  UNL     1      -7.549   1.565 -12.106  1.00  0.00     0.220 C
HETATM    9  N1  UNL     1      -6.933   2.108 -10.947  1.00  0.00    -0.332 N
HETATM   10  O5  UNL     1      -7.532   2.152 -13.218  1.00  0.00    -0.273 OA
BRANCH   9  11
HETATM   11  C2  UNL     1      -6.950   1.430  -9.686  1.00  0.00     0.239 C
BRANCH  11  12
HETATM   12  C1  UNL     1      -7.474   2.299  -8.590  1.00  0.00     0.191 C
HETATM   13  O1  UNL     1      -6.881   2.379  -7.489  1.00  0.00    -0.647 OA
HETATM   14  O2  UNL     1      -8.632   3.042  -8.757  1.00  0.00    -0.647 OA
ENDBRANCH  11  12
ENDBRANCH   9  11
BRANCH   9  15
HETATM   15  C3  UNL     1      -6.275   3.393 -11.076  1.00  0.00     0.239 C
BRANCH  15  16
HETATM   16  C4  UNL     1      -4.833   3.316 -10.847  1.00  0.00     0.191 C
HETATM   17  O3  UNL     1      -4.058   3.011 -11.783  1.00  0.00    -0.647 OA
HETATM   18  O4  UNL     1      -4.300   3.576  -9.600  1.00  0.00    -0.647 OA
ENDBRANCH  15  16
ENDBRANCH   9  15
ENDBRANCH   7   8
ENDBRANCH   6   7
ENDBRANCH   5   6
BRANCH   5  19
HETATM   19  C23 UNL     1      -5.302  -1.220 -13.459  1.00  0.00     0.008 C
HETATM   20  C24 UNL     1      -4.902   0.122 -14.028  1.00  0.00     0.007 C
HETATM   21  C25 UNL     1      -3.384   0.153 -14.248  1.00  0.00     0.000 C
HETATM   22  C26 UNL     1      -2.758   0.126 -12.890  1.00  0.00     0.000 C
HETATM   23  C27 UNL     1      -3.560  -0.488 -11.809  1.00  0.00     0.000 C
HETATM   24  C28 UNL     1      -4.537  -1.552 -12.211  1.00  0.00     0.007 C
ENDBRANCH   5  19
ENDBRANCH   1   5
BRANCH   3  25
HETATM   25  C10 UNL     1      -8.192  -4.176 -15.334  1.00  0.00     0.184 C
HETATM   26  C11 UNL     1      -9.651  -4.203 -15.718  1.00  0.00     0.068 C
HETATM   27  C12 UNL     1      -9.729  -4.656 -17.145  1.00  0.00     0.142 C
HETATM   28  C17 UNL     1      -8.309  -4.855 -17.617  1.00  0.00     0.161 C
HETATM   29  N3  UNL     1      -7.457  -4.674 -16.474  1.00  0.00    -0.312 N
HETATM   30  C18 UNL     1      -6.073  -4.951 -16.464  1.00  0.00     0.363 C
HETATM   31  O8  UNL     1      -5.491  -5.376 -17.473  1.00  0.00    -0.238 OA
BRANCH  27  32
HETATM   32  O7  UNL     1     -10.481  -5.799 -17.199  1.00  0.00    -0.384 OA
BRANCH  32  33
HETATM   33  C13 UNL     1     -10.183  -6.574 -18.308  1.00  0.00     0.172 C
BRANCH  33  34
HETATM   34  C14 UNL     1     -10.052  -8.034 -17.944  1.00  0.00     0.009 A
HETATM   35  C15 UNL     1      -8.855  -8.461 -17.141  1.00  0.00     0.007 A
HETATM   36  C16 UNL     1      -8.874  -8.790 -18.583  1.00  0.00     0.007 A
ENDBRANCH  33  34
ENDBRANCH  32  33
ENDBRANCH  27  32
BRANCH  30  37
HETATM   37  O9  UNL     1      -5.350  -4.748 -15.321  1.00  0.00    -0.304 OA
BRANCH  37  38
HETATM   38  C19 UNL     1      -3.983  -5.043 -15.148  1.00  0.00     0.185 C
BRANCH  38  39
HETATM   39  C20 UNL     1      -3.239  -3.915 -14.468  1.00  0.00     0.010 A
HETATM   40  C21 UNL     1      -2.462  -3.035 -15.429  1.00  0.00     0.007 A
HETATM   41  C22 UNL     1      -1.751  -3.893 -14.476  1.00  0.00     0.007 A
ENDBRANCH  38  39
ENDBRANCH  37  38
ENDBRANCH  30  37
ENDBRANCH   3  25
TORSDOF 16
ENDMDL