MODEL 4
REMARK VINA RESULT: -8.674350114      1.072      3.430
REMARK  15 active torsions:
REMARK  status: ('A' for Active; 'I' for Inactive)
REMARK    1  A    between atoms: C2_2  and  C4_4
REMARK    2  A    between atoms: C4_4  and  C5_5
REMARK    3  A    between atoms: C5_5  and  C6_7
REMARK    4  A    between atoms: C6_7  and  C7_8
REMARK    5  A    between atoms: C6_7  and  N1_15
REMARK    6  A    between atoms: C7_8  and  C8_9
REMARK       I    between atoms: N1_15  and  C14_17
REMARK    7  A    between atoms: C14_17  and  C15_19
REMARK    8  A    between atoms: C15_19  and  C16_20
REMARK    9  A    between atoms: C15_19  and  N2_22
REMARK       I    between atoms: N2_22  and  C17_24
REMARK   10  A    between atoms: C17_24  and  C18_26
REMARK   11  A    between atoms: C18_26  and  N3_28
REMARK       I    between atoms: N3_28  and  C20_30
REMARK   12  A    between atoms: C20_30  and  C21_32
REMARK   13  A    between atoms: C21_32  and  O6_33
REMARK   14  A    between atoms: O6_33  and  C22_34
REMARK   15  A    between atoms: N4_39  and  O7_40
ROOT
HETATM    1  N2  UNL     1      -4.396  -6.049 -17.682  1.00  0.00    -0.340 N
ATOM      2  H2  UNL     1      -5.013  -5.242 -17.586  1.00  0.00     0.163 HD
HETATM    3  C17 UNL     1      -3.197  -6.035 -16.953  1.00  0.00     0.241 C
HETATM    4  O4  UNL     1      -2.401  -7.001 -17.044  1.00  0.00    -0.271 OA
ENDROOT
BRANCH   1   5
HETATM    5  C15 UNL     1      -4.827  -7.116 -18.559  1.00  0.00     0.238 C
BRANCH   5   6
HETATM    6  C14 UNL     1      -6.103  -7.643 -17.999  1.00  0.00     0.247 C
HETATM    7  N1  UNL     1      -7.355  -7.561 -18.704  1.00  0.00    -0.348 N
ATOM      8  H1  UNL     1      -7.389  -7.122 -19.623  1.00  0.00     0.163 HD
HETATM    9  O2  UNL     1      -6.137  -8.195 -16.858  1.00  0.00    -0.271 OA
BRANCH   7  10
HETATM   10  C6  UNL     1      -8.546  -8.085 -18.133  1.00  0.00     0.154 C
BRANCH  10  11
HETATM   11  C5  UNL     1      -8.866  -9.348 -18.919  1.00  0.00     0.149 C
HETATM   12  O1  UNL     1      -9.683  -9.334 -19.812  1.00  0.00    -0.296 OA
BRANCH  11  13
HETATM   13  C4  UNL     1      -8.134 -10.586 -18.543  1.00  0.00     0.084 C
BRANCH  13  14
HETATM   14  C2  UNL     1      -8.444 -10.954 -17.110  1.00  0.00    -0.016 C
HETATM   15  C1  UNL     1      -9.545 -12.005 -17.142  1.00  0.00     0.010 C
HETATM   16  C3  UNL     1      -7.181 -11.578 -16.521  1.00  0.00     0.010 C
ENDBRANCH  13  14
ENDBRANCH  11  13
ENDBRANCH  10  11
BRANCH  10  17
HETATM   17  C7  UNL     1      -9.763  -7.232 -18.118  1.00  0.00     0.037 C
BRANCH  17  18
HETATM   18  C8  UNL     1      -9.970  -6.343 -16.923  1.00  0.00    -0.012 C
HETATM   19  C9  UNL     1      -9.176  -6.656 -15.719  1.00  0.00     0.005 C
HETATM   20  C10 UNL     1      -8.622  -5.553 -14.903  1.00  0.00     0.000 C
HETATM   21  C11 UNL     1      -8.843  -4.159 -15.379  1.00  0.00     0.000 C
HETATM   22  C12 UNL     1      -8.724  -4.205 -16.909  1.00  0.00     0.000 C
HETATM   23  C13 UNL     1      -9.998  -4.894 -17.354  1.00  0.00     0.005 C
ENDBRANCH  17  18
ENDBRANCH  10  17
ENDBRANCH   7  10
ENDBRANCH   5   6
BRANCH   5  24
HETATM   24  C16 UNL     1      -5.099  -6.536 -19.900  1.00  0.00     0.266 C
HETATM   25  O3  UNL     1      -4.198  -6.509 -20.715  1.00  0.00    -0.304 OA
ENDBRANCH   5  24
ENDBRANCH   1   5
BRANCH   3  26
HETATM   26  C18 UNL     1      -2.815  -4.912 -16.060  1.00  0.00     0.172 C
HETATM   27  C19 UNL     1      -1.284  -4.908 -16.048  1.00  0.00     0.042 C
BRANCH  26  28
HETATM   28  N3  UNL     1      -3.337  -3.650 -16.468  1.00  0.00    -0.346 N
HETATM   29  C20 UNL     1      -4.654  -3.254 -16.020  1.00  0.00     0.242 C
HETATM   30  O5  UNL     1      -5.313  -4.024 -15.278  1.00  0.00    -0.271 OA
ATOM     31  H3  UNL     1      -2.788  -3.034 -17.069  1.00  0.00     0.163 HD
BRANCH  29  32
HETATM   32  C21 UNL     1      -5.231  -1.962 -16.423  1.00  0.00     0.270 C
BRANCH  32  33
HETATM   33  O6  UNL     1      -5.822  -1.308 -15.390  1.00  0.00    -0.377 OA
BRANCH  33  34
HETATM   34  C22 UNL     1      -5.504   0.014 -15.200  1.00  0.00     0.126 C
HETATM   35  C23 UNL     1      -6.494   0.489 -14.097  1.00  0.00     0.058 C
HETATM   36  C24 UNL     1      -6.508  -0.520 -12.999  1.00  0.00     0.034 C
HETATM   37  C25 UNL     1      -7.680  -1.469 -13.254  1.00  0.00     0.034 C
HETATM   38  C26 UNL     1      -6.805   0.160 -11.666  1.00  0.00     0.034 C
HETATM   39  N4  UNL     1      -5.321  -1.338 -12.960  1.00  0.00    -0.182 NA
HETATM   40  C27 UNL     1      -4.124  -0.654 -13.300  1.00  0.00     0.034 C
HETATM   41  C28 UNL     1      -3.644   0.266 -12.165  1.00  0.00     0.034 C
HETATM   42  C29 UNL     1      -3.028  -1.702 -13.446  1.00  0.00     0.034 C
HETATM   43  C30 UNL     1      -4.158   0.157 -14.564  1.00  0.00     0.058 C
BRANCH  39  44
HETATM   44  O7  UNL     1      -5.210  -1.842 -11.703  1.00  0.00    -0.312 OA
ATOM     45  H7  UNL     1      -4.510  -2.485 -11.711  1.00  0.00     0.237 HD
ENDBRANCH  39  44
ENDBRANCH  33  34
ENDBRANCH  32  33
ENDBRANCH  29  32
ENDBRANCH  26  28
ENDBRANCH   3  26
TORSDOF 15
ENDMDL