MODEL 1
REMARK VINA RESULT: -8.910528031      0.000      0.000
REMARK  17 active torsions:
REMARK  status: ('A' for Active; 'I' for Inactive)
REMARK       I    between atoms: C1_2  and  N1_3
REMARK       I    between atoms: C1_2  and  N3_20
REMARK    1  A    between atoms: N1_3  and  C2_5
REMARK    2  A    between atoms: C2_5  and  C3_6
REMARK    3  A    between atoms: C2_5  and  C13_17
REMARK    4  A    between atoms: C3_6  and  C4_7
REMARK    5  A    between atoms: C4_7  and  C5_8
REMARK    6  A    between atoms: C5_8  and  C6_9
REMARK    7  A    between atoms: C6_9  and  C7_10
REMARK    8  A    between atoms: C7_10  and  N2_11
REMARK    9  A    between atoms: N3_20  and  C14_22
REMARK   10  A    between atoms: C14_22  and  C15_23
REMARK   11  A    between atoms: C14_22  and  C19_27
REMARK   12  A    between atoms: C15_23  and  C16_24
REMARK   13  A    between atoms: C19_27  and  O4_28
REMARK   14  A    between atoms: C19_27  and  N4_30
REMARK   15  A    between atoms: C23_34  and  C24_35
REMARK       I    between atoms: C24_35  and  N5_37
REMARK   16  A    between atoms: C25_39  and  C26_40
REMARK   17  A    between atoms: C26_40  and  C27_41
ROOT
HETATM    1  C14 UNL     1      -4.947  -2.263 -15.605  1.00  0.00     0.161 C
ENDROOT
BRANCH   1   2
HETATM    2  N3  UNL     1      -5.622  -2.915 -16.747  1.00  0.00    -0.331 N
HETATM    3  C1  UNL     1      -6.514  -4.002 -16.574  1.00  0.00     0.317 C
HETATM    4  O1  UNL     1      -6.713  -4.400 -15.405  1.00  0.00    -0.247 OA
HETATM    5  N1  UNL     1      -7.177  -4.642 -17.643  1.00  0.00    -0.329 N
ATOM      6  H1  UNL     1      -6.991  -4.295 -18.584  1.00  0.00     0.165 HD
ATOM      7  H3  UNL     1      -5.440  -2.571 -17.691  1.00  0.00     0.165 HD
BRANCH   5   8
HETATM    8  C2  UNL     1      -8.099  -5.750 -17.514  1.00  0.00     0.187 C
BRANCH   8   9
HETATM    9  C3  UNL     1      -7.667  -6.850 -18.415  1.00  0.00     0.036 C
BRANCH   9  10
HETATM   10  C4  UNL     1      -8.184  -8.208 -18.107  1.00  0.00     0.002 C
BRANCH  10  11
HETATM   11  C5  UNL     1      -7.165  -9.211 -17.664  1.00  0.00     0.002 C
BRANCH  11  12
HETATM   12  C6  UNL     1      -5.872  -9.105 -18.488  1.00  0.00     0.030 C
BRANCH  12  13
HETATM   13  C7  UNL     1      -4.740  -9.147 -17.485  1.00  0.00     0.272 C
BRANCH  13  14
HETATM   14  N2  UNL     1      -3.571  -8.486 -17.969  1.00  0.00     0.088 N
HETATM   15  C8  UNL     1      -3.987  -7.699 -19.132  1.00  0.00     0.272 C
HETATM   16  C9  UNL     1      -3.158  -6.422 -19.250  1.00  0.00     0.030 C
HETATM   17  C10 UNL     1      -3.408  -5.507 -18.093  1.00  0.00     0.003 C
HETATM   18  C11 UNL     1      -3.741  -6.357 -16.883  1.00  0.00     0.030 C
HETATM   19  C12 UNL     1      -2.912  -7.632 -17.037  1.00  0.00     0.272 C
ENDBRANCH  13  14
ENDBRANCH  12  13
ENDBRANCH  11  12
ENDBRANCH  10  11
ENDBRANCH   9  10
ENDBRANCH   8   9
BRANCH   8  20
HETATM   20  C13 UNL     1      -9.454  -5.240 -17.718  1.00  0.00     0.196 C
HETATM   21  O2  UNL     1     -10.191  -5.439 -18.711  1.00  0.00    -0.646 OA
HETATM   22  O3  UNL     1     -10.030  -4.434 -16.716  1.00  0.00    -0.646 OA
ENDBRANCH   8  20
ENDBRANCH   5   8
ENDBRANCH   1   2
BRANCH   1  23
HETATM   23  C15 UNL     1      -3.466  -2.421 -15.862  1.00  0.00     0.038 C
BRANCH  23  24
HETATM   24  C16 UNL     1      -2.683  -2.736 -14.618  1.00  0.00    -0.012 A
HETATM   25  C17 UNL     1      -2.956  -4.098 -14.029  1.00  0.00     0.005 A
HETATM   26  C18 UNL     1      -1.638  -3.834 -14.693  1.00  0.00     0.005 A
ENDBRANCH  23  24
ENDBRANCH   1  23
BRANCH   1  27
HETATM   27  C19 UNL     1      -5.418  -0.885 -15.469  1.00  0.00     0.137 C
BRANCH  27  28
HETATM   28  O4  UNL     1      -5.316  -0.129 -16.527  1.00  0.00    -0.348 OA
ATOM     29  H4  UNL     1      -5.675   0.748 -16.456  1.00  0.00     0.219 HD
ENDBRANCH  27  28
BRANCH  27  30
HETATM   30  N4  UNL     1      -5.972  -0.263 -14.343  1.00  0.00    -0.350 N
HETATM   31  C20 UNL     1      -7.431  -0.267 -14.098  1.00  0.00     0.126 C
HETATM   32  C21 UNL     1      -7.654   1.058 -13.393  1.00  0.00     0.022 C
HETATM   33  C22 UNL     1      -6.443   1.140 -12.515  1.00  0.00     0.037 C
HETATM   34  C23 UNL     1      -5.353   0.445 -13.272  1.00  0.00     0.178 C
BRANCH  34  35
HETATM   35  C24 UNL     1      -4.571  -0.450 -12.358  1.00  0.00     0.244 C
HETATM   36  O5  UNL     1      -4.987  -1.606 -12.168  1.00  0.00    -0.271 OA
HETATM   37  N5  UNL     1      -3.396   0.081 -11.764  1.00  0.00    -0.339 N
HETATM   38  C25 UNL     1      -2.505   0.723 -12.478  1.00  0.00     0.070 C
ATOM     39  H5  UNL     1      -3.243  -0.040 -10.763  1.00  0.00     0.167 HD
BRANCH  38  40
HETATM   40  C26 UNL     1      -1.286   1.277 -11.870  1.00  0.00     0.103 C
BRANCH  40  41
HETATM   41  C27 UNL     1      -1.646   2.227 -10.786  1.00  0.00     0.029 A
HETATM   42  C28 UNL     1      -1.450   1.903  -9.471  1.00  0.00     0.113 A
HETATM   43  N6  UNL     1      -1.775   2.760  -8.464  1.00  0.00    -0.372 N
HETATM   44  C29 UNL     1      -2.305   3.962  -8.751  1.00  0.00     0.104 A
ATOM     45  H6  UNL     1      -1.617   2.491  -7.493  1.00  0.00     0.164 HD
HETATM   46  C30 UNL     1      -2.506   4.295 -10.079  1.00  0.00     0.105 A
HETATM   47  N7  UNL     1      -2.174   3.425 -11.075  1.00  0.00    -0.366 N
ATOM     48  H7  UNL     1      -2.330   3.688 -12.049  1.00  0.00     0.165 HD
ENDBRANCH  40  41
ENDBRANCH  38  40
ENDBRANCH  34  35
ENDBRANCH  27  30
ENDBRANCH   1  27
TORSDOF 17
ENDMDL