MODEL 5
REMARK VINA RESULT: -8.394922304      2.469      4.896
REMARK  18 active torsions:
REMARK  status: ('A' for Active; 'I' for Inactive)
REMARK    1  A    between atoms: O1_2  and  C2_3
REMARK    2  A    between atoms: C2_3  and  C3_5
REMARK    3  A    between atoms: C3_5  and  C4_6
REMARK    4  A    between atoms: C4_6  and  C5_7
REMARK    5  A    between atoms: C5_7  and  C6_8
REMARK    6  A    between atoms: C6_8  and  C7_9
REMARK    7  A    between atoms: C7_9  and  N1_10
REMARK    8  A    between atoms: C7_9  and  C24_37
REMARK    9  A    between atoms: N1_10  and  C8_12
REMARK   10  A    between atoms: C8_12  and  C10_14
REMARK   11  A    between atoms: C10_14  and  N2_15
REMARK       I    between atoms: N2_15  and  C11_17
REMARK   12  A    between atoms: C11_17  and  C12_19
REMARK       I    between atoms: N3_23  and  C16_24
REMARK   13  A    between atoms: C16_24  and  C17_26
REMARK   14  A    between atoms: C17_26  and  C18_27
REMARK   15  A    between atoms: C18_27  and  C19_29
REMARK       I    between atoms: C19_29  and  N4_31
REMARK   16  A    between atoms: N4_31  and  C20_33
REMARK   17  A    between atoms: C24_37  and  C25_39
REMARK   18  A    between atoms: C25_39  and  C26_40
ROOT
HETATM    1  C10 UNL     1      -6.224   1.333 -10.369  1.00  0.00     0.147 C
ENDROOT
BRANCH   1   2
HETATM    2  C8  UNL     1      -6.748   1.675 -11.763  1.00  0.00     0.091 C
HETATM    3  C9  UNL     1      -7.267   3.068 -11.792  1.00  0.00     0.033 C
BRANCH   2   4
HETATM    4  N1  UNL     1      -5.816   1.283 -12.733  1.00  0.00    -0.405 N
ATOM      5  H1  UNL     1      -5.229   1.979 -13.194  1.00  0.00     0.154 HD
BRANCH   4   6
HETATM    6  C7  UNL     1      -5.696  -0.098 -13.071  1.00  0.00     0.147 C
BRANCH   6   7
HETATM    7  C6  UNL     1      -6.989  -0.464 -13.783  1.00  0.00     0.033 C
BRANCH   7   8
HETATM    8  C5  UNL     1      -7.493  -1.833 -13.537  1.00  0.00     0.003 C
BRANCH   8   9
HETATM    9  C4  UNL     1      -7.764  -2.618 -14.824  1.00  0.00     0.010 C
BRANCH   9  10
HETATM   10  C3  UNL     1      -7.544  -4.106 -14.554  1.00  0.00     0.111 C
BRANCH  10  11
HETATM   11  C2  UNL     1      -8.685  -4.911 -15.002  1.00  0.00     0.258 C
HETATM   12  O2  UNL     1      -8.868  -6.092 -14.596  1.00  0.00    -0.265 OA
BRANCH  11  13
HETATM   13  O1  UNL     1      -9.575  -4.344 -15.893  1.00  0.00    -0.326 OA
HETATM   14  C1  UNL     1      -9.728  -4.760 -17.218  1.00  0.00     0.213 C
ENDBRANCH  11  13
ENDBRANCH  10  11
ENDBRANCH   9  10
ENDBRANCH   8   9
ENDBRANCH   7   8
ENDBRANCH   6   7
BRANCH   6  15
HETATM   15  C24 UNL     1      -4.536  -0.187 -14.024  1.00  0.00     0.149 C
HETATM   16  O7  UNL     1      -4.460   0.641 -14.930  1.00  0.00    -0.296 OA
BRANCH  15  17
HETATM   17  C25 UNL     1      -3.472  -1.214 -13.935  1.00  0.00     0.085 C
BRANCH  17  18
HETATM   18  C26 UNL     1      -3.945  -2.610 -14.221  1.00  0.00    -0.007 C
HETATM   19  C27 UNL     1      -4.101  -2.690 -15.750  1.00  0.00     0.005 C
HETATM   20  C28 UNL     1      -4.012  -4.143 -16.207  1.00  0.00     0.000 C
HETATM   21  C29 UNL     1      -2.578  -4.636 -16.096  1.00  0.00     0.000 C
HETATM   22  C30 UNL     1      -1.894  -3.862 -14.980  1.00  0.00     0.000 C
HETATM   23  C31 UNL     1      -2.915  -3.653 -13.876  1.00  0.00     0.005 C
ENDBRANCH  17  18
ENDBRANCH  15  17
ENDBRANCH   6  15
ENDBRANCH   4   6
ENDBRANCH   2   4
ENDBRANCH   1   2
BRANCH   1  24
HETATM   24  N2  UNL     1      -6.333   2.390  -9.429  1.00  0.00    -0.357 N
HETATM   25  C11 UNL     1      -6.916   2.311  -8.154  1.00  0.00     0.240 C
HETATM   26  O3  UNL     1      -7.403   1.237  -7.747  1.00  0.00    -0.271 OA
ATOM     27  H2  UNL     1      -5.950   3.294  -9.705  1.00  0.00     0.162 HD
BRANCH  25  28
HETATM   28  C12 UNL     1      -6.986   3.478  -7.236  1.00  0.00     0.179 C
HETATM   29  C13 UNL     1      -7.741   3.126  -5.958  1.00  0.00     0.037 C
HETATM   30  C14 UNL     1      -6.695   2.799  -4.949  1.00  0.00     0.022 C
HETATM   31  C15 UNL     1      -5.397   3.176  -5.570  1.00  0.00     0.127 C
HETATM   32  N3  UNL     1      -5.693   3.892  -6.772  1.00  0.00    -0.338 N
HETATM   33  C16 UNL     1      -4.869   4.852  -7.414  1.00  0.00     0.228 C
HETATM   34  O4  UNL     1      -5.245   5.431  -8.486  1.00  0.00    -0.273 OA
BRANCH  33  35
HETATM   35  C17 UNL     1      -3.536   5.231  -6.879  1.00  0.00     0.192 C
BRANCH  35  36
HETATM   36  C18 UNL     1      -2.573   4.169  -7.258  1.00  0.00     0.225 C
HETATM   37  O5  UNL     1      -1.967   3.533  -6.368  1.00  0.00    -0.287 OA
BRANCH  36  38
HETATM   38  C19 UNL     1      -2.298   3.830  -8.650  1.00  0.00     0.288 C
HETATM   39  O6  UNL     1      -1.951   4.736  -9.469  1.00  0.00    -0.264 OA
HETATM   40  N4  UNL     1      -2.413   2.501  -9.110  1.00  0.00    -0.346 N
ATOM     41  H4  UNL     1      -2.694   1.769  -8.458  1.00  0.00     0.163 HD
BRANCH  40  42
HETATM   42  C20 UNL     1      -2.142   2.156 -10.479  1.00  0.00     0.022 C
HETATM   43  C21 UNL     1      -0.698   2.316 -10.846  1.00  0.00     0.037 C
HETATM   44  C22 UNL     1      -2.933   3.044 -11.430  1.00  0.00     0.037 C
HETATM   45  C23 UNL     1      -2.588   0.729 -10.723  1.00  0.00     0.037 C
ENDBRANCH  40  42
ENDBRANCH  36  38
ENDBRANCH  35  36
ENDBRANCH  33  35
ENDBRANCH  25  28
ENDBRANCH   1  24
TORSDOF 18
ENDMDL