MODEL 3
REMARK VINA RESULT: -8.336988874      3.387      9.569
REMARK  17 active torsions:
REMARK  status: ('A' for Active; 'I' for Inactive)
REMARK    1  A    between atoms: C2_2  and  C3_4
REMARK    2  A    between atoms: C3_4  and  C4_5
REMARK    3  A    between atoms: C4_5  and  N1_6
REMARK    4  A    between atoms: C4_5  and  C20_32
REMARK    5  A    between atoms: N1_6  and  C5_9
REMARK    6  A    between atoms: C5_9  and  O2_10
REMARK    7  A    between atoms: C5_9  and  C6_12
REMARK    8  A    between atoms: C6_12  and  C7_14
REMARK    9  A    between atoms: C7_14  and  C8_15
REMARK   10  A    between atoms: C7_14  and  N2_19
REMARK   11  A    between atoms: C8_15  and  C9_16
REMARK   12  A    between atoms: N2_19  and  C12_21
REMARK   13  A    between atoms: C12_21  and  C13_22
REMARK   14  A    between atoms: C12_21  and  C17_26
REMARK   15  A    between atoms: C17_26  and  C18_28
REMARK   16  A    between atoms: C18_28  and  S1_29
REMARK       I    between atoms: N3_35  and  C23_36
REMARK   17  A    between atoms: C23_36  and  C24_38
ROOT
HETATM    1  C5  UNL     1      -5.490  -0.338 -14.439  1.00  0.00     0.396 C
ENDROOT
BRANCH   1   2
HETATM    2  N1  UNL     1      -6.174  -1.031 -15.490  1.00  0.00    -0.036 N
ATOM      3  H12 UNL     1      -6.092  -0.537 -16.379  1.00  0.00     0.281 HD
ATOM      4  H11 UNL     1      -7.186  -0.979 -15.375  1.00  0.00     0.281 HD
BRANCH   2   5
HETATM    5  C4  UNL     1      -5.715  -2.422 -15.602  1.00  0.00     0.200 C
BRANCH   5   6
HETATM    6  C3  UNL     1      -4.614  -2.554 -16.582  1.00  0.00     0.111 C
BRANCH   6   7
HETATM    7  C2  UNL     1      -3.391  -3.212 -16.127  1.00  0.00     0.125 C
HETATM    8  C1  UNL     1      -2.800  -4.419 -16.751  1.00  0.00     0.091 C
HETATM    9  O1  UNL     1      -2.786  -2.751 -15.154  1.00  0.00    -0.298 OA
ENDBRANCH   6   7
ENDBRANCH   5   6
BRANCH   5  10
HETATM   10  C20 UNL     1      -6.925  -3.253 -15.833  1.00  0.00     0.020 C
HETATM   11  C21 UNL     1      -7.110  -4.256 -14.674  1.00  0.00     0.027 C
HETATM   12  C22 UNL     1      -8.153  -5.252 -15.169  1.00  0.00     0.126 C
HETATM   13  N3  UNL     1      -8.953  -4.711 -16.245  1.00  0.00    -0.351 N
HETATM   14  C23 UNL     1      -9.333  -5.422 -17.409  1.00  0.00     0.227 C
HETATM   15  C28 UNL     1      -9.384  -3.318 -16.054  1.00  0.00     0.126 C
HETATM   16  O6  UNL     1     -10.044  -4.794 -18.265  1.00  0.00    -0.273 OA
HETATM   17  C29 UNL     1      -8.206  -2.420 -15.850  1.00  0.00     0.027 C
BRANCH  14  18
HETATM   18  C24 UNL     1      -8.991  -6.809 -17.729  1.00  0.00     0.030 C
HETATM   19  C25 UNL     1      -7.650  -6.875 -18.397  1.00  0.00     0.025 C
HETATM   20  C26 UNL     1      -9.047  -7.672 -16.481  1.00  0.00     0.025 C
HETATM   21  C27 UNL     1     -10.001  -7.423 -18.707  1.00  0.00     0.025 C
ENDBRANCH  14  18
ENDBRANCH   5  10
ENDBRANCH   2   5
ENDBRANCH   1   2
BRANCH   1  22
HETATM   22  O2  UNL     1      -4.788  -1.126 -13.563  1.00  0.00    -0.364 OA
ATOM     23  H2  UNL     1      -4.851  -0.882 -12.647  1.00  0.00     0.212 HD
ENDBRANCH   1  22
BRANCH   1  24
HETATM   24  C6  UNL     1      -6.422   0.584 -13.709  1.00  0.00     0.227 C
HETATM   25  O3  UNL     1      -7.567   0.637 -14.201  1.00  0.00    -0.286 OA
BRANCH  24  26
HETATM   26  C7  UNL     1      -6.103   1.372 -12.534  1.00  0.00     0.057 C
BRANCH  26  27
HETATM   27  C8  UNL     1      -7.306   1.583 -11.654  1.00  0.00     0.064 C
BRANCH  27  28
HETATM   28  C9  UNL     1      -7.703   0.568 -10.679  1.00  0.00    -0.017 C
HETATM   29  C10 UNL     1      -9.003  -0.120 -10.788  1.00  0.00     0.010 C
HETATM   30  C11 UNL     1      -7.678   1.279  -9.302  1.00  0.00     0.010 C
ENDBRANCH  27  28
ENDBRANCH  26  27
BRANCH  26  31
HETATM   31  N2  UNL     1      -4.957   1.124 -11.782  1.00  0.00    -0.375 N
ATOM     32  H2  UNL     1      -4.989   0.392 -11.073  1.00  0.00     0.160 HD
BRANCH  31  33
HETATM   33  C12 UNL     1      -3.698   1.874 -11.963  1.00  0.00     0.175 C
BRANCH  33  34
HETATM   34  C13 UNL     1      -2.502   1.102 -11.665  1.00  0.00     0.008 C
HETATM   35  C14 UNL     1      -1.327   1.549 -10.950  1.00  0.00    -0.089 C
HETATM   36  C15 UNL     1      -1.162   2.024  -9.598  1.00  0.00     0.042 C
HETATM   37  C16 UNL     1      -0.504   2.547 -11.846  1.00  0.00     0.042 C
ENDBRANCH  33  34
BRANCH  33  38
HETATM   38  C17 UNL     1      -3.969   3.046 -11.121  1.00  0.00     0.164 C
HETATM   39  O4  UNL     1      -3.592   4.151 -11.660  1.00  0.00    -0.294 OA
BRANCH  38  40
HETATM   40  C18 UNL     1      -4.572   3.191  -9.834  1.00  0.00     0.189 C
BRANCH  40  41
HETATM   41  S1  UNL     1      -4.077   4.778  -9.063  1.00  0.00     0.018 S
HETATM   42  C19 UNL     1      -3.325   4.269  -7.511  1.00  0.00     0.127 C
HETATM   43  O5  UNL     1      -5.560   5.496  -8.643  1.00  0.00    -0.258 OA
ENDBRANCH  40  41
ENDBRANCH  38  40
ENDBRANCH  33  38
ENDBRANCH  31  33
ENDBRANCH  26  31
ENDBRANCH  24  26
ENDBRANCH   1  24
TORSDOF 17
ENDMDL