MODEL 5
REMARK VINA RESULT: -8.335740034      2.041      3.584
REMARK  16 active torsions:
REMARK  status: ('A' for Active; 'I' for Inactive)
REMARK       I    between atoms: C2_2  and  N1_4
REMARK    1  A    between atoms: N1_4  and  C3_6
REMARK    2  A    between atoms: C3_6  and  C4_7
REMARK    3  A    between atoms: C4_7  and  C5_8
REMARK    4  A    between atoms: C5_8  and  C6_9
REMARK    5  A    between atoms: C6_9  and  C7_10
REMARK    6  A    between atoms: C7_10  and  N2_11
REMARK    7  A    between atoms: C7_10  and  C9_17
REMARK    8  A    between atoms: N2_11  and  S1_13
REMARK       I    between atoms: C9_17  and  N3_19
REMARK    9  A    between atoms: N3_19  and  C10_21
REMARK   10  A    between atoms: N4_24  and  C13_25
REMARK   11  A    between atoms: C13_25  and  C14_26
REMARK   12  A    between atoms: C14_26  and  C15_27
REMARK   13  A    between atoms: C21_33  and  O5_34
REMARK   14  A    between atoms: O5_34  and  C22_35
REMARK   15  A    between atoms: C22_35  and  C23_37
REMARK   16  A    between atoms: C23_37  and  C24_38
ROOT
HETATM    1  C10 UNL     1      -4.792  -0.293 -13.572  1.00  0.00     0.117 C
HETATM    2  C11 UNL     1      -5.466  -0.026 -14.904  1.00  0.00     0.047 C
HETATM    3  C12 UNL     1      -6.142  -1.357 -15.309  1.00  0.00     0.119 C
HETATM    4  N4  UNL     1      -6.278  -2.177 -14.147  1.00  0.00    -0.410 N
HETATM    5  C20 UNL     1      -5.038  -2.722 -13.715  1.00  0.00     0.151 C
HETATM    6  C21 UNL     1      -4.012  -1.596 -13.616  1.00  0.00     0.172 C
ENDROOT
BRANCH   1   7
HETATM    7  N3  UNL     1      -4.067   0.820 -13.072  1.00  0.00    -0.352 N
HETATM    8  C9  UNL     1      -4.299   1.335 -11.771  1.00  0.00     0.241 C
HETATM    9  O4  UNL     1      -5.173   0.771 -11.067  1.00  0.00    -0.271 OA
ATOM     10  H3  UNL     1      -3.362   1.259 -13.662  1.00  0.00     0.163 HD
BRANCH   8  11
HETATM   11  C7  UNL     1      -3.573   2.501 -11.182  1.00  0.00     0.184 C
BRANCH  11  12
HETATM   12  C6  UNL     1      -2.132   2.522 -11.634  1.00  0.00     0.035 C
BRANCH  12  13
HETATM   13  C5  UNL     1      -1.296   3.290 -10.640  1.00  0.00     0.004 C
BRANCH  13  14
HETATM   14  C4  UNL     1      -1.479   2.761  -9.230  1.00  0.00     0.020 C
BRANCH  14  15
HETATM   15  C3  UNL     1      -1.657   3.846  -8.202  1.00  0.00     0.122 C
BRANCH  15  16
HETATM   16  N1  UNL     1      -2.943   3.805  -7.551  1.00  0.00    -0.361 N
HETATM   17  C2  UNL     1      -3.151   3.772  -6.152  1.00  0.00     0.213 C
HETATM   18  C1  UNL     1      -4.514   3.727  -5.550  1.00  0.00     0.117 C
HETATM   19  O1  UNL     1      -2.195   3.779  -5.353  1.00  0.00    -0.274 OA
ATOM     20  H1  UNL     1      -3.771   3.799  -8.147  1.00  0.00     0.162 HD
ENDBRANCH  15  16
ENDBRANCH  14  15
ENDBRANCH  13  14
ENDBRANCH  12  13
ENDBRANCH  11  12
BRANCH  11  21
HETATM   21  N2  UNL     1      -4.221   3.683 -11.675  1.00  0.00    -0.306 N
ATOM     22  H2  UNL     1      -3.926   4.141 -12.537  1.00  0.00     0.173 HD
BRANCH  21  23
HETATM   23  S1  UNL     1      -5.502   4.271 -10.739  1.00  0.00     0.223 S
HETATM   24  C8  UNL     1      -7.096   3.792 -11.335  1.00  0.00     0.185 C
HETATM   25  O2  UNL     1      -5.441   5.779 -10.769  1.00  0.00    -0.206 OA
HETATM   26  O3  UNL     1      -5.406   3.866  -9.298  1.00  0.00    -0.206 OA
ENDBRANCH  21  23
ENDBRANCH  11  21
ENDBRANCH   8  11
ENDBRANCH   1   7
BRANCH   6  27
HETATM   27  O5  UNL     1      -3.072  -1.664 -14.639  1.00  0.00    -0.312 OA
BRANCH  27  28
HETATM   28  C22 UNL     1      -2.526  -2.911 -15.003  1.00  0.00     0.259 C
HETATM   29  O6  UNL     1      -1.735  -3.440 -14.189  1.00  0.00    -0.265 OA
BRANCH  28  30
HETATM   30  C23 UNL     1      -2.851  -3.573 -16.260  1.00  0.00     0.115 C
BRANCH  30  31
HETATM   31  C24 UNL     1      -2.759  -5.059 -16.308  1.00  0.00    -0.005 C
HETATM   32  C25 UNL     1      -2.565  -5.430 -17.776  1.00  0.00     0.005 C
HETATM   33  C26 UNL     1      -3.636  -6.339 -18.273  1.00  0.00     0.000 C
HETATM   34  C27 UNL     1      -5.039  -5.923 -17.903  1.00  0.00     0.000 C
HETATM   35  C28 UNL     1      -5.176  -5.407 -16.501  1.00  0.00     0.000 C
HETATM   36  C29 UNL     1      -3.935  -5.787 -15.729  1.00  0.00     0.005 C
ENDBRANCH  30  31
ENDBRANCH  28  30
ENDBRANCH  27  28
ENDBRANCH   6  27
BRANCH   4  37
HETATM   37  C13 UNL     1      -7.397  -3.045 -14.102  1.00  0.00     0.117 C
BRANCH  37  38
HETATM   38  C14 UNL     1      -8.365  -2.931 -15.238  1.00  0.00     0.024 C
BRANCH  38  39
HETATM   39  C15 UNL     1      -8.572  -4.228 -15.938  1.00  0.00    -0.013 C
HETATM   40  C16 UNL     1      -9.859  -4.369 -16.670  1.00  0.00     0.005 C
HETATM   41  C17 UNL     1      -9.916  -5.853 -16.991  1.00  0.00     0.000 C
HETATM   42  C18 UNL     1      -9.088  -6.547 -15.941  1.00  0.00     0.000 C
HETATM   43  C19 UNL     1      -8.558  -5.422 -15.039  1.00  0.00     0.005 C
ENDBRANCH  38  39
ENDBRANCH  37  38
ENDBRANCH   4  37
TORSDOF 16
ENDMDL