MODEL 4
REMARK VINA RESULT: -7.998609845      0.744      1.363
REMARK  17 active torsions:
REMARK  status: ('A' for Active; 'I' for Inactive)
REMARK    1  A    between atoms: C2_2  and  O1_3
REMARK    2  A    between atoms: O1_3  and  N1_4
REMARK    3  A    between atoms: N1_4  and  C3_5
REMARK    4  A    between atoms: N1_4  and  C4_7
REMARK    5  A    between atoms: C4_7  and  C5_8
REMARK    6  A    between atoms: C4_7  and  C9_16
REMARK    7  A    between atoms: C5_8  and  C6_9
REMARK    8  A    between atoms: C6_9  and  C7_10
REMARK    9  A    between atoms: C7_10  and  N2_11
REMARK   10  A    between atoms: C17_24  and  C18_25
REMARK   11  A    between atoms: C18_25  and  C19_26
REMARK   12  A    between atoms: C20_27  and  C21_28
REMARK   13  A    between atoms: C21_28  and  O3_29
REMARK   14  A    between atoms: O3_29  and  C22_30
REMARK   15  A    between atoms: C22_30  and  C23_31
REMARK   16  A    between atoms: C23_31  and  N5_32
REMARK   17  A    between atoms: C30_42  and  O5_43
ROOT
HETATM    1  C9  UNL     1      -5.844   0.347 -13.386  1.00  0.00    -0.004 C
HETATM    2  C10 UNL     1      -6.949  -0.399 -14.014  1.00  0.00     0.041 C
HETATM    3  C11 UNL     1      -7.348  -1.710 -13.471  1.00  0.00     0.004 C
HETATM    4  C12 UNL     1      -8.008  -2.651 -14.410  1.00  0.00     0.000 C
HETATM    5  C13 UNL     1      -7.594  -2.677 -15.832  1.00  0.00     0.000 C
HETATM    6  C14 UNL     1      -6.381  -3.556 -16.124  1.00  0.00     0.004 C
HETATM    7  C15 UNL     1      -5.281  -2.750 -16.755  1.00  0.00     0.027 C
HETATM    8  C16 UNL     1      -4.028  -3.394 -17.069  1.00  0.00    -0.024 C
HETATM    9  C17 UNL     1      -2.943  -3.599 -16.092  1.00  0.00    -0.079 C
HETATM   10  C28 UNL     1      -2.548  -2.492 -15.213  1.00  0.00     0.053 C
HETATM   11  C29 UNL     1      -3.407  -2.173 -14.026  1.00  0.00     0.126 C
HETATM   12  N6  UNL     1      -3.497  -0.757 -13.749  1.00  0.00    -0.370 N
ATOM     13  H6  UNL     1      -2.666  -0.370 -13.302  1.00  0.00     0.161 HD
HETATM   14  C30 UNL     1      -4.494   0.173 -13.974  1.00  0.00     0.140 C
ENDROOT
BRANCH   1  15
HETATM   15  C4  UNL     1      -5.868   0.474 -11.885  1.00  0.00     0.150 C
BRANCH  15  16
HETATM   16  N1  UNL     1      -4.857   1.472 -11.494  1.00  0.00    -0.224 N
BRANCH  16  17
HETATM   17  O1  UNL     1      -5.043   2.742 -11.876  1.00  0.00    -0.276 OA
BRANCH  17  18
HETATM   18  C2  UNL     1      -4.318   3.700 -11.230  1.00  0.00     0.197 C
HETATM   19  C1  UNL     1      -5.121   4.984 -11.042  1.00  0.00     0.036 C
ENDBRANCH  17  18
ENDBRANCH  16  17
BRANCH  16  20
HETATM   20  C3  UNL     1      -3.690   1.132 -10.770  1.00  0.00     0.377 C
HETATM   21  O2  UNL     1      -3.127   0.008 -10.870  1.00  0.00    -0.281 OA
ENDBRANCH  16  20
ENDBRANCH  15  16
BRANCH  15  22
HETATM   22  C5  UNL     1      -7.210   1.063 -11.455  1.00  0.00     0.034 C
BRANCH  22  23
HETATM   23  C6  UNL     1      -7.652   0.672 -10.093  1.00  0.00     0.022 C
BRANCH  23  24
HETATM   24  C7  UNL     1      -7.319   1.769  -9.077  1.00  0.00     0.122 C
BRANCH  24  25
HETATM   25  N2  UNL     1      -7.081   1.179  -7.790  1.00  0.00    -0.367 N
HETATM   26  C8  UNL     1      -7.334   1.784  -6.685  1.00  0.00     0.196 C
HETATM   27  N3  UNL     1      -7.066   1.120  -5.467  1.00  0.00    -0.067 NA
HETATM   28  N4  UNL     1      -7.870   3.093  -6.652  1.00  0.00    -0.067 NA
ATOM     29  H2  UNL     1      -6.695   0.236  -7.751  1.00  0.00     0.161 HD
ENDBRANCH  24  25
ENDBRANCH  23  24
ENDBRANCH  22  23
ENDBRANCH  15  22
ENDBRANCH   1  15
BRANCH  14  30
HETATM   30  O5  UNL     1      -4.154   1.057 -14.887  1.00  0.00    -0.346 OA
ATOM     31  H5  UNL     1      -4.507   0.906 -15.755  1.00  0.00     0.219 HD
ENDBRANCH  14  30
BRANCH   9  32
HETATM   32  C18 UNL     1      -3.094  -4.964 -15.488  1.00  0.00     0.060 C
BRANCH  32  33
HETATM   33  C19 UNL     1      -2.506  -6.075 -16.277  1.00  0.00    -0.024 C
HETATM   34  C20 UNL     1      -3.216  -6.933 -17.007  1.00  0.00    -0.005 C
BRANCH  34  35
HETATM   35  C21 UNL     1      -4.672  -6.950 -17.170  1.00  0.00     0.194 C
BRANCH  35  36
HETATM   36  O3  UNL     1      -5.141  -8.162 -17.728  1.00  0.00    -0.386 OA
BRANCH  36  37
HETATM   37  C22 UNL     1      -6.491  -8.231 -17.871  1.00  0.00     0.198 C
BRANCH  37  38
HETATM   38  C23 UNL     1      -7.214  -7.057 -17.311  1.00  0.00     0.298 C
BRANCH  38  39
HETATM   39  N5  UNL     1      -8.549  -7.261 -16.928  1.00  0.00     0.094 N
HETATM   40  C24 UNL     1      -9.420  -8.094 -17.650  1.00  0.00     0.298 C
HETATM   41  C25 UNL     1     -10.032  -7.473 -18.894  1.00  0.00     0.198 C
HETATM   42  O4  UNL     1     -10.088  -6.099 -18.834  1.00  0.00    -0.388 OA
HETATM   43  C26 UNL     1     -10.356  -5.718 -17.524  1.00  0.00     0.198 C
HETATM   44  C27 UNL     1      -9.185  -5.993 -16.597  1.00  0.00     0.298 C
ENDBRANCH  38  39
ENDBRANCH  37  38
ENDBRANCH  36  37
ENDBRANCH  35  36
ENDBRANCH  34  35
ENDBRANCH  32  33
ENDBRANCH   9  32
TORSDOF 17
ENDMDL