MODEL 2
REMARK VINA RESULT: -8.944170827      1.811      4.348
REMARK  16 active torsions:
REMARK  status: ('A' for Active; 'I' for Inactive)
REMARK    1  A    between atoms: C2_2  and  C3_3
REMARK    2  A    between atoms: C3_3  and  C4_4
REMARK    3  A    between atoms: C4_4  and  C5_5
REMARK    4  A    between atoms: C5_5  and  O1_6
REMARK    5  A    between atoms: C5_5  and  C8_10
REMARK    6  A    between atoms: O1_6  and  C6_7
REMARK       I    between atoms: C8_10  and  N1_12
REMARK       I    between atoms: N1_12  and  C9_14
REMARK    7  A    between atoms: C9_14  and  C10_16
REMARK    8  A    between atoms: C11_17  and  C12_18
REMARK    9  A    between atoms: C12_18  and  N2_19
REMARK       I    between atoms: N2_19  and  C13_21
REMARK   10  A    between atoms: C13_21  and  C14_23
REMARK   11  A    between atoms: C14_23  and  C15_24
REMARK   12  A    between atoms: C14_23  and  N3_28
REMARK   13  A    between atoms: C15_24  and  C16_25
REMARK       I    between atoms: N3_28  and  C19_30
REMARK   14  A    between atoms: C19_30  and  C20_32
REMARK   15  A    between atoms: N4_40  and  C27_41
REMARK   16  A    between atoms: C27_41  and  C28_42
ROOT
HETATM    1  C10 UNL     1      -6.045  -2.782 -14.897  1.00  0.00     0.322 C
HETATM    2  C11 UNL     1      -6.359  -2.204 -13.571  1.00  0.00     0.079 C
HETATM    3  C25 UNL     1      -4.884  -1.899 -13.516  1.00  0.00     0.228 C
HETATM    4  C26 UNL     1      -4.354  -2.213 -12.133  1.00  0.00     0.043 C
HETATM    5  N4  UNL     1      -4.665  -2.903 -14.506  1.00  0.00     0.107 N
ENDROOT
BRANCH   2   6
HETATM    6  C12 UNL     1      -7.175  -0.925 -13.583  1.00  0.00     0.132 C
BRANCH   6   7
HETATM    7  N2  UNL     1      -6.520   0.162 -12.927  1.00  0.00    -0.359 N
HETATM    8  C13 UNL     1      -6.667   0.485 -11.566  1.00  0.00     0.240 C
HETATM    9  O5  UNL     1      -7.418  -0.206 -10.848  1.00  0.00    -0.271 OA
ATOM     10  H2  UNL     1      -5.900   0.747 -13.487  1.00  0.00     0.162 HD
BRANCH   8  11
HETATM   11  C14 UNL     1      -5.953   1.645 -10.907  1.00  0.00     0.177 C
BRANCH  11  12
HETATM   12  C15 UNL     1      -6.795   2.039  -9.758  1.00  0.00     0.038 C
BRANCH  12  13
HETATM   13  C16 UNL     1      -7.672   3.227  -9.914  1.00  0.00    -0.020 C
HETATM   14  C17 UNL     1      -7.366   4.032 -11.160  1.00  0.00     0.009 C
HETATM   15  C18 UNL     1      -7.810   4.100  -8.711  1.00  0.00     0.009 C
ENDBRANCH  12  13
ENDBRANCH  11  12
BRANCH  11  16
HETATM   16  N3  UNL     1      -4.614   1.272 -10.563  1.00  0.00    -0.347 N
HETATM   17  C19 UNL     1      -3.530   1.265 -11.484  1.00  0.00     0.222 C
HETATM   18  O6  UNL     1      -3.832   1.630 -12.662  1.00  0.00    -0.273 OA
ATOM     19  H3  UNL     1      -4.426   0.994  -9.600  1.00  0.00     0.163 HD
BRANCH  17  20
HETATM   20  C20 UNL     1      -2.142   0.873 -11.157  1.00  0.00     0.082 C
HETATM   21  C21 UNL     1      -1.829   0.895  -9.717  1.00  0.00     0.040 C
HETATM   22  C22 UNL     1      -1.289   2.195  -9.201  1.00  0.00     0.168 C
HETATM   23  O7  UNL     1      -0.435   2.822 -10.094  1.00  0.00    -0.391 OA
HETATM   24  C23 UNL     1      -0.989   3.067 -11.331  1.00  0.00     0.168 C
HETATM   25  C24 UNL     1      -1.213   1.720 -11.998  1.00  0.00     0.040 C
ENDBRANCH  17  20
ENDBRANCH  11  16
ENDBRANCH   8  11
ENDBRANCH   6   7
ENDBRANCH   2   6
BRANCH   1  26
HETATM   26  C9  UNL     1      -6.711  -4.062 -15.234  1.00  0.00     0.258 C
HETATM   27  N1  UNL     1      -6.718  -4.485 -16.585  1.00  0.00    -0.294 N
HETATM   28  C8  UNL     1      -7.337  -5.681 -16.978  1.00  0.00     0.254 C
ATOM     29  H1  UNL     1      -6.263  -3.906 -17.290  1.00  0.00     0.171 HD
HETATM   30  O3  UNL     1      -7.902  -6.425 -16.144  1.00  0.00    -0.270 OA
HETATM   31  O4  UNL     1      -7.269  -4.788 -14.378  1.00  0.00    -0.271 OA
BRANCH  28  32
HETATM   32  C5  UNL     1      -7.350  -6.115 -18.410  1.00  0.00     0.224 C
BRANCH  32  33
HETATM   33  C4  UNL     1      -6.242  -7.084 -18.635  1.00  0.00     0.042 C
BRANCH  33  34
HETATM   34  C3  UNL     1      -5.090  -6.516 -19.393  1.00  0.00     0.003 C
BRANCH  34  35
HETATM   35  C2  UNL     1      -3.918  -7.463 -19.474  1.00  0.00    -0.004 C
HETATM   36  C1  UNL     1      -2.803  -6.802 -20.279  1.00  0.00     0.005 C
ENDBRANCH  34  35
ENDBRANCH  33  34
ENDBRANCH  32  33
BRANCH  32  37
HETATM   37  O1  UNL     1      -8.574  -6.720 -18.721  1.00  0.00    -0.307 OA
BRANCH  37  38
HETATM   38  C6  UNL     1      -9.830  -6.270 -18.399  1.00  0.00     0.255 C
HETATM   39  C7  UNL     1     -10.821  -7.228 -17.839  1.00  0.00     0.126 C
HETATM   40  O2  UNL     1     -10.107  -5.066 -18.584  1.00  0.00    -0.266 OA
ENDBRANCH  37  38
ENDBRANCH  32  37
ENDBRANCH  28  32
ENDBRANCH   1  26
BRANCH   5  41
HETATM   41  C27 UNL     1      -3.809  -2.522 -15.610  1.00  0.00     0.278 C
BRANCH  41  42
HETATM   42  C28 UNL     1      -2.630  -3.445 -15.800  1.00  0.00     0.006 C
HETATM   43  C29 UNL     1      -2.024  -3.921 -14.507  1.00  0.00     0.011 C
HETATM   44  C30 UNL     1      -3.126  -4.657 -16.559  1.00  0.00     0.011 C
ENDBRANCH  41  42
ENDBRANCH   5  41
TORSDOF 16
ENDMDL