MODEL 3
REMARK VINA RESULT: -8.502523830      1.273      1.653
REMARK  15 active torsions:
REMARK  status: ('A' for Active; 'I' for Inactive)
REMARK    1  A    between atoms: O1_2  and  C2_3
REMARK    2  A    between atoms: C2_3  and  C5_6
REMARK       I    between atoms: C5_6  and  N1_8
REMARK    3  A    between atoms: N1_8  and  C6_10
REMARK    4  A    between atoms: C6_10  and  C7_11
REMARK    5  A    between atoms: C6_10  and  C14_19
REMARK    6  A    between atoms: C7_11  and  O3_12
REMARK    7  A    between atoms: O3_12  and  C8_13
REMARK       I    between atoms: C14_19  and  N2_21
REMARK    8  A    between atoms: N2_21  and  C15_23
REMARK    9  A    between atoms: C15_23  and  C16_24
REMARK   10  A    between atoms: C15_23  and  C28_42
REMARK       I    between atoms: C16_24  and  N3_26
REMARK   11  A    between atoms: C20_30  and  C21_31
REMARK       I    between atoms: C21_31  and  N4_33
REMARK   12  A    between atoms: N4_33  and  C22_35
REMARK   13  A    between atoms: C22_35  and  C23_36
REMARK   14  A    between atoms: C22_35  and  C24_38
REMARK   15  A    between atoms: C24_38  and  C25_39
ROOT
HETATM    1  C14 UNL     1      -4.081  -0.472 -12.630  1.00  0.00     0.243 C
HETATM    2  O4  UNL     1      -4.356   0.123 -13.717  1.00  0.00    -0.271 OA
HETATM    3  N2  UNL     1      -4.005  -1.852 -12.665  1.00  0.00    -0.346 N
ATOM      4  H2  UNL     1      -3.790  -2.353 -11.802  1.00  0.00     0.163 HD
ENDROOT
BRANCH   3   5
HETATM    5  C15 UNL     1      -4.223  -2.634 -13.907  1.00  0.00     0.180 C
BRANCH   5   6
HETATM    6  C16 UNL     1      -5.565  -3.221 -13.737  1.00  0.00     0.243 C
HETATM    7  O5  UNL     1      -5.867  -3.753 -12.639  1.00  0.00    -0.271 OA
HETATM    8  N3  UNL     1      -6.550  -3.214 -14.758  1.00  0.00    -0.337 N
HETATM    9  C17 UNL     1      -6.522  -2.684 -16.112  1.00  0.00     0.127 C
HETATM   10  C20 UNL     1      -7.895  -3.766 -14.636  1.00  0.00     0.179 C
HETATM   11  C18 UNL     1      -7.906  -2.154 -16.372  1.00  0.00     0.022 C
HETATM   12  C19 UNL     1      -8.757  -2.733 -15.269  1.00  0.00     0.037 C
BRANCH  10  13
HETATM   13  C21 UNL     1      -8.003  -5.121 -15.264  1.00  0.00     0.241 C
HETATM   14  O6  UNL     1      -8.726  -5.946 -14.686  1.00  0.00    -0.271 OA
HETATM   15  N4  UNL     1      -7.318  -5.437 -16.447  1.00  0.00    -0.348 N
ATOM     16  H4  UNL     1      -6.755  -4.688 -16.849  1.00  0.00     0.163 HD
BRANCH  15  17
HETATM   17  C22 UNL     1      -7.309  -6.663 -17.153  1.00  0.00     0.146 C
BRANCH  17  18
HETATM   18  C23 UNL     1      -5.950  -7.021 -17.633  1.00  0.00     0.256 C
HETATM   19  O7  UNL     1      -5.867  -7.622 -18.691  1.00  0.00    -0.305 OA
ENDBRANCH  17  18
BRANCH  17  20
HETATM   20  C24 UNL     1      -8.366  -6.817 -18.236  1.00  0.00     0.036 C
BRANCH  20  21
HETATM   21  C25 UNL     1      -9.547  -7.603 -17.736  1.00  0.00    -0.020 C
HETATM   22  C26 UNL     1     -10.762  -6.678 -17.641  1.00  0.00     0.009 C
HETATM   23  C27 UNL     1      -9.871  -8.723 -18.735  1.00  0.00     0.009 C
ENDBRANCH  20  21
ENDBRANCH  17  20
ENDBRANCH  15  17
ENDBRANCH  10  13
ENDBRANCH   5   6
BRANCH   5  24
HETATM   24  C28 UNL     1      -3.110  -3.599 -14.081  1.00  0.00     0.009 C
HETATM   25  C29 UNL     1      -1.864  -2.844 -14.586  1.00  0.00     0.012 C
HETATM   26  C30 UNL     1      -3.316  -4.720 -15.049  1.00  0.00     0.012 C
ENDBRANCH   5  24
ENDBRANCH   3   5
BRANCH   1  27
HETATM   27  C6  UNL     1      -3.879   0.392 -11.456  1.00  0.00     0.200 C
BRANCH  27  28
HETATM   28  N1  UNL     1      -2.799   1.366 -11.737  1.00  0.00    -0.343 N
HETATM   29  C5  UNL     1      -1.844   1.631 -10.752  1.00  0.00     0.252 C
HETATM   30  O2  UNL     1      -1.892   1.043  -9.651  1.00  0.00    -0.270 OA
ATOM     31  H1  UNL     1      -2.753   1.838 -12.640  1.00  0.00     0.163 HD
BRANCH  29  32
HETATM   32  C2  UNL     1      -0.736   2.612 -10.964  1.00  0.00     0.133 C
HETATM   33  C3  UNL     1      -0.016   2.039 -12.216  1.00  0.00     0.056 C
HETATM   34  C4  UNL     1       0.247   2.583  -9.833  1.00  0.00     0.056 C
BRANCH  32  35
HETATM   35  O1  UNL     1      -1.231   3.862 -11.254  1.00  0.00    -0.376 OA
HETATM   36  C1  UNL     1      -1.954   4.395 -10.218  1.00  0.00     0.203 C
ENDBRANCH  32  35
ENDBRANCH  29  32
ENDBRANCH  27  28
BRANCH  27  37
HETATM   37  C7  UNL     1      -5.058   1.208 -11.063  1.00  0.00     0.202 C
BRANCH  37  38
HETATM   38  O3  UNL     1      -6.145   0.529 -10.591  1.00  0.00    -0.383 OA
BRANCH  38  39
HETATM   39  C8  UNL     1      -7.356   1.162 -10.856  1.00  0.00     0.121 C
HETATM   40  C9  UNL     1      -7.209   2.144 -11.971  1.00  0.00     0.032 C
HETATM   41  C10 UNL     1      -7.772   1.725 -13.280  1.00  0.00     0.002 C
HETATM   42  C11 UNL     1      -7.917   0.291 -13.566  1.00  0.00     0.000 C
HETATM   43  C12 UNL     1      -7.703  -0.643 -12.402  1.00  0.00     0.002 C
HETATM   44  C13 UNL     1      -8.333   0.042 -11.206  1.00  0.00     0.032 C
ENDBRANCH  38  39
ENDBRANCH  37  38
ENDBRANCH  27  37
ENDBRANCH   1  27
TORSDOF 15
ENDMDL