MODEL 2
REMARK VINA RESULT: -7.939628394      1.535      2.844
REMARK  17 active torsions:
REMARK  status: ('A' for Active; 'I' for Inactive)
REMARK    1  A    between atoms: C2_2  and  C3_3
REMARK    2  A    between atoms: C3_3  and  C4_4
REMARK    3  A    between atoms: C4_4  and  C5_5
REMARK    4  A    between atoms: C5_5  and  N1_6
REMARK    5  A    between atoms: C5_5  and  C6_10
REMARK       I    between atoms: C6_10  and  N2_12
REMARK    6  A    between atoms: C10_16  and  C11_17
REMARK       I    between atoms: C11_17  and  N3_19
REMARK    7  A    between atoms: N3_19  and  C12_21
REMARK    8  A    between atoms: C12_21  and  C13_22
REMARK    9  A    between atoms: C13_22  and  C14_23
REMARK   10  A    between atoms: C14_23  and  N4_24
REMARK   11  A    between atoms: C14_23  and  C27_43
REMARK   12  A    between atoms: N4_24  and  C15_26
REMARK   13  A    between atoms: C15_26  and  C16_27
REMARK   14  A    between atoms: C15_26  and  C20_31
REMARK   15  A    between atoms: C16_27  and  C17_28
REMARK   16  A    between atoms: C17_28  and  C18_29
REMARK       I    between atoms: C20_31  and  N5_33
REMARK       I    between atoms: N6_36  and  C23_37
REMARK   17  A    between atoms: C23_37  and  O5_39
ROOT
HETATM    1  C14 UNL     1      -5.367   0.659 -12.965  1.00  0.00     0.086 C
ENDROOT
BRANCH   1   2
HETATM    2  C13 UNL     1      -4.560   0.437 -14.214  1.00  0.00     0.045 C
BRANCH   2   3
HETATM    3  C12 UNL     1      -3.233  -0.170 -14.100  1.00  0.00     0.124 C
BRANCH   3   4
HETATM    4  N3  UNL     1      -3.280  -1.541 -14.592  1.00  0.00    -0.359 N
HETATM    5  C11 UNL     1      -3.545  -2.681 -13.822  1.00  0.00     0.240 C
HETATM    6  O2  UNL     1      -3.765  -2.587 -12.595  1.00  0.00    -0.271 OA
ATOM      7  H3  UNL     1      -3.104  -1.684 -15.586  1.00  0.00     0.162 HD
BRANCH   5   8
HETATM    8  C10 UNL     1      -3.580  -4.060 -14.409  1.00  0.00     0.179 C
HETATM    9  N2  UNL     1      -4.671  -4.223 -15.345  1.00  0.00    -0.337 N
HETATM   10  C6  UNL     1      -6.052  -4.170 -15.070  1.00  0.00     0.251 C
HETATM   11  C7  UNL     1      -4.117  -4.450 -16.680  1.00  0.00     0.127 C
HETATM   12  O1  UNL     1      -6.417  -3.971 -13.884  1.00  0.00    -0.271 OA
HETATM   13  C8  UNL     1      -2.739  -3.791 -16.571  1.00  0.00     0.022 C
HETATM   14  C9  UNL     1      -2.316  -4.314 -15.211  1.00  0.00     0.037 C
BRANCH  10  15
HETATM   15  C5  UNL     1      -7.117  -4.333 -16.103  1.00  0.00     0.275 C
BRANCH  15  16
HETATM   16  C4  UNL     1      -8.468  -4.525 -15.480  1.00  0.00     0.042 C
BRANCH  16  17
HETATM   17  C3  UNL     1      -8.972  -5.908 -15.373  1.00  0.00     0.002 C
BRANCH  17  18
HETATM   18  C2  UNL     1      -9.464  -6.567 -16.619  1.00  0.00    -0.004 C
HETATM   19  C1  UNL     1     -10.355  -5.549 -17.388  1.00  0.00     0.005 C
ENDBRANCH  17  18
ENDBRANCH  16  17
ENDBRANCH  15  16
BRANCH  15  20
HETATM   20  N1  UNL     1      -7.137  -3.122 -16.897  1.00  0.00    -0.067 N
ATOM     21  H13 UNL     1      -8.033  -2.636 -16.843  1.00  0.00     0.275 HD
ATOM     22  H12 UNL     1      -6.553  -2.386 -16.500  1.00  0.00     0.275 HD
ATOM     23  H11 UNL     1      -6.876  -3.353 -17.855  1.00  0.00     0.275 HD
ENDBRANCH  15  20
ENDBRANCH  10  15
ENDBRANCH   5   8
ENDBRANCH   3   4
ENDBRANCH   2   3
ENDBRANCH   1   2
BRANCH   1  24
HETATM   24  N4  UNL     1      -4.753   0.123 -11.799  1.00  0.00    -0.404 N
ATOM     25  H4  UNL     1      -4.818  -0.869 -11.573  1.00  0.00     0.154 HD
BRANCH  24  26
HETATM   26  C15 UNL     1      -4.040   1.033 -10.957  1.00  0.00     0.170 C
BRANCH  26  27
HETATM   27  C16 UNL     1      -2.557   1.036 -11.198  1.00  0.00     0.034 C
BRANCH  27  28
HETATM   28  C17 UNL     1      -1.720   1.173  -9.963  1.00  0.00     0.002 C
BRANCH  28  29
HETATM   29  C18 UNL     1      -0.731   2.308 -10.243  1.00  0.00    -0.004 C
HETATM   30  C19 UNL     1      -0.442   2.468 -11.699  1.00  0.00     0.005 C
ENDBRANCH  28  29
ENDBRANCH  27  28
ENDBRANCH  26  27
BRANCH  26  31
HETATM   31  C20 UNL     1      -4.616   2.398 -11.119  1.00  0.00     0.242 C
HETATM   32  O3  UNL     1      -3.955   3.176 -11.890  1.00  0.00    -0.271 OA
HETATM   33  N5  UNL     1      -5.769   2.911 -10.539  1.00  0.00    -0.347 N
HETATM   34  C21 UNL     1      -6.108   4.321 -10.810  1.00  0.00     0.146 C
HETATM   35  C26 UNL     1      -6.736   2.230  -9.707  1.00  0.00     0.146 C
HETATM   36  C22 UNL     1      -6.600   5.012  -9.557  1.00  0.00     0.148 C
HETATM   37  N6  UNL     1      -6.455   4.241  -8.369  1.00  0.00    -0.325 N
HETATM   38  C23 UNL     1      -5.935   4.840  -7.196  1.00  0.00     0.362 C
HETATM   39  C25 UNL     1      -6.826   2.831  -8.304  1.00  0.00     0.148 C
HETATM   40  O4  UNL     1      -5.591   6.053  -7.163  1.00  0.00    -0.238 OA
BRANCH  38  41
HETATM   41  O5  UNL     1      -5.772   4.125  -6.005  1.00  0.00    -0.309 OA
HETATM   42  C24 UNL     1      -5.644   4.718  -4.739  1.00  0.00     0.215 C
ENDBRANCH  38  41
ENDBRANCH  26  31
ENDBRANCH  24  26
ENDBRANCH   1  24
BRANCH   1  43
HETATM   43  C27 UNL     1      -6.831   0.350 -13.106  1.00  0.00    -0.031 C
HETATM   44  C28 UNL     1      -7.007  -0.513 -14.364  1.00  0.00     0.016 C
HETATM   45  C29 UNL     1      -7.289  -0.504 -11.949  1.00  0.00     0.016 C
HETATM   46  C30 UNL     1      -7.737   1.514 -13.288  1.00  0.00     0.016 C
ENDBRANCH   1  43
TORSDOF 17
ENDMDL