MODEL 5
REMARK VINA RESULT: -8.735335841      1.312      1.536
REMARK  16 active torsions:
REMARK  status: ('A' for Active; 'I' for Inactive)
REMARK    1  A    between atoms: C2_2  and  C3_3
REMARK    2  A    between atoms: C3_3  and  C4_4
REMARK    3  A    between atoms: C4_4  and  C5_5
REMARK    4  A    between atoms: C5_5  and  N1_6
REMARK    5  A    between atoms: C5_5  and  C11_18
REMARK       I    between atoms: N1_6  and  C6_8
REMARK       I    between atoms: C6_8  and  N2_10
REMARK       I    between atoms: C11_18  and  N4_20
REMARK    6  A    between atoms: N4_20  and  C12_22
REMARK    7  A    between atoms: C12_22  and  C13_23
REMARK    8  A    between atoms: C12_22  and  C20_30
REMARK    9  A    between atoms: C13_23  and  C14_24
REMARK   10  A    between atoms: C20_30  and  C21_32
REMARK   11  A    between atoms: C21_32  and  O4_33
REMARK   12  A    between atoms: C21_32  and  C29_43
REMARK   13  A    between atoms: O4_33  and  C22_34
REMARK   14  A    between atoms: C22_34  and  O6_36
REMARK   15  A    between atoms: O6_36  and  C23_37
REMARK   16  A    between atoms: C29_43  and  O8_45
ROOT
HETATM    1  C12 UNL     1      19.080  33.219  15.312  1.00  0.00     0.158 C
ENDROOT
BRANCH   1   2
HETATM    2  N4  UNL     1      19.416  34.036  16.483  1.00  0.00    -0.348 N
HETATM    3  C11 UNL     1      20.562  34.879  16.485  1.00  0.00     0.241 C
HETATM    4  O2  UNL     1      21.289  34.920  15.465  1.00  0.00    -0.271 OA
ATOM      5  H4  UNL     1      18.819  33.998  17.309  1.00  0.00     0.163 HD
BRANCH   3   6
HETATM    6  C5  UNL     1      20.895  35.704  17.681  1.00  0.00     0.178 C
BRANCH   6   7
HETATM    7  C4  UNL     1      21.954  35.091  18.523  1.00  0.00     0.035 C
BRANCH   7   8
HETATM    8  C3  UNL     1      22.048  35.479  19.940  1.00  0.00     0.002 C
BRANCH   8   9
HETATM    9  C2  UNL     1      23.140  36.385  20.368  1.00  0.00    -0.004 C
HETATM   10  C1  UNL     1      24.111  35.599  21.282  1.00  0.00     0.005 C
ENDBRANCH   8   9
ENDBRANCH   7   8
ENDBRANCH   6   7
BRANCH   6  11
HETATM   11  N1  UNL     1      21.139  37.081  17.318  1.00  0.00    -0.330 N
HETATM   12  C6  UNL     1      20.537  38.165  18.004  1.00  0.00     0.319 C
HETATM   13  O1  UNL     1      19.766  37.933  18.953  1.00  0.00    -0.247 OA
HETATM   14  N2  UNL     1      20.799  39.509  17.629  1.00  0.00    -0.331 N
HETATM   15  C7  UNL     1      21.698  39.815  16.514  1.00  0.00     0.155 C
HETATM   16  C10 UNL     1      20.149  40.557  18.390  1.00  0.00     0.155 C
HETATM   17  C8  UNL     1      21.453  41.213  15.973  1.00  0.00     0.252 C
HETATM   18  N3  UNL     1      20.056  41.594  16.235  1.00  0.00    -0.072 N
HETATM   19  C9  UNL     1      19.938  41.831  17.658  1.00  0.00     0.252 C
ATOM     20  H32 UNL     1      19.744  42.384  15.671  1.00  0.00     0.277 HD
ATOM     21  H31 UNL     1      19.383  40.911  15.886  1.00  0.00     0.277 HD
ATOM     22  H1  UNL     1      21.768  37.280  16.539  1.00  0.00     0.165 HD
ENDBRANCH   6  11
ENDBRANCH   3   6
ENDBRANCH   1   2
BRANCH   1  23
HETATM   23  C13 UNL     1      17.635  33.356  15.035  1.00  0.00     0.037 C
BRANCH  23  24
HETATM   24  C14 UNL     1      16.774  34.114  15.947  1.00  0.00    -0.012 C
HETATM   25  C15 UNL     1      16.248  35.435  15.526  1.00  0.00     0.005 C
HETATM   26  C16 UNL     1      15.994  36.225  16.833  1.00  0.00     0.000 C
HETATM   27  C17 UNL     1      14.939  35.488  17.627  1.00  0.00     0.000 C
HETATM   28  C18 UNL     1      15.187  34.026  17.778  1.00  0.00     0.000 C
HETATM   29  C19 UNL     1      15.595  33.329  16.493  1.00  0.00     0.005 C
ENDBRANCH  23  24
ENDBRANCH   1  23
BRANCH   1  30
HETATM   30  C20 UNL     1      19.334  31.805  15.697  1.00  0.00     0.188 C
HETATM   31  O3  UNL     1      18.559  31.260  16.459  1.00  0.00    -0.292 OA
BRANCH  30  32
HETATM   32  C21 UNL     1      20.469  30.972  15.232  1.00  0.00     0.304 C
BRANCH  32  33
HETATM   33  O4  UNL     1      20.353  29.610  15.575  1.00  0.00    -0.275 OA
BRANCH  33  34
HETATM   34  C22 UNL     1      20.197  28.647  14.590  1.00  0.00     0.408 C
HETATM   35  O5  UNL     1      21.231  28.177  14.033  1.00  0.00    -0.229 OA
BRANCH  34  36
HETATM   36  O6  UNL     1      18.977  28.153  14.165  1.00  0.00    -0.293 OA
BRANCH  36  37
HETATM   37  C23 UNL     1      18.582  28.222  12.785  1.00  0.00     0.134 C
HETATM   38  C24 UNL     1      17.633  29.381  12.568  1.00  0.00     0.032 C
HETATM   39  C25 UNL     1      16.871  29.170  11.281  1.00  0.00     0.002 C
HETATM   40  C26 UNL     1      17.654  28.215  10.406  1.00  0.00     0.000 C
HETATM   41  C27 UNL     1      17.645  26.813  10.978  1.00  0.00     0.002 C
HETATM   42  C28 UNL     1      17.908  26.916  12.457  1.00  0.00     0.032 C
ENDBRANCH  36  37
ENDBRANCH  34  36
ENDBRANCH  33  34
ENDBRANCH  32  33
BRANCH  32  43
HETATM   43  C29 UNL     1      21.769  31.456  15.766  1.00  0.00     0.295 C
HETATM   44  O7  UNL     1      21.896  31.930  16.928  1.00  0.00    -0.262 OA
BRANCH  43  45
HETATM   45  O8  UNL     1      22.920  31.408  14.999  1.00  0.00    -0.324 OA
HETATM   46  C30 UNL     1      23.495  32.564  14.419  1.00  0.00     0.213 C
ENDBRANCH  43  45
ENDBRANCH  32  43
ENDBRANCH  30  32
ENDBRANCH   1  30
TORSDOF 16
ENDMDL