MODEL 5
REMARK VINA RESULT: -8.670973876      1.382      2.417
REMARK  14 active torsions:
REMARK  status: ('A' for Active; 'I' for Inactive)
REMARK    1  A    between atoms: O1_2  and  C2_3
REMARK    2  A    between atoms: C2_3  and  O2_4
REMARK    3  A    between atoms: O2_4  and  C3_5
REMARK    4  A    between atoms: C12_14  and  C13_15
REMARK    5  A    between atoms: C13_15  and  C14_17
REMARK    6  A    between atoms: C14_17  and  C15_18
REMARK    7  A    between atoms: C15_18  and  C16_19
REMARK       I    between atoms: C16_19  and  N1_21
REMARK    8  A    between atoms: N1_21  and  C17_23
REMARK    9  A    between atoms: C17_23  and  C18_24
REMARK   10  A    between atoms: C18_24  and  C19_25
REMARK   11  A    between atoms: C19_25  and  C20_26
REMARK   12  A    between atoms: C20_26  and  N2_27
REMARK       I    between atoms: N2_27  and  C21_29
REMARK   13  A    between atoms: C21_29  and  C22_31
REMARK   14  A    between atoms: C22_31  and  O6_33
ROOT
HETATM    1  C3  UNL     1      20.317  28.650  12.165  1.00  0.00     0.190 C
HETATM    2  C4  UNL     1      21.638  29.097  12.867  1.00  0.00     0.050 C
HETATM    3  C5  UNL     1      21.030  30.376  13.375  1.00  0.00    -0.001 C
HETATM    4  C6  UNL     1      20.847  31.100  12.117  1.00  0.00     0.019 C
HETATM    5  C7  UNL     1      21.589  31.330  14.299  1.00  0.00     0.002 C
HETATM    6  C8  UNL     1      22.672  32.258  13.877  1.00  0.00     0.007 C
HETATM    7  C9  UNL     1      23.166  32.968  15.111  1.00  0.00     0.011 C
HETATM    8  C10 UNL     1      22.187  33.271  16.165  1.00  0.00    -0.030 C
HETATM    9  C11 UNL     1      22.617  32.579  17.469  1.00  0.00     0.016 C
HETATM   10  C12 UNL     1      22.193  34.755  16.424  1.00  0.00     0.064 C
HETATM   11  C24 UNL     1      20.997  35.331  15.695  1.00  0.00     0.013 C
HETATM   12  C25 UNL     1      19.970  34.287  15.986  1.00  0.00     0.006 C
HETATM   13  C26 UNL     1      20.766  32.975  15.913  1.00  0.00    -0.001 C
HETATM   14  C27 UNL     1      20.400  32.276  14.616  1.00  0.00     0.001 C
HETATM   15  C28 UNL     1      19.113  31.604  14.839  1.00  0.00     0.017 C
HETATM   16  C29 UNL     1      18.172  31.157  13.855  1.00  0.00     0.176 C
HETATM   17  O7  UNL     1      18.370  30.114  13.000  1.00  0.00    -0.350 OA
HETATM   18  C30 UNL     1      19.262  29.156  13.190  1.00  0.00     0.224 A
HETATM   19  O8  UNL     1      19.603  28.387  14.246  1.00  0.00    -0.333 OA
HETATM   20  C31 UNL     1      20.077  29.651  14.206  1.00  0.00     0.131 A
HETATM   21  C32 UNL     1      19.596  30.282  15.474  1.00  0.00     0.052 C
ENDROOT
BRANCH  10  22
HETATM   22  C13 UNL     1      22.118  35.189  17.817  1.00  0.00     0.132 C
HETATM   23  O3  UNL     1      22.192  34.406  18.761  1.00  0.00    -0.298 OA
BRANCH  22  24
HETATM   24  C14 UNL     1      21.952  36.613  18.182  1.00  0.00     0.088 C
BRANCH  24  25
HETATM   25  C15 UNL     1      20.721  36.875  18.989  1.00  0.00     0.110 C
BRANCH  25  26
HETATM   26  C16 UNL     1      19.919  38.008  18.526  1.00  0.00     0.217 C
HETATM   27  O4  UNL     1      19.897  39.105  19.116  1.00  0.00    -0.274 OA
HETATM   28  N1  UNL     1      19.116  37.870  17.337  1.00  0.00    -0.361 N
ATOM     29  H1  UNL     1      19.096  36.986  16.829  1.00  0.00     0.162 HD
BRANCH  28  30
HETATM   30  C17 UNL     1      18.344  38.986  16.875  1.00  0.00     0.122 C
BRANCH  30  31
HETATM   31  C18 UNL     1      16.872  38.757  16.947  1.00  0.00     0.021 C
BRANCH  31  32
HETATM   32  C19 UNL     1      16.292  38.227  18.185  1.00  0.00     0.021 C
BRANCH  32  33
HETATM   33  C20 UNL     1      15.781  36.869  18.317  1.00  0.00     0.122 C
BRANCH  33  34
HETATM   34  N2  UNL     1      16.133  35.895  17.330  1.00  0.00    -0.359 N
HETATM   35  C21 UNL     1      15.881  34.518  17.423  1.00  0.00     0.246 C
HETATM   36  O5  UNL     1      15.300  34.049  18.417  1.00  0.00    -0.271 OA
ATOM     37  H2  UNL     1      16.606  36.229  16.490  1.00  0.00     0.162 HD
BRANCH  35  38
HETATM   38  C22 UNL     1      16.308  33.611  16.339  1.00  0.00     0.205 C
HETATM   39  C23 UNL     1      16.401  34.307  15.000  1.00  0.00     0.049 C
BRANCH  38  40
HETATM   40  O6  UNL     1      15.462  32.505  16.222  1.00  0.00    -0.387 OA
ATOM     41  H6  UNL     1      15.942  31.712  16.014  1.00  0.00     0.210 HD
ENDBRANCH  38  40
ENDBRANCH  35  38
ENDBRANCH  33  34
ENDBRANCH  32  33
ENDBRANCH  31  32
ENDBRANCH  30  31
ENDBRANCH  28  30
ENDBRANCH  25  26
ENDBRANCH  24  25
ENDBRANCH  22  24
ENDBRANCH  10  22
BRANCH   1  42
HETATM   42  O2  UNL     1      20.261  27.244  12.120  1.00  0.00    -0.356 OA
BRANCH  42  43
HETATM   43  C2  UNL     1      19.549  26.741  11.071  1.00  0.00     0.337 C
BRANCH  43  44
HETATM   44  O1  UNL     1      19.177  27.672  10.112  1.00  0.00    -0.372 OA
HETATM   45  C1  UNL     1      18.500  27.039   9.051  1.00  0.00     0.204 C
ENDBRANCH  43  44
ENDBRANCH  42  43
ENDBRANCH   1  42
TORSDOF 14
ENDMDL