MODEL 3
REMARK VINA RESULT: -9.084019422      2.377      7.029
REMARK  16 active torsions:
REMARK  status: ('A' for Active; 'I' for Inactive)
REMARK    1  A    between atoms: C2_2  and  C5_5
REMARK    2  A    between atoms: C8_8  and  C9_9
REMARK    3  A    between atoms: C9_9  and  O1_10
REMARK    4  A    between atoms: C9_9  and  C10_12
REMARK    5  A    between atoms: C12_16  and  C13_17
REMARK    6  A    between atoms: C13_17  and  O4_18
REMARK    7  A    between atoms: C13_17  and  C23_34
REMARK    8  A    between atoms: O4_18  and  C14_19
REMARK    9  A    between atoms: C14_19  and  C15_21
REMARK   10  A    between atoms: C15_21  and  C16_22
REMARK   11  A    between atoms: C16_22  and  C17_23
REMARK   12  A    between atoms: C17_23  and  C18_24
REMARK   13  A    between atoms: C18_24  and  C19_25
REMARK   14  A    between atoms: C19_25  and  C20_26
REMARK   15  A    between atoms: C20_26  and  C21_27
REMARK       I    between atoms: C21_27  and  N1_29
REMARK   16  A    between atoms: C26_37  and  C27_38
ROOT
HETATM    1  C13 UNL     1      18.776  31.239  14.031  1.00  0.00     0.090 C
ENDROOT
BRANCH   1   2
HETATM    2  C12 UNL     1      18.986  29.865  14.556  1.00  0.00     0.213 C
HETATM    3  C10 UNL     1      19.230  28.804  13.505  1.00  0.00     0.188 C
HETATM    4  O2  UNL     1      20.520  28.443  13.778  1.00  0.00    -0.356 OA
HETATM    5  C11 UNL     1      20.585  28.516  15.191  1.00  0.00     0.339 C
HETATM    6  O3  UNL     1      19.966  29.707  15.484  1.00  0.00    -0.352 OA
BRANCH   3   7
HETATM    7  C9  UNL     1      18.329  27.600  13.645  1.00  0.00     0.154 C
BRANCH   7   8
HETATM    8  C8  UNL     1      17.656  27.347  12.314  1.00  0.00     0.017 C
HETATM    9  C7  UNL     1      17.786  25.859  12.017  1.00  0.00     0.007 C
HETATM   10  C6  UNL     1      17.478  25.412  10.666  1.00  0.00     0.006 C
HETATM   11  C5  UNL     1      17.216  26.381   9.586  1.00  0.00    -0.007 C
HETATM   12  C31 UNL     1      17.240  27.822  10.025  1.00  0.00     0.006 C
HETATM   13  C30 UNL     1      18.278  28.031  11.138  1.00  0.00     0.007 C
BRANCH  11  14
HETATM   14  C2  UNL     1      18.040  26.175   8.323  1.00  0.00    -0.048 C
HETATM   15  C1  UNL     1      19.388  25.591   8.547  1.00  0.00     0.015 C
HETATM   16  C3  UNL     1      18.196  27.472   7.556  1.00  0.00     0.015 C
HETATM   17  C4  UNL     1      17.295  25.242   7.358  1.00  0.00     0.015 C
ENDBRANCH  11  14
ENDBRANCH   7   8
BRANCH   7  18
HETATM   18  O1  UNL     1      17.243  27.990  14.508  1.00  0.00    -0.393 OA
ATOM     19  H1  UNL     1      16.810  27.169  14.708  1.00  0.00     0.210 HD
ENDBRANCH   7  18
ENDBRANCH   3   7
ENDBRANCH   1   2
BRANCH   1  20
HETATM   20  O4  UNL     1      19.976  31.914  14.189  1.00  0.00    -0.280 OA
BRANCH  20  21
HETATM   21  C14 UNL     1      21.080  31.883  13.371  1.00  0.00     0.263 C
HETATM   22  O5  UNL     1      20.727  31.829  12.177  1.00  0.00    -0.265 OA
BRANCH  21  23
HETATM   23  C15 UNL     1      22.430  31.913  13.919  1.00  0.00     0.111 C
BRANCH  23  24
HETATM   24  C16 UNL     1      22.886  33.319  14.175  1.00  0.00     0.010 C
BRANCH  24  25
HETATM   25  C17 UNL     1      23.315  33.495  15.588  1.00  0.00     0.000 C
BRANCH  25  26
HETATM   26  C18 UNL     1      22.163  33.572  16.571  1.00  0.00     0.000 C
BRANCH  26  27
HETATM   27  C19 UNL     1      21.057  34.470  16.142  1.00  0.00     0.009 C
BRANCH  27  28
HETATM   28  C20 UNL     1      21.333  35.880  16.560  1.00  0.00     0.103 C
BRANCH  28  29
HETATM   29  C21 UNL     1      20.504  36.312  17.695  1.00  0.00     0.223 C
HETATM   30  O6  UNL     1      19.809  37.351  17.686  1.00  0.00    -0.273 OA
HETATM   31  N1  UNL     1      20.492  35.509  18.860  1.00  0.00    -0.304 N
HETATM   32  C22 UNL     1      21.210  35.668  19.894  1.00  0.00     0.203 C
ATOM     33  H1  UNL     1      19.842  34.722  18.869  1.00  0.00     0.171 HD
HETATM   34  N2  UNL     1      22.149  36.739  19.977  1.00  0.00    -0.066 NA
HETATM   35  N3  UNL     1      21.107  34.792  21.001  1.00  0.00    -0.066 NA
ENDBRANCH  28  29
ENDBRANCH  27  28
ENDBRANCH  26  27
ENDBRANCH  25  26
ENDBRANCH  24  25
ENDBRANCH  23  24
ENDBRANCH  21  23
ENDBRANCH  20  21
ENDBRANCH   1  20
BRANCH   1  36
HETATM   36  C23 UNL     1      17.520  31.947  14.297  1.00  0.00    -0.047 C
HETATM   37  C24 UNL     1      17.340  33.364  13.966  1.00  0.00     0.037 C
HETATM   38  C25 UNL     1      17.059  34.286  15.127  1.00  0.00     0.020 C
HETATM   39  C26 UNL     1      16.008  33.777  16.064  1.00  0.00     0.087 C
HETATM   40  C28 UNL     1      15.659  32.331  15.794  1.00  0.00     0.020 C
HETATM   41  C29 UNL     1      16.988  31.607  15.707  1.00  0.00     0.037 C
BRANCH  39  42
HETATM   42  C27 UNL     1      16.463  33.961  17.470  1.00  0.00     0.177 C
HETATM   43  O7  UNL     1      15.623  34.056  18.401  1.00  0.00    -0.648 OA
HETATM   44  O8  UNL     1      17.803  34.034  17.817  1.00  0.00    -0.648 OA
ENDBRANCH  39  42
ENDBRANCH   1  36
TORSDOF 16
ENDMDL