MODEL 2
REMARK VINA RESULT: -8.147756195      2.646      5.782
REMARK  15 active torsions:
REMARK  status: ('A' for Active; 'I' for Inactive)
REMARK    1  A    between atoms: C2_2  and  C3_4
REMARK    2  A    between atoms: C3_4  and  N1_5
REMARK    3  A    between atoms: C3_4  and  C18_24
REMARK       I    between atoms: N1_5  and  C4_7
REMARK    4  A    between atoms: C4_7  and  C5_9
REMARK    5  A    between atoms: C5_9  and  C6_11
REMARK    6  A    between atoms: C6_11  and  C7_12
REMARK    7  A    between atoms: C9_15  and  C10_16
REMARK    8  A    between atoms: C13_19  and  C14_20
REMARK       I    between atoms: C18_24  and  N2_26
REMARK    9  A    between atoms: N2_26  and  C19_28
REMARK   10  A    between atoms: C19_28  and  C20_29
REMARK   11  A    between atoms: C19_28  and  C27_41
REMARK       I    between atoms: C20_29  and  N3_31
REMARK   12  A    between atoms: N3_31  and  C21_32
REMARK   13  A    between atoms: C21_32  and  C22_33
REMARK   14  A    between atoms: C21_32  and  C24_38
REMARK   15  A    between atoms: C22_33  and  C23_35
ROOT
HETATM    1  C3  UNL     1      19.289  28.662  11.833  1.00  0.00     0.246 C
ENDROOT
BRANCH   1   2
HETATM    2  C2  UNL     1      18.205  28.487  10.828  1.00  0.00     0.154 C
HETATM    3  C1  UNL     1      18.253  27.564   9.680  1.00  0.00     0.093 C
HETATM    4  O1  UNL     1      17.188  29.184  10.991  1.00  0.00    -0.296 OA
ENDBRANCH   1   2
BRANCH   1   5
HETATM    5  N1  UNL     1      20.046  27.413  11.920  1.00  0.00    -0.335 N
HETATM    6  C4  UNL     1      21.310  27.249  11.339  1.00  0.00     0.288 C
HETATM    7  O2  UNL     1      21.842  28.204  10.731  1.00  0.00    -0.264 OA
ATOM      8  H1  UNL     1      19.636  26.628  12.425  1.00  0.00     0.164 HD
BRANCH   6   9
HETATM    9  C5  UNL     1      22.018  25.988  11.414  1.00  0.00     0.220 C
HETATM   10  O3  UNL     1      23.256  25.965  11.339  1.00  0.00    -0.287 OA
BRANCH   9  11
HETATM   11  C6  UNL     1      21.198  24.699  11.598  1.00  0.00     0.128 C
BRANCH  11  12
HETATM   12  C7  UNL     1      20.476  24.394  10.281  1.00  0.00    -0.036 A
HETATM   13  C8  UNL     1      21.228  24.572   9.147  1.00  0.00     0.058 A
HETATM   14  S1  UNL     1      20.187  24.179   7.886  1.00  0.00    -0.105 SA
HETATM   15  C9  UNL     1      18.769  23.776   8.819  1.00  0.00    -0.007 A
HETATM   16  C13 UNL     1      19.178  23.971  10.102  1.00  0.00    -0.030 A
BRANCH  15  17
HETATM   17  C10 UNL     1      17.510  23.387   8.131  1.00  0.00     0.018 C
HETATM   18  C11 UNL     1      17.879  22.534   6.896  1.00  0.00     0.015 C
HETATM   19  C12 UNL     1      16.840  24.623   7.508  1.00  0.00     0.015 C
ENDBRANCH  15  17
BRANCH  16  20
HETATM   20  C14 UNL     1      18.273  23.736  11.304  1.00  0.00    -0.022 C
HETATM   21  C15 UNL     1      18.917  22.946  12.400  1.00  0.00     0.019 C
HETATM   22  C16 UNL     1      17.135  22.775  10.783  1.00  0.00     0.019 C
HETATM   23  C17 UNL     1      17.487  24.921  11.742  1.00  0.00     0.019 C
ENDBRANCH  16  20
ENDBRANCH  11  12
ENDBRANCH   9  11
ENDBRANCH   6   9
ENDBRANCH   1   5
BRANCH   1  24
HETATM   24  C18 UNL     1      18.725  28.994  13.150  1.00  0.00     0.248 C
HETATM   25  O4  UNL     1      18.482  28.067  13.964  1.00  0.00    -0.271 OA
HETATM   26  N2  UNL     1      18.452  30.318  13.525  1.00  0.00    -0.344 N
ATOM     27  H2  UNL     1      18.656  31.059  12.855  1.00  0.00     0.163 HD
BRANCH  26  28
HETATM   28  C19 UNL     1      17.889  30.699  14.832  1.00  0.00     0.195 C
BRANCH  28  29
HETATM   29  C20 UNL     1      19.011  31.060  15.758  1.00  0.00     0.315 C
HETATM   30  O5  UNL     1      18.828  30.655  16.978  1.00  0.00    -0.255 OA
HETATM   31  N3  UNL     1      20.122  31.723  15.477  1.00  0.00    -0.369 NA
BRANCH  31  32
HETATM   32  C21 UNL     1      21.050  32.407  15.222  1.00  0.00     0.148 C
BRANCH  32  33
HETATM   33  C22 UNL     1      21.811  32.303  13.973  1.00  0.00     0.284 C
HETATM   34  O6  UNL     1      22.661  33.252  13.733  1.00  0.00    -0.278 OA
BRANCH  33  35
HETATM   35  C23 UNL     1      21.723  31.280  12.992  1.00  0.00     0.254 C
HETATM   36  O7  UNL     1      22.309  30.178  13.165  1.00  0.00    -0.641 OA
HETATM   37  O8  UNL     1      21.009  31.451  11.824  1.00  0.00    -0.641 OA
ENDBRANCH  33  35
ENDBRANCH  32  33
BRANCH  32  38
HETATM   38  C24 UNL     1      21.526  33.444  16.182  1.00  0.00     0.046 C
HETATM   39  C25 UNL     1      20.426  34.158  16.904  1.00  0.00     0.017 C
HETATM   40  C26 UNL     1      22.359  32.685  17.228  1.00  0.00     0.017 C
ENDBRANCH  32  38
ENDBRANCH  31  32
ENDBRANCH  28  29
BRANCH  28  41
HETATM   41  C27 UNL     1      16.849  31.755  14.683  1.00  0.00     0.010 C
HETATM   42  C28 UNL     1      17.418  33.120  14.420  1.00  0.00     0.012 C
HETATM   43  C29 UNL     1      15.872  31.799  15.827  1.00  0.00     0.012 C
ENDBRANCH  28  41
ENDBRANCH  26  28
ENDBRANCH   1  24
TORSDOF 15
ENDMDL