MODEL 4
REMARK VINA RESULT: -8.944905152      1.950      4.748
REMARK  14 active torsions:
REMARK  status: ('A' for Active; 'I' for Inactive)
REMARK    1  A    between atoms: C2_2  and  C3_3
REMARK    2  A    between atoms: C3_3  and  N1_4
REMARK    3  A    between atoms: C3_3  and  C15_20
REMARK       I    between atoms: N1_4  and  C4_6
REMARK    4  A    between atoms: C4_6  and  C5_8
REMARK    5  A    between atoms: C5_8  and  C6_9
REMARK    6  A    between atoms: C5_8  and  C10_13
REMARK    7  A    between atoms: C15_20  and  C16_22
REMARK    8  A    between atoms: C16_22  and  C17_24
REMARK    9  A    between atoms: C17_24  and  C18_25
REMARK   10  A    between atoms: C17_24  and  N2_31
REMARK   11  A    between atoms: C18_25  and  C19_26
REMARK       I    between atoms: N2_31  and  C24_33
REMARK   12  A    between atoms: C24_33  and  C25_35
REMARK   13  A    between atoms: C25_35  and  N3_36
REMARK   14  A    between atoms: C25_35  and  C29_43
REMARK       I    between atoms: N3_36  and  C26_38
REMARK       I    between atoms: C26_38  and  N4_40
ROOT
HETATM    1  C16 UNL     1      19.528  32.401  16.082  1.00  0.00     0.219 C
HETATM    2  O5  UNL     1      18.755  31.600  16.691  1.00  0.00    -0.287 OA
ENDROOT
BRANCH   1   3
HETATM    3  C15 UNL     1      20.895  32.001  15.849  1.00  0.00     0.219 C
HETATM    4  O4  UNL     1      21.655  31.896  16.846  1.00  0.00    -0.287 OA
BRANCH   3   5
HETATM    5  C3  UNL     1      21.499  31.696  14.540  1.00  0.00     0.162 C
BRANCH   5   6
HETATM    6  C2  UNL     1      23.012  31.373  14.678  1.00  0.00     0.029 C
HETATM    7  C1  UNL     1      23.782  32.661  14.452  1.00  0.00     0.007 C
ENDBRANCH   5   6
BRANCH   5   8
HETATM    8  N1  UNL     1      20.833  30.699  13.765  1.00  0.00    -0.349 N
HETATM    9  C4  UNL     1      20.129  30.838  12.565  1.00  0.00     0.226 C
HETATM   10  O1  UNL     1      20.004  31.962  11.967  1.00  0.00    -0.273 OA
ATOM     11  H1  UNL     1      20.877  29.751  14.140  1.00  0.00     0.163 HD
BRANCH   9  12
HETATM   12  C5  UNL     1      19.425  29.691  11.829  1.00  0.00     0.122 C
BRANCH  12  13
HETATM   13  C6  UNL     1      18.198  29.387  12.549  1.00  0.00    -0.036 C
HETATM   14  C7  UNL     1      18.221  28.160  13.438  1.00  0.00     0.015 C
HETATM   15  C8  UNL     1      17.621  30.512  13.379  1.00  0.00     0.015 C
HETATM   16  C9  UNL     1      17.057  29.049  11.554  1.00  0.00     0.015 C
ENDBRANCH  12  13
BRANCH  12  17
HETATM   17  C10 UNL     1      20.466  28.638  11.593  1.00  0.00     0.105 C
HETATM   18  C11 UNL     1      21.649  29.430  10.956  1.00  0.00     0.050 C
HETATM   19  C12 UNL     1      20.177  27.564  10.612  1.00  0.00     0.044 C
HETATM   20  C13 UNL     1      20.456  26.172  11.180  1.00  0.00     0.032 C
HETATM   21  C14 UNL     1      21.780  26.160  11.905  1.00  0.00     0.210 C
HETATM   22  O2  UNL     1      22.059  27.415  12.456  1.00  0.00    -0.240 OA
HETATM   23  O3  UNL     1      20.966  28.076  12.736  1.00  0.00    -0.229 OA
ENDBRANCH  12  17
ENDBRANCH   9  12
ENDBRANCH   5   8
ENDBRANCH   3   5
ENDBRANCH   1   3
BRANCH   1  24
HETATM   24  C17 UNL     1      18.927  33.684  15.670  1.00  0.00     0.163 C
BRANCH  24  25
HETATM   25  C18 UNL     1      17.440  33.574  15.501  1.00  0.00     0.038 C
BRANCH  25  26
HETATM   26  C19 UNL     1      16.651  34.211  16.632  1.00  0.00    -0.012 C
HETATM   27  C20 UNL     1      15.985  35.492  16.104  1.00  0.00     0.005 C
HETATM   28  C21 UNL     1      14.763  35.661  16.977  1.00  0.00     0.000 C
HETATM   29  C22 UNL     1      14.524  34.335  17.662  1.00  0.00     0.000 C
HETATM   30  C23 UNL     1      15.384  33.381  16.893  1.00  0.00     0.005 C
ENDBRANCH  25  26
ENDBRANCH  24  25
BRANCH  24  31
HETATM   31  N2  UNL     1      19.337  34.749  16.565  1.00  0.00    -0.347 N
HETATM   32  C24 UNL     1      20.508  35.507  16.549  1.00  0.00     0.241 C
HETATM   33  O6  UNL     1      21.357  35.259  15.606  1.00  0.00    -0.271 OA
ATOM     34  H2  UNL     1      18.677  34.975  17.310  1.00  0.00     0.163 HD
BRANCH  32  35
HETATM   35  C25 UNL     1      20.832  36.568  17.531  1.00  0.00     0.181 C
BRANCH  35  36
HETATM   36  N3  UNL     1      20.246  37.851  17.056  1.00  0.00    -0.329 N
HETATM   37  C26 UNL     1      18.913  38.221  17.326  1.00  0.00     0.318 C
HETATM   38  O7  UNL     1      18.177  37.442  17.994  1.00  0.00    -0.247 OA
HETATM   39  N4  UNL     1      18.359  39.444  16.874  1.00  0.00    -0.343 N
HETATM   40  C27 UNL     1      19.189  40.359  16.094  1.00  0.00     0.154 C
HETATM   41  C28 UNL     1      16.993  39.829  17.159  1.00  0.00     0.154 C
ATOM     42  H3  UNL     1      20.832  38.487  16.514  1.00  0.00     0.165 HD
ENDBRANCH  35  36
BRANCH  35  43
HETATM   43  C29 UNL     1      22.270  36.785  17.835  1.00  0.00     0.009 C
HETATM   44  C30 UNL     1      22.860  38.071  17.388  1.00  0.00     0.012 C
HETATM   45  C31 UNL     1      22.617  36.560  19.293  1.00  0.00     0.012 C
ENDBRANCH  35  43
ENDBRANCH  32  35
ENDBRANCH  24  31
ENDBRANCH   1  24
TORSDOF 14
ENDMDL