MODEL 2
REMARK VINA RESULT: -8.431898810      1.029      1.406
REMARK  14 active torsions:
REMARK  status: ('A' for Active; 'I' for Inactive)
REMARK    1  A    between atoms: O1_2  and  C2_3
REMARK    2  A    between atoms: C2_3  and  C3_5
REMARK    3  A    between atoms: C3_5  and  C4_6
REMARK    4  A    between atoms: C3_5  and  N1_10
REMARK    5  A    between atoms: C4_6  and  C5_7
REMARK    6  A    between atoms: C5_7  and  S1_8
REMARK       I    between atoms: N1_10  and  C7_12
REMARK    7  A    between atoms: C7_12  and  C8_14
REMARK    8  A    between atoms: C10_16  and  C11_17
REMARK       I    between atoms: N2_21  and  C14_22
REMARK    9  A    between atoms: C14_22  and  C15_24
REMARK   10  A    between atoms: C15_24  and  N3_25
REMARK   11  A    between atoms: C15_24  and  C24_39
REMARK       I    between atoms: N3_25  and  C16_27
REMARK   12  A    between atoms: C16_27  and  C17_29
REMARK   13  A    between atoms: C17_29  and  C18_30
REMARK   14  A    between atoms: C18_30  and  C19_31
ROOT
HETATM    1  C8  UNL     1      18.369  31.083  16.167  1.00  0.00     0.193 C
HETATM    2  C9  UNL     1      17.170  31.812  16.570  1.00  0.00     0.053 C
HETATM    3  C10 UNL     1      16.267  32.159  15.446  1.00  0.00     0.075 C
HETATM    4  S2  UNL     1      17.343  31.843  13.989  1.00  0.00    -0.044 SA
HETATM    5  N2  UNL     1      18.355  30.669  14.800  1.00  0.00    -0.276 N
HETATM    6  C14 UNL     1      19.020  29.584  14.221  1.00  0.00     0.253 C
HETATM    7  O4  UNL     1      19.775  28.818  14.917  1.00  0.00    -0.270 OA
ENDROOT
BRANCH   6   8
HETATM    8  C15 UNL     1      18.946  29.192  12.776  1.00  0.00     0.181 C
BRANCH   8   9
HETATM    9  N3  UNL     1      20.160  28.424  12.457  1.00  0.00    -0.347 N
HETATM   10  C16 UNL     1      21.302  29.043  11.904  1.00  0.00     0.218 C
HETATM   11  O5  UNL     1      21.232  30.301  11.694  1.00  0.00    -0.274 OA
ATOM     12  H3  UNL     1      20.177  27.421  12.640  1.00  0.00     0.163 HD
BRANCH  10  13
HETATM   13  C17 UNL     1      22.529  28.256  11.583  1.00  0.00     0.103 C
BRANCH  13  14
HETATM   14  C18 UNL     1      22.159  26.813  11.694  1.00  0.00     0.014 C
BRANCH  14  15
HETATM   15  C19 UNL     1      23.246  25.850  11.296  1.00  0.00    -0.011 C
HETATM   16  C20 UNL     1      22.891  25.230   9.988  1.00  0.00     0.032 C
HETATM   17  C21 UNL     1      23.949  25.527   8.918  1.00  0.00     0.232 C
HETATM   18  N4  UNL     1      25.211  25.101   9.444  1.00  0.00    -0.075 N
HETATM   19  C22 UNL     1      25.645  25.861  10.569  1.00  0.00     0.232 C
ATOM     20  H42 UNL     1      25.192  24.105   9.666  1.00  0.00     0.277 HD
ATOM     21  H41 UNL     1      25.924  25.097   8.714  1.00  0.00     0.277 HD
HETATM   22  C23 UNL     1      24.543  26.620  11.262  1.00  0.00     0.032 C
ENDBRANCH  14  15
ENDBRANCH  13  14
ENDBRANCH  10  13
ENDBRANCH   8   9
BRANCH   8  23
HETATM   23  C24 UNL     1      17.783  28.308  12.457  1.00  0.00     0.018 C
HETATM   24  C25 UNL     1      16.844  28.780  11.411  1.00  0.00     0.007 C
HETATM   25  C26 UNL     1      17.291  28.475   9.997  1.00  0.00     0.000 C
HETATM   26  C27 UNL     1      17.459  26.982   9.871  1.00  0.00     0.000 C
HETATM   27  C28 UNL     1      18.583  26.596  10.807  1.00  0.00     0.000 C
HETATM   28  C29 UNL     1      18.234  26.883  12.247  1.00  0.00     0.007 C
ENDBRANCH   8  23
ENDBRANCH   6   8
BRANCH   1  29
HETATM   29  C7  UNL     1      19.618  31.870  16.484  1.00  0.00     0.242 C
HETATM   30  N1  UNL     1      19.483  33.255  16.675  1.00  0.00    -0.345 N
ATOM     31  H1  UNL     1      18.552  33.664  16.591  1.00  0.00     0.163 HD
HETATM   32  O3  UNL     1      20.721  31.310  16.569  1.00  0.00    -0.271 OA
BRANCH  30  33
HETATM   33  C3  UNL     1      20.592  34.134  16.986  1.00  0.00     0.185 C
BRANCH  33  34
HETATM   34  C2  UNL     1      20.033  35.275  17.761  1.00  0.00     0.281 C
HETATM   35  O2  UNL     1      18.853  35.679  17.623  1.00  0.00    -0.263 OA
BRANCH  34  36
HETATM   36  O1  UNL     1      20.845  35.918  18.668  1.00  0.00    -0.325 OA
HETATM   37  C1  UNL     1      21.234  35.226  19.845  1.00  0.00     0.213 C
ENDBRANCH  34  36
ENDBRANCH  33  34
BRANCH  33  38
HETATM   38  C4  UNL     1      21.234  34.712  15.743  1.00  0.00     0.045 C
BRANCH  38  39
HETATM   39  C5  UNL     1      22.722  34.826  15.863  1.00  0.00     0.076 C
BRANCH  39  40
HETATM   40  S1  UNL     1      23.493  33.350  15.140  1.00  0.00    -0.173 SA
HETATM   41  C6  UNL     1      22.359  32.620  13.944  1.00  0.00     0.089 C
ENDBRANCH  39  40
ENDBRANCH  38  39
ENDBRANCH  33  38
ENDBRANCH  30  33
ENDBRANCH   1  29
BRANCH   3  42
HETATM   42  C11 UNL     1      15.751  33.563  15.433  1.00  0.00    -0.007 C
HETATM   43  C12 UNL     1      16.759  34.410  14.695  1.00  0.00     0.011 C
HETATM   44  C13 UNL     1      15.786  34.050  16.889  1.00  0.00     0.011 C
ENDBRANCH   3  42
TORSDOF 14
ENDMDL