MODEL 5
REMARK VINA RESULT: -7.352999226      3.696     10.551
REMARK  19 active torsions:
REMARK  status: ('A' for Active; 'I' for Inactive)
REMARK    1  A    between atoms: S1_2  and  C2_3
REMARK    2  A    between atoms: C2_3  and  C3_4
REMARK    3  A    between atoms: C3_4  and  C4_5
REMARK    4  A    between atoms: C4_5  and  N1_6
REMARK    5  A    between atoms: C4_5  and  C29_42
REMARK    6  A    between atoms: N1_6  and  C5_8
REMARK    7  A    between atoms: C5_8  and  C6_9
REMARK    8  A    between atoms: C5_8  and  C11_16
REMARK    9  A    between atoms: C6_9  and  O2_11
REMARK   10  A    between atoms: O2_11  and  C7_12
REMARK   11  A    between atoms: C11_16  and  C12_17
REMARK   12  A    between atoms: C11_16  and  N2_21
REMARK   13  A    between atoms: C12_17  and  C13_18
REMARK       I    between atoms: N2_21  and  C16_23
REMARK   14  A    between atoms: C16_23  and  C17_25
REMARK   15  A    between atoms: C17_25  and  N3_26
REMARK   16  A    between atoms: C17_25  and  C23_36
REMARK   17  A    between atoms: C18_28  and  O4_29
REMARK   18  A    between atoms: C18_28  and  O5_31
REMARK   19  A    between atoms: O5_31  and  C19_32
ROOT
HETATM    1  C11 UNL     1      21.908  27.843  11.613  1.00  0.00     0.117 C
ENDROOT
BRANCH   1   2
HETATM    2  C5  UNL     1      20.767  26.867  11.311  1.00  0.00     0.201 C
BRANCH   2   3
HETATM    3  N1  UNL     1      19.666  27.358  10.657  1.00  0.00    -0.395 N
ATOM      4  H1  UNL     1      19.832  27.967   9.855  1.00  0.00     0.155 HD
BRANCH   3   5
HETATM    5  C4  UNL     1      18.327  27.094  10.999  1.00  0.00     0.168 C
BRANCH   5   6
HETATM    6  C3  UNL     1      17.332  26.789   9.961  1.00  0.00     0.044 C
BRANCH   6   7
HETATM    7  C2  UNL     1      17.432  25.404   9.331  1.00  0.00     0.076 C
BRANCH   7   8
HETATM    8  S1  UNL     1      17.545  25.671   7.500  1.00  0.00    -0.173 SA
HETATM    9  C1  UNL     1      18.231  27.347   7.213  1.00  0.00     0.089 C
ENDBRANCH   7   8
ENDBRANCH   6   7
ENDBRANCH   5   6
BRANCH   5  10
HETATM   10  C29 UNL     1      17.919  28.184  11.964  1.00  0.00     0.253 C
HETATM   11  N4  UNL     1      17.994  29.562  11.697  1.00  0.00    -0.060 NA
HETATM   12  O6  UNL     1      17.469  27.865  13.102  1.00  0.00    -0.275 OA
ENDBRANCH   5  10
ENDBRANCH   3   5
ENDBRANCH   2   3
BRANCH   2  13
HETATM   13  C6  UNL     1      21.386  25.637  10.838  1.00  0.00     0.283 C
HETATM   14  O1  UNL     1      22.000  24.837  11.531  1.00  0.00    -0.263 OA
BRANCH  13  15
HETATM   15  O2  UNL     1      21.297  25.290   9.459  1.00  0.00    -0.314 OA
BRANCH  15  16
HETATM   16  C7  UNL     1      21.542  23.966   9.038  1.00  0.00     0.132 C
HETATM   17  C8  UNL     1      22.788  23.751   8.231  1.00  0.00     0.032 C
HETATM   18  C9  UNL     1      21.988  23.771   6.918  1.00  0.00     0.005 C
HETATM   19  C10 UNL     1      20.751  23.669   7.766  1.00  0.00     0.032 C
ENDBRANCH  15  16
ENDBRANCH  13  15
ENDBRANCH   2  13
ENDBRANCH   1   2
BRANCH   1  20
HETATM   20  C12 UNL     1      22.905  28.048  10.588  1.00  0.00     0.031 C
BRANCH  20  21
HETATM   21  C13 UNL     1      24.324  27.712  10.739  1.00  0.00    -0.021 C
HETATM   22  C14 UNL     1      24.567  26.588   9.685  1.00  0.00     0.009 C
HETATM   23  C15 UNL     1      24.704  27.010  12.032  1.00  0.00     0.009 C
ENDBRANCH  20  21
ENDBRANCH   1  20
BRANCH   1  24
HETATM   24  N2  UNL     1      21.335  29.055  12.226  1.00  0.00    -0.349 N
HETATM   25  C16 UNL     1      21.155  29.173  13.605  1.00  0.00     0.264 C
HETATM   26  O3  UNL     1      21.507  28.210  14.330  1.00  0.00    -0.266 OA
ATOM     27  H2  UNL     1      21.063  29.831  11.624  1.00  0.00     0.163 HD
BRANCH  25  28
HETATM   28  C17 UNL     1      20.564  30.375  14.279  1.00  0.00     0.085 C
BRANCH  28  29
HETATM   29  N3  UNL     1      19.343  30.395  14.392  1.00  0.00    -0.315 N
HETATM   30  C18 UNL     1      18.261  30.586  15.181  1.00  0.00     0.263 C
ATOM     31  H3  UNL     1      18.975  30.160  13.470  1.00  0.00     0.170 HD
BRANCH  30  32
HETATM   32  O4  UNL     1      17.220  29.830  14.992  1.00  0.00    -0.327 OA
ATOM     33  H4  UNL     1      16.392  30.103  15.368  1.00  0.00     0.221 HD
ENDBRANCH  30  32
BRANCH  30  34
HETATM   34  O5  UNL     1      18.060  31.499  16.209  1.00  0.00    -0.306 OA
BRANCH  34  35
HETATM   35  C19 UNL     1      17.528  32.794  16.013  1.00  0.00     0.060 C
HETATM   36  C20 UNL     1      16.031  32.831  16.190  1.00  0.00     0.046 C
HETATM   37  C21 UNL     1      17.873  33.343  14.654  1.00  0.00     0.046 C
HETATM   38  C22 UNL     1      18.124  33.721  17.051  1.00  0.00     0.046 C
ENDBRANCH  34  35
ENDBRANCH  30  34
ENDBRANCH  28  29
BRANCH  28  39
HETATM   39  C23 UNL     1      21.484  31.420  14.710  1.00  0.00     0.041 C
HETATM   40  C24 UNL     1      21.471  31.761  16.177  1.00  0.00     0.011 C
HETATM   41  C25 UNL     1      21.956  33.204  16.260  1.00  0.00     0.001 C
HETATM   42  C26 UNL     1      23.302  33.370  15.629  1.00  0.00     0.000 C
HETATM   43  C27 UNL     1      23.418  32.786  14.252  1.00  0.00     0.001 C
HETATM   44  C28 UNL     1      22.906  31.323  14.223  1.00  0.00     0.011 C
ENDBRANCH  28  39
ENDBRANCH  25  28
ENDBRANCH   1  24
TORSDOF 19
ENDMDL