MODEL 4
REMARK VINA RESULT: -8.186575805      2.032      4.157
REMARK  16 active torsions:
REMARK  status: ('A' for Active; 'I' for Inactive)
REMARK    1  A    between atoms: C2_2  and  C4_4
REMARK    2  A    between atoms: C4_4  and  C5_5
REMARK    3  A    between atoms: C5_5  and  N1_6
REMARK    4  A    between atoms: C5_5  and  C23_33
REMARK       I    between atoms: N1_6  and  C6_8
REMARK    5  A    between atoms: C6_8  and  C7_10
REMARK    6  A    between atoms: C7_10  and  N2_12
REMARK       I    between atoms: N2_12  and  C9_14
REMARK    7  A    between atoms: C9_14  and  C10_16
REMARK    8  A    between atoms: C10_16  and  C11_17
REMARK    9  A    between atoms: C10_16  and  N3_24
REMARK   10  A    between atoms: C11_17  and  C12_18
REMARK       I    between atoms: N3_24  and  C18_26
REMARK   11  A    between atoms: C18_26  and  O4_28
REMARK   12  A    between atoms: O4_28  and  C19_29
REMARK   13  A    between atoms: C23_33  and  C24_35
REMARK   14  A    between atoms: C24_35  and  S1_36
REMARK   15  A    between atoms: S1_36  and  C25_37
REMARK   16  A    between atoms: C25_37  and  C27_39
REMARK       I    between atoms: C27_39  and  N4_41
ROOT
HETATM    1  C7  UNL     1      21.801  32.540  14.128  1.00  0.00     0.172 C
HETATM    2  C8  UNL     1      23.049  31.858  14.757  1.00  0.00     0.042 C
ENDROOT
BRANCH   1   3
HETATM    3  C6  UNL     1      21.165  31.552  13.235  1.00  0.00     0.240 C
HETATM    4  N1  UNL     1      20.924  30.238  13.689  1.00  0.00    -0.348 N
ATOM      5  H1  UNL     1      21.208  29.996  14.638  1.00  0.00     0.163 HD
HETATM    6  O1  UNL     1      20.835  31.872  12.075  1.00  0.00    -0.271 OA
BRANCH   4   7
HETATM    7  C5  UNL     1      20.282  29.194  12.862  1.00  0.00     0.159 C
BRANCH   7   8
HETATM    8  C4  UNL     1      19.433  28.411  13.838  1.00  0.00     0.037 C
BRANCH   8   9
HETATM    9  C2  UNL     1      17.967  28.585  13.584  1.00  0.00    -0.020 C
HETATM   10  C1  UNL     1      17.374  27.217  13.261  1.00  0.00     0.009 C
HETATM   11  C3  UNL     1      17.651  29.467  12.411  1.00  0.00     0.009 C
ENDBRANCH   8   9
ENDBRANCH   7   8
BRANCH   7  12
HETATM   12  C23 UNL     1      21.315  28.298  12.317  1.00  0.00     0.178 C
HETATM   13  O5  UNL     1      22.392  28.214  12.986  1.00  0.00    -0.290 OA
BRANCH  12  14
HETATM   14  C24 UNL     1      21.275  27.486  11.125  1.00  0.00     0.098 C
BRANCH  14  15
HETATM   15  S1  UNL     1      20.057  26.278  10.823  1.00  0.00    -0.124 SA
BRANCH  15  16
HETATM   16  C25 UNL     1      20.475  24.644  10.335  1.00  0.00     0.139 C
HETATM   17  C26 UNL     1      20.021  23.590  11.266  1.00  0.00     0.031 C
BRANCH  16  18
HETATM   18  C27 UNL     1      21.973  24.506  10.198  1.00  0.00     0.232 C
HETATM   19  O6  UNL     1      22.677  24.418  11.204  1.00  0.00    -0.272 OA
HETATM   20  N4  UNL     1      22.572  24.479   8.911  1.00  0.00    -0.360 N
HETATM   21  C28 UNL     1      23.999  24.351   8.800  1.00  0.00     0.152 C
HETATM   22  C29 UNL     1      21.764  24.578   7.705  1.00  0.00     0.152 C
ENDBRANCH  16  18
ENDBRANCH  15  16
ENDBRANCH  14  15
ENDBRANCH  12  14
ENDBRANCH   7  12
ENDBRANCH   4   7
ENDBRANCH   1   3
BRANCH   1  23
HETATM   23  N2  UNL     1      20.990  32.891  15.251  1.00  0.00    -0.346 N
HETATM   24  C9  UNL     1      20.880  34.208  15.774  1.00  0.00     0.241 C
HETATM   25  O2  UNL     1      21.545  35.109  15.199  1.00  0.00    -0.271 OA
ATOM     26  H2  UNL     1      20.457  32.150  15.705  1.00  0.00     0.163 HD
BRANCH  24  27
HETATM   27  C10 UNL     1      20.023  34.511  16.950  1.00  0.00     0.179 C
BRANCH  27  28
HETATM   28  C11 UNL     1      18.714  33.784  16.938  1.00  0.00     0.039 C
BRANCH  28  29
HETATM   29  C12 UNL     1      17.841  33.973  15.775  1.00  0.00    -0.012 C
HETATM   30  C13 UNL     1      17.662  32.809  14.864  1.00  0.00     0.005 C
HETATM   31  C14 UNL     1      16.725  31.748  15.388  1.00  0.00     0.000 C
HETATM   32  C15 UNL     1      15.365  32.357  15.757  1.00  0.00     0.000 C
HETATM   33  C16 UNL     1      15.688  33.334  16.898  1.00  0.00     0.000 C
HETATM   34  C17 UNL     1      16.486  34.443  16.284  1.00  0.00     0.005 C
ENDBRANCH  28  29
ENDBRANCH  27  28
BRANCH  27  35
HETATM   35  N3  UNL     1      19.724  35.927  16.954  1.00  0.00    -0.324 N
HETATM   36  C18 UNL     1      19.788  36.704  18.165  1.00  0.00     0.362 C
HETATM   37  O3  UNL     1      20.102  36.137  19.241  1.00  0.00    -0.238 OA
ATOM     38  H3  UNL     1      19.462  36.385  16.081  1.00  0.00     0.165 HD
BRANCH  36  39
HETATM   39  O4  UNL     1      19.518  38.046  18.184  1.00  0.00    -0.294 OA
BRANCH  39  40
HETATM   40  C19 UNL     1      18.233  38.622  18.052  1.00  0.00     0.061 C
HETATM   41  C20 UNL     1      18.137  39.304  16.700  1.00  0.00     0.046 C
HETATM   42  C21 UNL     1      17.104  37.658  18.205  1.00  0.00     0.046 C
HETATM   43  C22 UNL     1      18.031  39.725  19.100  1.00  0.00     0.046 C
ENDBRANCH  39  40
ENDBRANCH  36  39
ENDBRANCH  27  35
ENDBRANCH  24  27
ENDBRANCH   1  23
TORSDOF 16
ENDMDL