MODEL 5
REMARK VINA RESULT: -8.102168868      3.328      8.482
REMARK  15 active torsions:
REMARK  status: ('A' for Active; 'I' for Inactive)
REMARK    1  A    between atoms: N1_1  and  C1_5
REMARK    2  A    between atoms: C1_5  and  C2_6
REMARK    3  A    between atoms: C2_6  and  S1_7
REMARK    4  A    between atoms: S1_7  and  O1_8
REMARK    5  A    between atoms: O1_8  and  N2_9
REMARK    6  A    between atoms: C5_16  and  C6_17
REMARK    7  A    between atoms: C5_16  and  C20_32
REMARK    8  A    between atoms: C6_17  and  C7_18
REMARK    9  A    between atoms: C7_18  and  N4_19
REMARK   10  A    between atoms: C10_22  and  C11_23
REMARK   11  A    between atoms: C11_23  and  C12_24
REMARK   12  A    between atoms: C23_35  and  O4_36
REMARK   13  A    between atoms: O4_36  and  C24_37
REMARK   14  A    between atoms: C24_37  and  C25_38
REMARK   15  A    between atoms: C25_38  and  N5_39
ROOT
HETATM    1  N2  UNL     1      20.553  30.484  14.561  1.00  0.00    -0.170 N
HETATM    2  C3  UNL     1      21.526  31.537  14.655  1.00  0.00     0.351 C
HETATM    3  O2  UNL     1      22.289  31.728  15.646  1.00  0.00    -0.244 OA
HETATM    4  N3  UNL     1      21.442  32.273  13.446  1.00  0.00    -0.275 N
ATOM      5  H3  UNL     1      22.002  33.087  13.193  1.00  0.00     0.173 HD
HETATM    6  C4  UNL     1      20.425  31.659  12.645  1.00  0.00     0.261 C
HETATM    7  O3  UNL     1      19.808  32.210  11.708  1.00  0.00    -0.270 OA
HETATM    8  C5  UNL     1      20.245  30.259  13.134  1.00  0.00     0.175 C
ENDROOT
BRANCH   8   9
HETATM    9  C6  UNL     1      18.851  29.785  13.078  1.00  0.00     0.069 C
BRANCH   9  10
HETATM   10  C7  UNL     1      18.630  28.327  13.407  1.00  0.00     0.125 C
BRANCH  10  11
HETATM   11  N4  UNL     1      17.836  27.786  12.361  1.00  0.00    -0.393 N
HETATM   12  C8  UNL     1      17.581  28.624  11.248  1.00  0.00     0.122 C
HETATM   13  C9  UNL     1      17.607  27.906   9.933  1.00  0.00     0.024 C
HETATM   14  C10 UNL     1      18.839  26.958   9.873  1.00  0.00    -0.008 C
HETATM   15  C18 UNL     1      18.612  25.934  10.900  1.00  0.00     0.049 C
HETATM   16  C19 UNL     1      17.854  26.405  12.130  1.00  0.00     0.058 C
BRANCH  14  17
HETATM   17  C11 UNL     1      18.979  26.604   8.457  1.00  0.00     0.009 C
BRANCH  17  18
HETATM   18  C12 UNL     1      17.883  26.784   7.497  1.00  0.00    -0.014 C
HETATM   19  C13 UNL     1      17.299  25.390   7.144  1.00  0.00     0.005 C
HETATM   20  C14 UNL     1      18.247  24.526   6.401  1.00  0.00     0.000 C
HETATM   21  C15 UNL     1      18.597  25.167   5.051  1.00  0.00     0.000 C
HETATM   22  C16 UNL     1      19.232  26.486   5.379  1.00  0.00     0.000 C
HETATM   23  C17 UNL     1      18.287  27.368   6.174  1.00  0.00     0.005 C
ENDBRANCH  17  18
ENDBRANCH  14  17
ENDBRANCH  10  11
ENDBRANCH   9  10
ENDBRANCH   8   9
BRANCH   8  24
HETATM   24  C20 UNL     1      21.276  29.380  12.587  1.00  0.00    -0.018 A
HETATM   25  C21 UNL     1      21.327  29.266  11.206  1.00  0.00     0.013 A
HETATM   26  C22 UNL     1      22.266  28.473  10.590  1.00  0.00     0.037 A
HETATM   27  C23 UNL     1      23.197  27.756  11.325  1.00  0.00     0.068 A
HETATM   28  C30 UNL     1      23.137  27.874  12.685  1.00  0.00     0.037 A
HETATM   29  C31 UNL     1      22.202  28.666  13.319  1.00  0.00     0.013 A
BRANCH  27  30
HETATM   30  O4  UNL     1      24.144  26.956  10.663  1.00  0.00    -0.349 OA
BRANCH  30  31
HETATM   31  C24 UNL     1      24.489  25.674  11.214  1.00  0.00     0.206 C
BRANCH  31  32
HETATM   32  C25 UNL     1      24.053  24.564  10.323  1.00  0.00     0.299 C
BRANCH  32  33
HETATM   33  N5  UNL     1      23.476  24.996   9.079  1.00  0.00     0.090 N
HETATM   34  C26 UNL     1      24.224  24.661   7.925  1.00  0.00     0.272 C
HETATM   35  C27 UNL     1      23.238  24.142   6.900  1.00  0.00     0.032 C
HETATM   36  C28 UNL     1      21.904  24.706   7.397  1.00  0.00     0.032 C
HETATM   37  C29 UNL     1      22.124  24.567   8.908  1.00  0.00     0.272 C
ENDBRANCH  32  33
ENDBRANCH  31  32
ENDBRANCH  30  31
ENDBRANCH  27  30
ENDBRANCH   8  24
BRANCH   1  38
HETATM   38  O1  UNL     1      20.011  29.822  15.592  1.00  0.00    -0.196 OA
BRANCH  38  39
HETATM   39  S1  UNL     1      19.076  30.809  16.605  1.00  0.00     0.022 SA
BRANCH  39  40
HETATM   40  C2  UNL     1      17.870  31.805  15.730  1.00  0.00     0.135 C
BRANCH  40  41
HETATM   41  C1  UNL     1      18.331  33.240  15.624  1.00  0.00     0.242 C
BRANCH  41  42
HETATM   42  N1  UNL     1      18.171  33.734  14.249  1.00  0.00    -0.079 N
ATOM     43  H13 UNL     1      18.186  32.974  13.569  1.00  0.00     0.274 HD
ATOM     44  H12 UNL     1      17.225  34.074  14.076  1.00  0.00     0.274 HD
ATOM     45  H11 UNL     1      18.873  34.444  14.039  1.00  0.00     0.274 HD
ENDBRANCH  41  42
ENDBRANCH  40  41
ENDBRANCH  39  40
ENDBRANCH  38  39
ENDBRANCH   1  38
TORSDOF 15
ENDMDL