MODEL 2
REMARK VINA RESULT: -8.252933246      2.850     10.126
REMARK  18 active torsions:
REMARK  status: ('A' for Active; 'I' for Inactive)
REMARK    1  A    between atoms: C2_2  and  C3_3
REMARK    2  A    between atoms: C3_3  and  C5_5
REMARK    3  A    between atoms: C5_5  and  N1_6
REMARK    4  A    between atoms: C5_5  and  C11_15
REMARK       I    between atoms: N1_6  and  C6_8
REMARK    5  A    between atoms: C6_8  and  O2_10
REMARK    6  A    between atoms: O2_10  and  C7_11
REMARK       I    between atoms: C11_15  and  N2_17
REMARK    7  A    between atoms: N2_17  and  C12_19
REMARK    8  A    between atoms: C12_19  and  C13_20
REMARK    9  A    between atoms: C12_19  and  C26_42
REMARK   10  A    between atoms: C13_20  and  O4_21
REMARK   11  A    between atoms: C13_20  and  N3_23
REMARK   12  A    between atoms: C17_27  and  C18_28
REMARK       I    between atoms: C18_28  and  N4_30
REMARK   13  A    between atoms: N4_30  and  C19_32
REMARK   14  A    between atoms: C19_32  and  S1_33
REMARK   15  A    between atoms: C19_32  and  C23_39
REMARK   16  A    between atoms: S1_33  and  C20_34
REMARK   17  A    between atoms: C20_34  and  C21_35
REMARK   18  A    between atoms: C21_35  and  O7_37
ROOT
HETATM    1  C12 UNL     1      18.164  28.028  12.417  1.00  0.00     0.162 C
ENDROOT
BRANCH   1   2
HETATM    2  N2  UNL     1      18.917  27.281  11.392  1.00  0.00    -0.347 N
HETATM    3  C11 UNL     1      18.731  26.003  10.938  1.00  0.00     0.241 C
HETATM    4  O3  UNL     1      17.801  25.251  11.399  1.00  0.00    -0.271 OA
ATOM      5  H2  UNL     1      19.687  27.791  10.959  1.00  0.00     0.163 HD
BRANCH   3   6
HETATM    6  C5  UNL     1      19.567  25.308   9.862  1.00  0.00     0.182 C
BRANCH   6   7
HETATM    7  C3  UNL     1      18.928  25.497   8.559  1.00  0.00     0.013 C
HETATM    8  C4  UNL     1      20.043  25.196   7.507  1.00  0.00     0.012 C
BRANCH   7   9
HETATM    9  C2  UNL     1      18.614  26.970   8.263  1.00  0.00     0.002 C
HETATM   10  C1  UNL     1      18.259  27.030   6.794  1.00  0.00     0.005 C
ENDBRANCH   7   9
ENDBRANCH   6   7
BRANCH   6  11
HETATM   11  N1  UNL     1      20.875  25.910  10.058  1.00  0.00    -0.323 N
HETATM   12  C6  UNL     1      21.884  25.357  10.841  1.00  0.00     0.362 C
HETATM   13  O1  UNL     1      21.698  24.274  11.442  1.00  0.00    -0.238 OA
ATOM     14  H1  UNL     1      21.067  26.797   9.591  1.00  0.00     0.165 HD
BRANCH  12  15
HETATM   15  O2  UNL     1      23.101  25.971  10.980  1.00  0.00    -0.294 OA
BRANCH  15  16
HETATM   16  C7  UNL     1      24.003  26.261   9.973  1.00  0.00     0.061 C
HETATM   17  C8  UNL     1      25.442  25.946  10.365  1.00  0.00     0.046 C
HETATM   18  C9  UNL     1      23.933  27.739   9.664  1.00  0.00     0.046 C
HETATM   19  C10 UNL     1      23.741  25.522   8.681  1.00  0.00     0.046 C
ENDBRANCH  15  16
ENDBRANCH  12  15
ENDBRANCH   6  11
ENDBRANCH   3   6
ENDBRANCH   1   2
BRANCH   1  20
HETATM   20  C13 UNL     1      19.016  28.236  13.582  1.00  0.00     0.138 C
BRANCH  20  21
HETATM   21  O4  UNL     1      18.571  27.719  14.709  1.00  0.00    -0.348 OA
ATOM     22  H4  UNL     1      18.408  26.784  14.694  1.00  0.00     0.219 HD
ENDBRANCH  20  21
BRANCH  20  23
HETATM   23  N3  UNL     1      20.238  28.900  13.730  1.00  0.00    -0.350 N
HETATM   24  C14 UNL     1      21.538  28.358  14.003  1.00  0.00     0.126 C
HETATM   25  C15 UNL     1      22.474  29.211  13.178  1.00  0.00     0.022 C
HETATM   26  C16 UNL     1      21.709  30.442  12.779  1.00  0.00     0.037 C
HETATM   27  C17 UNL     1      20.455  30.351  13.618  1.00  0.00     0.178 C
BRANCH  27  28
HETATM   28  C18 UNL     1      20.552  31.032  14.917  1.00  0.00     0.241 C
HETATM   29  O5  UNL     1      20.112  30.434  15.955  1.00  0.00    -0.271 OA
HETATM   30  N4  UNL     1      21.117  32.309  15.040  1.00  0.00    -0.346 N
ATOM     31  H4  UNL     1      21.452  32.755  14.186  1.00  0.00     0.163 HD
BRANCH  30  32
HETATM   32  C19 UNL     1      21.266  33.052  16.279  1.00  0.00     0.150 C
BRANCH  32  33
HETATM   33  S1  UNL     1      19.981  34.270  16.533  1.00  0.00    -0.134 SA
BRANCH  33  34
HETATM   34  C20 UNL     1      18.376  33.458  16.689  1.00  0.00     0.187 C
BRANCH  34  35
HETATM   35  C21 UNL     1      17.639  33.421  15.398  1.00  0.00     0.267 C
HETATM   36  O6  UNL     1      18.217  33.518  14.273  1.00  0.00    -0.264 OA
BRANCH  35  37
HETATM   37  O7  UNL     1      16.257  33.277  15.348  1.00  0.00    -0.326 OA
HETATM   38  C22 UNL     1      15.600  32.135  15.863  1.00  0.00     0.213 C
ENDBRANCH  35  37
ENDBRANCH  34  35
ENDBRANCH  33  34
ENDBRANCH  32  33
BRANCH  32  39
HETATM   39  C23 UNL     1      22.630  33.724  16.346  1.00  0.00     0.010 C
HETATM   40  C24 UNL     1      23.518  33.296  15.215  1.00  0.00     0.012 C
HETATM   41  C25 UNL     1      22.504  35.233  16.436  1.00  0.00     0.012 C
ENDBRANCH  32  39
ENDBRANCH  30  32
ENDBRANCH  27  28
ENDBRANCH  20  23
ENDBRANCH   1  20
BRANCH   1  42
HETATM   42  C26 UNL     1      17.607  29.251  11.748  1.00  0.00     0.008 C
HETATM   43  C27 UNL     1      17.157  30.346  12.729  1.00  0.00     0.012 C
HETATM   44  C28 UNL     1      16.399  28.879  10.901  1.00  0.00     0.012 C
ENDBRANCH   1  42
TORSDOF 18
ENDMDL