MODEL 5
REMARK VINA RESULT: -6.571827591      6.378     10.219
REMARK  4 active torsions:
REMARK  status: ('A' for Active; 'I' for Inactive)
REMARK       I    between atoms: C1_2  and  N2_4
REMARK       I    between atoms: N3_7  and  C4_8
REMARK       I    between atoms: C4_8  and  N4_10
REMARK    1  A    between atoms: N4_10  and  C5_12
REMARK    2  A    between atoms: C5_12  and  C6_13
REMARK    3  A    between atoms: C7_14  and  C8_15
REMARK    4  A    between atoms: C8_15  and  C9_16
ROOT
HETATM    1  N1  UNL     1      15.307  11.900  25.735  1.00  0.00    -0.040 NA
HETATM    2  C1  UNL     1      15.045  10.678  25.065  1.00  0.00     0.330 C
HETATM    3  O1  UNL     1      14.832   9.604  25.718  1.00  0.00    -0.251 OA
HETATM    4  N2  UNL     1      15.005  10.584  23.654  1.00  0.00    -0.333 N
HETATM    5  C2  UNL     1      14.740   9.355  22.953  1.00  0.00     0.147 C
HETATM    6  C3  UNL     1      15.562   9.153  21.731  1.00  0.00     0.147 C
HETATM    7  N3  UNL     1      16.495  10.219  21.446  1.00  0.00    -0.331 N
HETATM    8  C4  UNL     1      17.554   9.924  20.549  1.00  0.00     0.319 C
HETATM    9  O2  UNL     1      17.694   8.773  20.008  1.00  0.00    -0.247 OA
HETATM   10  N4  UNL     1      18.508  10.917  20.221  1.00  0.00    -0.333 N
ATOM     11  H4  UNL     1      18.414  11.840  20.643  1.00  0.00     0.165 HD
HETATM   12  C12 UNL     1      16.425  11.536  22.000  1.00  0.00     0.147 C
HETATM   13  C13 UNL     1      15.240  11.776  22.872  1.00  0.00     0.147 C
ENDROOT
BRANCH  10  14
HETATM   14  C5  UNL     1      19.607  10.684  19.316  1.00  0.00     0.218 C
BRANCH  14  15
HETATM   15  C6  UNL     1      20.808  11.409  19.732  1.00  0.00    -0.087 C
HETATM   16  C7  UNL     1      21.787  11.991  20.090  1.00  0.00    -0.104 C
BRANCH  16  17
HETATM   17  C8  UNL     1      22.988  12.688  20.548  1.00  0.00     0.098 C
BRANCH  17  18
HETATM   18  C9  UNL     1      22.676  13.672  21.647  1.00  0.00    -0.003 A
HETATM   19  C10 UNL     1      21.823  13.333  22.781  1.00  0.00     0.006 A
HETATM   20  C11 UNL     1      23.332  13.327  22.998  1.00  0.00     0.006 A
ENDBRANCH  17  18
ENDBRANCH  16  17
ENDBRANCH  14  15
ENDBRANCH  10  14
TORSDOF 4
ENDMDL