MODEL 5
REMARK VINA RESULT: -7.078351011      2.226      2.916
REMARK  3 active torsions:
REMARK  status: ('A' for Active; 'I' for Inactive)
REMARK    1  A    between atoms: N1_1  and  N2_4
REMARK    2  A    between atoms: C2_7  and  C3_8
REMARK       I    between atoms: C3_8  and  N3_10
REMARK    3  A    between atoms: N3_10  and  C4_12
ROOT
HETATM    1  N2  UNL     1      21.754  10.101  23.053  1.00  0.00    -0.314 N
ATOM      2  H2  UNL     1      22.687   9.726  23.224  1.00  0.00     0.185 HD
HETATM    3  C1  UNL     1      21.682  11.152  22.345  1.00  0.00     0.025 C
HETATM    4  C2  UNL     1      20.480  11.905  21.944  1.00  0.00     0.126 C
HETATM    5  C9  UNL     1      20.344  11.665  20.435  1.00  0.00     0.027 C
HETATM    6  C10 UNL     1      21.701  11.802  19.771  1.00  0.00     0.019 C
HETATM    7  C11 UNL     1      22.386  10.428  19.846  1.00  0.00     0.040 C
HETATM    8  C12 UNL     1      23.567  10.866  20.699  1.00  0.00     0.134 C
HETATM    9  O2  UNL     1      23.919  12.070  20.088  1.00  0.00    -0.379 OA
HETATM   10  C13 UNL     1      22.699  12.566  20.608  1.00  0.00     0.138 C
HETATM   11  C14 UNL     1      22.968  11.707  21.802  1.00  0.00     0.092 C
ENDROOT
BRANCH   4  12
HETATM   12  C3  UNL     1      19.219  11.538  22.580  1.00  0.00     0.227 C
HETATM   13  O1  UNL     1      19.055  11.670  23.842  1.00  0.00    -0.273 OA
HETATM   14  N3  UNL     1      18.091  11.016  21.882  1.00  0.00    -0.356 N
ATOM     15  H3  UNL     1      18.174  10.893  20.874  1.00  0.00     0.162 HD
BRANCH  14  16
HETATM   16  C4  UNL     1      16.855  10.654  22.495  1.00  0.00     0.084 C
HETATM   17  C5  UNL     1      15.815  11.751  22.433  1.00  0.00     0.025 C
HETATM   18  C6  UNL     1      14.474  11.030  22.385  1.00  0.00     0.002 C
HETATM   19  C7  UNL     1      14.785   9.561  22.270  1.00  0.00     0.002 C
HETATM   20  C8  UNL     1      16.170   9.550  21.701  1.00  0.00     0.025 C
ENDBRANCH  14  16
ENDBRANCH   4  12
BRANCH   1  21
HETATM   21  N1  UNL     1      20.688   9.410  23.618  1.00  0.00    -0.345 N
ATOM     22  H12 UNL     1      20.931   8.543  24.099  1.00  0.00     0.176 HD
ATOM     23  H11 UNL     1      19.706   9.684  23.597  1.00  0.00     0.176 HD
ENDBRANCH   1  21
TORSDOF 3
ENDMDL