MODEL 1
REMARK VINA RESULT: -7.046393895      0.000      0.000
REMARK  2 active torsions:
REMARK  status: ('A' for Active; 'I' for Inactive)
REMARK       I    between atoms: C1_2  and  N2_4
REMARK    1  A    between atoms: N2_4  and  C2_5
REMARK       I    between atoms: N3_8  and  C5_9
REMARK    2  A    between atoms: C5_9  and  C6_11
REMARK       I    between atoms: C6_11  and  N4_13
ROOT
HETATM    1  C2  UNL     1      19.701   9.731  20.335  1.00  0.00     0.171 C
HETATM    2  C3  UNL     1      19.231  10.232  21.701  1.00  0.00     0.059 C
HETATM    3  C4  UNL     1      19.848  11.554  22.044  1.00  0.00     0.129 C
HETATM    4  N3  UNL     1      20.929  11.927  21.185  1.00  0.00    -0.344 N
HETATM    5  C5  UNL     1      22.113  12.474  21.775  1.00  0.00     0.311 C
HETATM    6  O2  UNL     1      22.122  12.573  23.053  1.00  0.00    -0.262 OA
HETATM    7  C11 UNL     1      20.907  11.770  19.747  1.00  0.00     0.129 C
HETATM    8  C12 UNL     1      19.628  10.976  19.431  1.00  0.00     0.059 C
ENDROOT
BRANCH   5   9
HETATM    9  C6  UNL     1      23.248  12.902  21.042  1.00  0.00     0.311 C
HETATM   10  O3  UNL     1      23.488  14.146  20.885  1.00  0.00    -0.262 OA
HETATM   11  N4  UNL     1      24.180  12.029  20.441  1.00  0.00    -0.344 N
HETATM   12  C7  UNL     1      24.142  10.592  20.408  1.00  0.00     0.126 C
HETATM   13  C10 UNL     1      25.418  12.482  19.741  1.00  0.00     0.126 C
HETATM   14  C8  UNL     1      24.914  10.269  19.118  1.00  0.00     0.021 C
HETATM   15  C9  UNL     1      26.045  11.259  19.184  1.00  0.00     0.021 C
ENDBRANCH   5   9
BRANCH   1  16
HETATM   16  N2  UNL     1      18.838   8.754  19.897  1.00  0.00    -0.394 NA
HETATM   17  C1  UNL     1      17.983   7.785  19.463  1.00  0.00     0.401 C
HETATM   18  N1  UNL     1      16.565   8.138  19.293  1.00  0.00    -0.025 NA
HETATM   19  O1  UNL     1      18.204   6.595  19.172  1.00  0.00    -0.234 OA
ENDBRANCH   1  16
TORSDOF 2
ENDMDL