MODEL 1
REMARK VINA RESULT: -6.817370068      0.000      0.000
REMARK  2 active torsions:
REMARK  status: ('A' for Active; 'I' for Inactive)
REMARK    1  A    between atoms: C7_11  and  C8_12
REMARK       I    between atoms: C8_12  and  N4_14
REMARK    2  A    between atoms: N4_14  and  C9_16
ROOT
HETATM    1  C1  UNL     1      14.571   8.329  21.763  1.00  0.00     0.272 C
HETATM    2  N1  UNL     1      15.247   9.374  22.564  1.00  0.00    -0.067 N
HETATM    3  C2  UNL     1      14.310  10.436  22.711  1.00  0.00     0.238 C
HETATM    4  C3  UNL     1      14.786  11.774  22.247  1.00  0.00     0.049 C
HETATM    5  C4  UNL     1      15.927  12.334  23.027  1.00  0.00     0.145 C
HETATM    6  N2  UNL     1      16.872  11.383  23.494  1.00  0.00    -0.317 N
HETATM    7  N3  UNL     1      16.477  10.854  24.674  1.00  0.00    -0.336 N
ATOM      8  H3  UNL     1      16.270  11.456  25.471  1.00  0.00     0.180 HD
HETATM    9  C5  UNL     1      16.357   9.449  24.778  1.00  0.00     0.167 C
HETATM   10  C6  UNL     1      15.473   8.762  23.835  1.00  0.00     0.258 C
HETATM   11  C7  UNL     1      17.436  10.514  22.541  1.00  0.00     0.219 C
HETATM   12  C14 UNL     1      16.424   9.686  21.823  1.00  0.00     0.273 C
ENDROOT
BRANCH  11  13
HETATM   13  C8  UNL     1      18.308  11.162  21.545  1.00  0.00     0.244 C
HETATM   14  O1  UNL     1      17.891  11.513  20.417  1.00  0.00    -0.271 OA
HETATM   15  N4  UNL     1      19.671  11.412  21.838  1.00  0.00    -0.355 N
ATOM     16  H4  UNL     1      20.030  11.133  22.751  1.00  0.00     0.162 HD
BRANCH  15  17
HETATM   17  C9  UNL     1      20.581  12.044  20.906  1.00  0.00     0.084 C
HETATM   18  C10 UNL     1      21.198  11.080  19.937  1.00  0.00     0.025 C
HETATM   19  C11 UNL     1      22.367  11.912  19.391  1.00  0.00     0.002 C
HETATM   20  C12 UNL     1      22.796  12.770  20.559  1.00  0.00     0.002 C
HETATM   21  C13 UNL     1      21.792  12.564  21.657  1.00  0.00     0.025 C
ENDBRANCH  15  17
ENDBRANCH  11  13
TORSDOF 2
ENDMDL