MODEL 5
REMARK VINA RESULT: -6.041822807      1.291      1.291
REMARK  4 active torsions:
REMARK  status: ('A' for Active; 'I' for Inactive)
REMARK    1  A    between atoms: C1_2  and  C2_3
REMARK       I    between atoms: C1_2  and  N4_16
REMARK    2  A    between atoms: C2_3  and  N1_4
REMARK    3  A    between atoms: N1_4  and  C3_6
REMARK    4  A    between atoms: C3_6  and  N2_8
ROOT
HETATM    1  N1  UNL     1      17.354  10.042  21.157  1.00  0.00    -0.358 N
ATOM      2  H1  UNL     1      17.072   9.197  20.660  1.00  0.00     0.162 HD
ENDROOT
BRANCH   1   3
HETATM    3  C2  UNL     1      18.069  11.051  20.437  1.00  0.00     0.225 C
BRANCH   3   4
HETATM    4  C1  UNL     1      19.391  10.551  19.984  1.00  0.00     0.237 C
HETATM    5  O1  UNL     1      19.368   9.612  19.117  1.00  0.00    -0.272 OA
HETATM    6  N4  UNL     1      20.613  11.069  20.469  1.00  0.00    -0.346 N
HETATM    7  C8  UNL     1      20.800  12.128  21.449  1.00  0.00     0.127 C
HETATM    8  C12 UNL     1      21.924  10.692  20.130  1.00  0.00     0.091 A
HETATM    9  C9  UNL     1      22.232  12.645  21.161  1.00  0.00     0.026 C
HETATM   10  C10 UNL     1      22.349  12.175  19.754  1.00  0.00     0.012 A
HETATM   11  C11 UNL     1      22.847  11.026  19.129  1.00  0.00     0.032 A
ENDBRANCH   3   4
ENDBRANCH   1   3
BRANCH   1  12
HETATM   12  C3  UNL     1      17.021  10.163  22.522  1.00  0.00     0.170 C
HETATM   13  S1  UNL     1      18.167  10.771  23.530  1.00  0.00    -0.041 SA
BRANCH  12  14
HETATM   14  N2  UNL     1      15.771   9.793  23.057  1.00  0.00    -0.355 N
HETATM   15  C4  UNL     1      14.561  10.537  22.700  1.00  0.00     0.152 C
HETATM   16  C5  UNL     1      13.748  10.848  23.943  1.00  0.00     0.252 C
HETATM   17  N3  UNL     1      13.603   9.730  24.821  1.00  0.00    -0.072 N
HETATM   18  C6  UNL     1      14.948   9.291  25.227  1.00  0.00     0.252 C
ATOM     19  H32 UNL     1      12.996   9.929  25.617  1.00  0.00     0.277 HD
ATOM     20  H31 UNL     1      13.049   8.976  24.413  1.00  0.00     0.277 HD
HETATM   21  C7  UNL     1      15.567   8.692  23.968  1.00  0.00     0.152 C
ENDBRANCH  12  14
ENDBRANCH   1  12
TORSDOF 4
ENDMDL