MODEL 1
REMARK VINA RESULT: -6.790366992      0.000      0.000
REMARK  2 active torsions:
REMARK  status: ('A' for Active; 'I' for Inactive)
REMARK       I    between atoms: C1_4  and  N3_6
REMARK    1  A    between atoms: N4_9  and  C4_10
REMARK    2  A    between atoms: C4_10  and  C5_11
REMARK       I    between atoms: C5_11  and  N5_13
ROOT
HETATM    1  N1  UNL     1      16.375   8.288  20.377  1.00  0.00    -0.374 N
ATOM      2  H11 UNL     1      16.047   8.938  21.092  1.00  0.00     0.158 HD
ATOM      3  H12 UNL     1      15.824   7.470  20.118  1.00  0.00     0.158 HD
HETATM    4  C1  UNL     1      17.509   8.537  19.813  1.00  0.00     0.184 C
HETATM    5  N2  UNL     1      17.962   7.639  18.826  1.00  0.00    -0.064 NA
HETATM    6  N3  UNL     1      18.271   9.670  20.171  1.00  0.00    -0.353 N
HETATM    7  C2  UNL     1      18.008  10.396  21.398  1.00  0.00     0.156 C
HETATM    8  C3  UNL     1      19.009  11.531  21.480  1.00  0.00     0.293 C
HETATM    9  N4  UNL     1      20.379  11.057  21.390  1.00  0.00     0.100 N
HETATM   10  C12 UNL     1      20.619  10.371  20.135  1.00  0.00     0.293 C
HETATM   11  C13 UNL     1      19.347  10.167  19.340  1.00  0.00     0.156 C
ENDROOT
BRANCH   9  12
HETATM   12  C4  UNL     1      21.223  12.259  21.393  1.00  0.00     0.374 C
BRANCH  12  13
HETATM   13  C5  UNL     1      22.620  11.850  21.661  1.00  0.00     0.248 C
HETATM   14  O1  UNL     1      22.902  11.165  22.688  1.00  0.00    -0.271 OA
HETATM   15  N5  UNL     1      23.658  12.221  20.774  1.00  0.00    -0.351 N
HETATM   16  C6  UNL     1      25.000  11.786  21.089  1.00  0.00     0.126 C
HETATM   17  C11 UNL     1      23.249  13.006  19.640  1.00  0.00     0.126 C
HETATM   18  C7  UNL     1      25.513  10.712  20.188  1.00  0.00     0.020 C
HETATM   19  C8  UNL     1      25.982  11.219  18.852  1.00  0.00     0.002 C
HETATM   20  C9  UNL     1      25.360  12.541  18.480  1.00  0.00     0.002 C
HETATM   21  C10 UNL     1      23.861  12.460  18.366  1.00  0.00     0.020 C
ENDBRANCH  12  13
ENDBRANCH   9  12
TORSDOF 2
ENDMDL