MODEL 4
REMARK VINA RESULT: -6.988724731      1.225      1.839
REMARK  3 active torsions:
REMARK  status: ('A' for Active; 'I' for Inactive)
REMARK    1  A    between atoms: C1_2  and  C2_4
REMARK       I    between atoms: C2_4  and  N2_6
REMARK       I    between atoms: N2_6  and  C3_8
REMARK    2  A    between atoms: C3_8  and  C4_10
REMARK    3  A    between atoms: C6_12  and  N3_13
ROOT
HETATM    1  C4  UNL     1      20.358  11.189  19.745  1.00  0.00     0.111 A
HETATM    2  C5  UNL     1      20.722  11.531  21.184  1.00  0.00     0.050 A
HETATM    3  C6  UNL     1      21.610  10.675  20.339  1.00  0.00     0.204 A
ENDROOT
BRANCH   1   4
HETATM    4  C3  UNL     1      19.253  10.204  19.638  1.00  0.00     0.230 C
HETATM    5  N2  UNL     1      18.198  10.235  20.563  1.00  0.00    -0.289 N
HETATM    6  C2  UNL     1      17.142   9.292  20.460  1.00  0.00     0.313 C
ATOM      7  H2  UNL     1      18.191  10.932  21.307  1.00  0.00     0.172 HD
HETATM    8  O2  UNL     1      17.169   8.434  19.529  1.00  0.00    -0.262 OA
HETATM    9  O3  UNL     1      19.254   9.346  18.728  1.00  0.00    -0.273 OA
BRANCH   6  10
HETATM   10  C1  UNL     1      16.047   9.319  21.417  1.00  0.00     0.322 C
HETATM   11  N1  UNL     1      15.135   8.224  21.480  1.00  0.00    -0.053 NA
HETATM   12  O1  UNL     1      15.932  10.315  22.168  1.00  0.00    -0.266 OA
ENDBRANCH   6  10
ENDBRANCH   1   4
BRANCH   3  13
HETATM   13  N3  UNL     1      22.898  11.193  19.962  1.00  0.00    -0.062 N
HETATM   14  C7  UNL     1      23.591  10.137  19.237  1.00  0.00     0.238 C
HETATM   15  C8  UNL     1      24.759  10.683  18.468  1.00  0.00     0.032 C
HETATM   16  C9  UNL     1      25.096  12.041  19.076  1.00  0.00    -0.010 C
HETATM   17  C10 UNL     1      23.978  12.983  18.742  1.00  0.00     0.032 C
HETATM   18  C12 UNL     1      25.104  11.842  20.580  1.00  0.00     0.032 C
HETATM   19  C11 UNL     1      22.661  12.329  19.064  1.00  0.00     0.238 C
HETATM   20  C13 UNL     1      23.669  11.687  21.065  1.00  0.00     0.238 C
ENDBRANCH   3  13
TORSDOF 3
ENDMDL