MODEL 3
REMARK VINA RESULT: -7.140046315      3.302      6.341
REMARK  3 active torsions:
REMARK  status: ('A' for Active; 'I' for Inactive)
REMARK    1  A    between atoms: N1_7  and  C7_8
REMARK    2  A    between atoms: C9_10  and  N2_11
REMARK       I    between atoms: N2_11  and  C10_13
REMARK    3  A    between atoms: C13_18  and  O3_19
ROOT
HETATM    1  C1  UNL     1      27.455  10.200  20.339  1.00  0.00     0.014 C
HETATM    2  C2  UNL     1      26.527  10.957  20.205  1.00  0.00    -0.089 C
HETATM    3  C3  UNL     1      25.401  11.901  20.028  1.00  0.00     0.140 C
HETATM    4  C4  UNL     1      25.865  13.266  20.300  1.00  0.00    -0.089 C
HETATM    5  C5  UNL     1      26.241  14.394  20.533  1.00  0.00     0.014 C
HETATM    6  C6  UNL     1      24.262  11.594  20.941  1.00  0.00     0.276 C
HETATM    7  N1  UNL     1      23.000  11.542  20.224  1.00  0.00    -0.058 N
HETATM    8  C11 UNL     1      23.029  10.446  19.265  1.00  0.00     0.241 C
HETATM    9  C12 UNL     1      24.292  10.404  18.464  1.00  0.00     0.068 C
HETATM   10  C13 UNL     1      24.953  11.764  18.574  1.00  0.00     0.092 C
HETATM   11  C14 UNL     1      23.876  12.798  18.347  1.00  0.00     0.068 C
HETATM   12  C15 UNL     1      22.874  12.766  19.462  1.00  0.00     0.241 C
ENDROOT
BRANCH  10  13
HETATM   13  O3  UNL     1      25.993  11.888  17.686  1.00  0.00    -0.387 OA
ATOM     14  H3  UNL     1      25.870  11.362  16.904  1.00  0.00     0.210 HD
ENDBRANCH  10  13
BRANCH   7  15
HETATM   15  C7  UNL     1      21.900  11.316  21.107  1.00  0.00     0.215 A
HETATM   16  C8  UNL     1      21.386  12.454  21.939  1.00  0.00     0.063 A
HETATM   17  C9  UNL     1      20.534  11.792  20.840  1.00  0.00     0.120 A
BRANCH  17  18
HETATM   18  N2  UNL     1      19.409  11.045  21.372  1.00  0.00    -0.329 N
HETATM   19  C10 UNL     1      18.368  10.540  20.582  1.00  0.00     0.283 C
HETATM   20  O1  UNL     1      18.358  10.718  19.334  1.00  0.00    -0.630 OA
HETATM   21  O2  UNL     1      17.340   9.846  21.152  1.00  0.00    -0.630 OA
ATOM     22  H2  UNL     1      19.375  10.877  22.378  1.00  0.00     0.166 HD
ENDBRANCH  17  18
ENDBRANCH   7  15
TORSDOF 3
ENDMDL