MODEL 4
REMARK VINA RESULT: -6.056206310      1.619      2.391
REMARK  3 active torsions:
REMARK  status: ('A' for Active; 'I' for Inactive)
REMARK    1  A    between atoms: C3_3  and  N1_4
REMARK       I    between atoms: N1_4  and  C5_6
REMARK       I    between atoms: C5_6  and  N2_8
REMARK    2  A    between atoms: N2_8  and  C6_10
REMARK    3  A    between atoms: C14_19  and  O2_20
ROOT
HETATM    1  C1  UNL     1      22.681  12.180  19.096  1.00  0.00     0.014 C
HETATM    2  C2  UNL     1      22.218  11.457  19.946  1.00  0.00    -0.098 C
HETATM    3  C3  UNL     1      21.659  10.594  20.987  1.00  0.00     0.220 C
ENDROOT
BRANCH   3   4
HETATM    4  N1  UNL     1      20.227  10.551  20.778  1.00  0.00    -0.328 N
HETATM    5  C4  UNL     1      19.691   9.938  19.556  1.00  0.00     0.155 C
HETATM    6  C5  UNL     1      19.346  11.093  21.734  1.00  0.00     0.319 C
HETATM    7  O1  UNL     1      19.807  11.614  22.770  1.00  0.00    -0.247 OA
HETATM    8  N2  UNL     1      17.951  11.054  21.534  1.00  0.00    -0.336 N
ATOM      9  H2  UNL     1      17.598  10.624  20.679  1.00  0.00     0.164 HD
BRANCH   8  10
HETATM   10  C6  UNL     1      16.993  11.592  22.478  1.00  0.00     0.117 C
HETATM   11  C7  UNL     1      15.946  12.432  21.789  1.00  0.00     0.034 C
HETATM   12  C8  UNL     1      14.694  12.058  22.595  1.00  0.00     0.020 C
HETATM   13  C9  UNL     1      14.897  10.535  22.622  1.00  0.00     0.043 C
HETATM   14  C14 UNL     1      14.883  12.607  23.970  1.00  0.00     0.148 C
HETATM   15  C10 UNL     1      16.307  10.472  23.176  1.00  0.00     0.212 C
HETATM   16  N3  UNL     1      16.212  10.634  24.604  1.00  0.00    -0.066 N
HETATM   17  C11 UNL     1      17.503  10.898  25.219  1.00  0.00     0.272 C
HETATM   18  C12 UNL     1      15.824   9.321  25.144  1.00  0.00     0.272 C
HETATM   19  C13 UNL     1      15.211  11.567  25.006  1.00  0.00     0.269 C
BRANCH  14  20
HETATM   20  O2  UNL     1      13.705  13.241  24.377  1.00  0.00    -0.394 OA
ATOM     21  H2  UNL     1      13.534  13.979  23.804  1.00  0.00     0.210 HD
ENDBRANCH  14  20
ENDBRANCH   8  10
ENDBRANCH   3   4
TORSDOF 3
ENDMDL