MODEL 1
REMARK VINA RESULT: -7.146891803      0.000      0.000
REMARK  6 active torsions:
REMARK  status: ('A' for Active; 'I' for Inactive)
REMARK    1  A    between atoms: N1_9  and  S1_10
REMARK    2  A    between atoms: S1_10  and  N2_13
REMARK    3  A    between atoms: C11_16  and  N3_17
REMARK    4  A    between atoms: N3_17  and  C12_19
REMARK    5  A    between atoms: C12_19  and  N4_21
REMARK    6  A    between atoms: N4_21  and  C13_23
ROOT
HETATM    1  C1  UNL     1      23.707   9.675  18.385  1.00  0.00     0.014 C
HETATM    2  C2  UNL     1      24.247  10.135  19.369  1.00  0.00    -0.091 C
HETATM    3  C3  UNL     1      24.880  10.681  20.575  1.00  0.00     0.175 C
HETATM    4  C4  UNL     1      26.370  10.550  20.437  1.00  0.00     0.039 C
HETATM    5  C5  UNL     1      27.036  11.060  19.254  1.00  0.00     0.003 C
HETATM    6  C6  UNL     1      26.438  12.074  18.393  1.00  0.00     0.002 C
HETATM    7  C7  UNL     1      25.439  13.001  18.987  1.00  0.00     0.021 C
HETATM    8  C8  UNL     1      25.428  13.018  20.484  1.00  0.00     0.138 C
HETATM    9  N1  UNL     1      24.518  11.984  20.889  1.00  0.00    -0.282 N
ENDROOT
BRANCH   9  10
HETATM   10  S1  UNL     1      23.216  12.413  21.785  1.00  0.00     0.302 S
HETATM   11  O1  UNL     1      23.477  12.002  23.241  1.00  0.00    -0.188 OA
HETATM   12  O2  UNL     1      23.125  13.933  21.856  1.00  0.00    -0.188 OA
BRANCH  10  13
HETATM   13  N2  UNL     1      21.672  11.834  21.354  1.00  0.00    -0.193 NA
HETATM   14  C9  UNL     1      21.485  10.490  21.756  1.00  0.00     0.111 C
HETATM   15  C10 UNL     1      20.463   9.765  20.853  1.00  0.00     0.041 C
HETATM   16  C11 UNL     1      19.393  10.796  20.577  1.00  0.00     0.086 C
HETATM   17  C15 UNL     1      19.970  11.790  19.591  1.00  0.00     0.041 C
HETATM   18  C16 UNL     1      21.397  12.134  19.976  1.00  0.00     0.111 C
BRANCH  16  19
HETATM   19  N3  UNL     1      18.118  10.275  20.255  1.00  0.00    -0.363 N
ATOM     20  H3  UNL     1      17.946  10.022  19.282  1.00  0.00     0.162 HD
BRANCH  19  21
HETATM   21  C12 UNL     1      17.061  10.078  21.174  1.00  0.00     0.167 C
HETATM   22  S2  UNL     1      16.732  11.195  22.297  1.00  0.00    -0.041 SA
BRANCH  21  23
HETATM   23  N4  UNL     1      16.271   8.871  21.102  1.00  0.00    -0.368 N
ATOM     24  H4  UNL     1      15.937   8.418  21.953  1.00  0.00     0.161 HD
BRANCH  23  25
HETATM   25  C13 UNL     1      15.960   8.314  19.803  1.00  0.00     0.117 C
HETATM   26  C14 UNL     1      16.962   7.204  19.503  1.00  0.00     0.026 C
ENDBRANCH  23  25
ENDBRANCH  21  23
ENDBRANCH  19  21
ENDBRANCH  16  19
ENDBRANCH  10  13
ENDBRANCH   9  10
TORSDOF 6
ENDMDL