MODEL 2
REMARK VINA RESULT: -7.657908751      1.186      1.823
REMARK  4 active torsions:
REMARK  status: ('A' for Active; 'I' for Inactive)
REMARK    1  A    between atoms: N1_6  and  S1_7
REMARK    2  A    between atoms: S1_7  and  N2_10
REMARK    3  A    between atoms: C8_13  and  N3_14
REMARK       I    between atoms: N3_14  and  C9_16
REMARK       I    between atoms: C9_16  and  N4_18
REMARK    4  A    between atoms: N4_18  and  C10_20
ROOT
HETATM    1  N2  UNL     1      24.740  11.648  19.612  1.00  0.00    -0.222 NA
HETATM    2  C6  UNL     1      24.310  10.762  18.562  1.00  0.00     0.108 C
HETATM    3  C7  UNL     1      23.144   9.966  19.157  1.00  0.00     0.041 C
HETATM    4  C8  UNL     1      21.990  10.925  19.273  1.00  0.00     0.088 C
HETATM    5  C15 UNL     1      22.370  12.317  19.598  1.00  0.00     0.041 C
HETATM    6  C16 UNL     1      23.750  12.515  20.110  1.00  0.00     0.108 C
ENDROOT
BRANCH   4   7
HETATM    7  N3  UNL     1      21.020  10.347  20.169  1.00  0.00    -0.338 N
HETATM    8  C9  UNL     1      19.633  10.307  19.920  1.00  0.00     0.316 C
HETATM    9  O2  UNL     1      19.196  10.798  18.862  1.00  0.00    -0.247 OA
HETATM   10  N4  UNL     1      18.729   9.728  20.835  1.00  0.00    -0.339 N
ATOM     11  H4  UNL     1      19.096   9.328  21.699  1.00  0.00     0.164 HD
ATOM     12  H3  UNL     1      21.360   9.940  21.040  1.00  0.00     0.164 HD
BRANCH  10  13
HETATM   13  C10 UNL     1      17.319   9.677  20.603  1.00  0.00     0.086 C
HETATM   14  C11 UNL     1      16.987   8.329  19.973  1.00  0.00     0.025 C
HETATM   15  C12 UNL     1      15.493   8.229  20.187  1.00  0.00     0.002 C
HETATM   16  C13 UNL     1      15.289   8.785  21.564  1.00  0.00     0.002 C
HETATM   17  C14 UNL     1      16.486   9.692  21.848  1.00  0.00     0.025 C
ENDBRANCH  10  13
ENDBRANCH   4   7
BRANCH   1  18
HETATM   18  S1  UNL     1      26.264  12.373  19.307  1.00  0.00     0.141 S
HETATM   19  O1  UNL     1      26.933  11.567  18.226  1.00  0.00    -0.227 OA
HETATM   20  S2  UNL     1      25.993  13.990  18.761  1.00  0.00     0.041 SA
BRANCH  18  21
HETATM   21  N1  UNL     1      27.126  12.359  20.773  1.00  0.00    -0.218 NA
HETATM   22  C2  UNL     1      27.883  11.205  21.047  1.00  0.00     0.069 C
HETATM   23  C1  UNL     1      27.445   9.937  20.415  1.00  0.00     0.027 C
HETATM   24  C3  UNL     1      29.332  11.556  20.723  1.00  0.00     0.021 C
HETATM   25  C4  UNL     1      29.372  13.003  21.234  1.00  0.00     0.017 C
HETATM   26  C5  UNL     1      28.033  13.509  20.759  1.00  0.00     0.106 C
ENDBRANCH  18  21
ENDBRANCH   1  18
TORSDOF 4
ENDMDL