MODEL 1
REMARK VINA RESULT: -8.106257702      0.000      0.000
REMARK  4 active torsions:
REMARK  status: ('A' for Active; 'I' for Inactive)
REMARK    1  A    between atoms: C8_11  and  C9_12
REMARK       I    between atoms: C9_12  and  N2_14
REMARK    2  A    between atoms: N2_14  and  C10_16
REMARK    3  A    between atoms: N3_22  and  C16_23
REMARK    4  A    between atoms: C16_23  and  C17_24
REMARK       I    between atoms: C17_24  and  N4_26
ROOT
HETATM    1  N1  UNL     1      24.000  13.462  17.883  1.00  0.00    -0.389 N
ATOM      2  H11 UNL     1      23.475  14.208  18.338  1.00  0.00     0.157 HD
ATOM      3  H12 UNL     1      24.219  13.311  16.898  1.00  0.00     0.157 HD
HETATM    4  C1  UNL     1      24.459  12.564  18.715  1.00  0.00     0.078 C
HETATM    5  C2  UNL     1      25.225  11.477  18.053  1.00  0.00     0.053 C
HETATM    6  C3  UNL     1      26.392  11.081  18.935  1.00  0.00     0.013 C
HETATM    7  C4  UNL     1      25.998  10.378  20.186  1.00  0.00     0.008 C
HETATM    8  C5  UNL     1      24.533  10.453  20.532  1.00  0.00     0.018 C
HETATM    9  C6  UNL     1      23.654  10.095  19.374  1.00  0.00     0.008 C
HETATM   10  C7  UNL     1      24.311  10.251  18.022  1.00  0.00     0.013 C
HETATM   11  C8  UNL     1      24.155  11.796  21.143  1.00  0.00     0.182 C
HETATM   12  N3  UNL     1      24.154  12.775  20.088  1.00  0.00    -0.348 N
ENDROOT
BRANCH  11  13
HETATM   13  C9  UNL     1      22.856  11.711  21.851  1.00  0.00     0.241 C
HETATM   14  O1  UNL     1      22.781  11.572  23.080  1.00  0.00    -0.271 OA
HETATM   15  N2  UNL     1      21.667  11.792  21.083  1.00  0.00    -0.355 N
ATOM     16  H2  UNL     1      21.717  11.906  20.071  1.00  0.00     0.162 HD
BRANCH  15  17
HETATM   17  C10 UNL     1      20.386  11.711  21.744  1.00  0.00     0.084 C
HETATM   18  C11 UNL     1      19.451  10.813  20.960  1.00  0.00     0.025 C
HETATM   19  C12 UNL     1      18.461  11.672  20.178  1.00  0.00     0.002 C
HETATM   20  C13 UNL     1      17.552  12.427  21.129  1.00  0.00     0.000 C
HETATM   21  C14 UNL     1      18.330  12.912  22.326  1.00  0.00     0.002 C
HETATM   22  C15 UNL     1      19.778  13.093  21.928  1.00  0.00     0.025 C
ENDBRANCH  15  17
ENDBRANCH  11  13
BRANCH  12  23
HETATM   23  C16 UNL     1      23.799  14.152  20.444  1.00  0.00     0.228 C
BRANCH  23  24
HETATM   24  C17 UNL     1      24.812  14.758  21.368  1.00  0.00     0.237 C
HETATM   25  O2  UNL     1      25.984  14.841  20.929  1.00  0.00    -0.272 OA
HETATM   26  N4  UNL     1      24.448  15.207  22.661  1.00  0.00    -0.351 N
HETATM   27  C18 UNL     1      23.141  15.161  23.272  1.00  0.00     0.126 C
HETATM   28  C21 UNL     1      25.393  15.807  23.592  1.00  0.00     0.126 C
HETATM   29  C19 UNL     1      23.344  15.603  24.694  1.00  0.00     0.021 C
HETATM   30  C20 UNL     1      24.827  15.276  24.915  1.00  0.00     0.021 C
ENDBRANCH  23  24
ENDBRANCH  12  23
TORSDOF 4
ENDMDL