MODEL 2
REMARK VINA RESULT: -8.463050005      0.618      1.121
REMARK  5 active torsions:
REMARK  status: ('A' for Active; 'I' for Inactive)
REMARK       I    between atoms: C1_2  and  N1_3
REMARK    1  A    between atoms: C1_2  and  C17_23
REMARK    2  A    between atoms: N1_3  and  C2_5
REMARK    3  A    between atoms: C2_5  and  C3_6
REMARK    4  A    between atoms: C6_9  and  N2_10
REMARK       I    between atoms: N2_10  and  C7_12
REMARK    5  A    between atoms: C7_12  and  C8_14
REMARK       I    between atoms: C17_23  and  N3_25
ROOT
HETATM    1  C3  UNL     1      20.638  12.074  22.119  1.00  0.00     0.003 C
HETATM    2  C4  UNL     1      20.542  12.737  20.787  1.00  0.00     0.008 C
HETATM    3  C5  UNL     1      20.620  11.788  19.620  1.00  0.00     0.026 C
HETATM    4  C6  UNL     1      21.740  10.803  19.816  1.00  0.00     0.084 C
HETATM    5  C15 UNL     1      21.332   9.921  20.951  1.00  0.00     0.026 C
HETATM    6  C16 UNL     1      20.744  10.601  22.125  1.00  0.00     0.008 C
ENDROOT
BRANCH   1   7
HETATM    7  C2  UNL     1      19.432  12.496  22.959  1.00  0.00     0.127 C
BRANCH   7   8
HETATM    8  N1  UNL     1      18.410  11.499  22.873  1.00  0.00    -0.353 N
HETATM    9  C1  UNL     1      17.250  11.752  22.089  1.00  0.00     0.309 C
HETATM   10  O1  UNL     1      17.126  12.838  21.479  1.00  0.00    -0.262 OA
ATOM     11  H1  UNL     1      18.512  10.614  23.370  1.00  0.00     0.162 HD
BRANCH   9  12
HETATM   12  C17 UNL     1      16.213  10.742  22.002  1.00  0.00     0.311 C
HETATM   13  O3  UNL     1      15.121  10.867  22.656  1.00  0.00    -0.262 OA
HETATM   14  N3  UNL     1      16.393   9.599  21.190  1.00  0.00    -0.344 N
HETATM   15  C18 UNL     1      17.564   9.306  20.400  1.00  0.00     0.126 C
HETATM   16  C21 UNL     1      15.409   8.518  21.009  1.00  0.00     0.126 C
HETATM   17  C19 UNL     1      17.272   7.992  19.709  1.00  0.00     0.021 C
HETATM   18  C20 UNL     1      15.762   7.990  19.627  1.00  0.00     0.021 C
ENDBRANCH   9  12
ENDBRANCH   7   8
ENDBRANCH   1   7
BRANCH   4  19
HETATM   19  N2  UNL     1      22.998  11.425  20.093  1.00  0.00    -0.356 N
HETATM   20  C7  UNL     1      24.055  11.308  19.153  1.00  0.00     0.222 C
HETATM   21  O2  UNL     1      23.891  10.662  18.076  1.00  0.00    -0.273 OA
ATOM     22  H2  UNL     1      23.135  11.947  20.958  1.00  0.00     0.162 HD
BRANCH  20  23
HETATM   23  C8  UNL     1      25.340  11.958  19.465  1.00  0.00     0.082 C
HETATM   24  C9  UNL     1      26.437  11.510  18.504  1.00  0.00     0.019 C
HETATM   25  C10 UNL     1      27.465  10.930  19.424  1.00  0.00    -0.013 C
HETATM   26  C11 UNL     1      28.034  12.018  20.329  1.00  0.00     0.005 C
HETATM   27  C14 UNL     1      26.557  10.220  20.443  1.00  0.00     0.010 C
HETATM   28  C12 UNL     1      26.891  12.364  21.296  1.00  0.00     0.006 C
HETATM   29  C13 UNL     1      25.774  11.485  20.833  1.00  0.00    -0.001 C
ENDBRANCH  20  23
ENDBRANCH   4  19
TORSDOF 5
ENDMDL