MODEL 5
REMARK VINA RESULT: -8.282858521      1.762      9.209
REMARK  4 active torsions:
REMARK  status: ('A' for Active; 'I' for Inactive)
REMARK       I    between atoms: N1_2  and  C2_4
REMARK    1  A    between atoms: C2_4  and  C3_6
REMARK       I    between atoms: N2_10  and  C7_11
REMARK    2  A    between atoms: C7_11  and  C8_13
REMARK    3  A    between atoms: C11_16  and  C12_17
REMARK       I    between atoms: C12_17  and  N3_19
REMARK    4  A    between atoms: N3_19  and  C13_21
ROOT
HETATM    1  C8  UNL     1      18.071  11.367  21.080  1.00  0.00     0.078 C
HETATM    2  C9  UNL     1      18.530  10.800  19.750  1.00  0.00     0.015 C
HETATM    3  C10 UNL     1      19.553  11.662  19.077  1.00  0.00     0.015 C
HETATM    4  C11 UNL     1      20.587  12.261  19.960  1.00  0.00     0.078 C
HETATM    5  C20 UNL     1      20.066  12.706  21.310  1.00  0.00     0.015 C
HETATM    6  C21 UNL     1      19.339  11.541  21.908  1.00  0.00     0.015 C
ENDROOT
BRANCH   1   7
HETATM    7  C7  UNL     1      17.263  10.319  21.762  1.00  0.00     0.224 C
HETATM    8  N2  UNL     1      16.799  10.465  23.087  1.00  0.00    -0.338 N
HETATM    9  C3  UNL     1      16.041   9.492  23.827  1.00  0.00     0.179 C
HETATM   10  C6  UNL     1      16.977  11.612  23.933  1.00  0.00     0.127 C
HETATM   11  C4  UNL     1      16.668   9.581  25.211  1.00  0.00     0.037 C
HETATM   12  C5  UNL     1      17.322  10.940  25.269  1.00  0.00     0.022 C
HETATM   13  O2  UNL     1      16.990   9.255  21.116  1.00  0.00    -0.273 OA
BRANCH   9  14
HETATM   14  C2  UNL     1      14.601   9.836  23.838  1.00  0.00     0.240 C
HETATM   15  N1  UNL     1      13.860   9.736  25.041  1.00  0.00    -0.364 N
HETATM   16  C1  UNL     1      12.446  10.057  25.124  1.00  0.00     0.149 C
ATOM     17  H1  UNL     1      14.340   9.425  25.884  1.00  0.00     0.161 HD
HETATM   18  O1  UNL     1      13.972  10.225  22.817  1.00  0.00    -0.271 OA
ENDBRANCH   9  14
ENDBRANCH   1   7
BRANCH   4  19
HETATM   19  C12 UNL     1      21.778  11.376  20.104  1.00  0.00     0.222 C
HETATM   20  O3  UNL     1      21.578  10.150  20.261  1.00  0.00    -0.273 OA
HETATM   21  N3  UNL     1      23.107  11.850  20.069  1.00  0.00    -0.356 N
ATOM     22  H3  UNL     1      23.290  12.845  19.941  1.00  0.00     0.162 HD
BRANCH  21  23
HETATM   23  C13 UNL     1      24.194  10.939  20.214  1.00  0.00     0.088 C
HETATM   24  C14 UNL     1      24.766  10.440  18.901  1.00  0.00     0.030 C
HETATM   25  C15 UNL     1      26.262  10.441  19.062  1.00  0.00    -0.012 C
HETATM   26  C16 UNL     1      26.725  11.865  18.877  1.00  0.00     0.005 C
HETATM   27  C19 UNL     1      26.382  10.321  20.591  1.00  0.00     0.011 C
HETATM   28  C17 UNL     1      26.039  12.557  20.064  1.00  0.00     0.007 C
HETATM   29  C18 UNL     1      25.414  11.485  20.891  1.00  0.00     0.009 C
ENDBRANCH  21  23
ENDBRANCH   4  19
TORSDOF 4
ENDMDL