MODEL 5
REMARK VINA RESULT: -7.786180175      1.599      3.871
REMARK  4 active torsions:
REMARK  status: ('A' for Active; 'I' for Inactive)
REMARK       I    between atoms: C2_2  and  N1_4
REMARK    1  A    between atoms: N1_4  and  C3_6
REMARK    2  A    between atoms: C3_6  and  C4_7
REMARK    3  A    between atoms: C3_6  and  C9_17
REMARK       I    between atoms: C4_7  and  N2_9
REMARK       I    between atoms: N4_20  and  C12_21
REMARK    4  A    between atoms: C12_21  and  C13_23
ROOT
HETATM    1  C3  UNL     1      25.603  11.396  19.880  1.00  0.00     0.105 C
ENDROOT
BRANCH   1   2
HETATM    2  N1  UNL     1      26.507  10.440  20.380  1.00  0.00    -0.323 N
HETATM    3  C2  UNL     1      27.708  10.462  21.092  1.00  0.00     0.218 C
HETATM    4  C1  UNL     1      28.293   9.083  21.433  1.00  0.00     0.117 C
HETATM    5  O1  UNL     1      28.397  11.396  21.514  1.00  0.00    -0.274 OA
ATOM      6  H1  UNL     1      26.210   9.488  20.167  1.00  0.00     0.169 HD
ENDBRANCH   1   2
BRANCH   1   7
HETATM    7  C4  UNL     1      26.311  12.355  18.939  1.00  0.00     0.270 C
HETATM    8  O2  UNL     1      26.695  11.936  17.843  1.00  0.00    -0.266 OA
HETATM    9  N2  UNL     1      26.511  13.703  19.311  1.00  0.00    -0.344 N
HETATM   10  C5  UNL     1      27.456  14.579  18.599  1.00  0.00     0.153 C
HETATM   11  C8  UNL     1      25.699  14.438  20.285  1.00  0.00     0.153 C
HETATM   12  C6  UNL     1      26.934  16.023  18.654  1.00  0.00     0.252 C
HETATM   13  N3  UNL     1      25.508  16.112  18.479  1.00  0.00    -0.072 N
HETATM   14  C7  UNL     1      24.794  15.459  19.576  1.00  0.00     0.252 C
ATOM     15  H32 UNL     1      25.207  17.079  18.360  1.00  0.00     0.277 HD
ATOM     16  H31 UNL     1      25.220  15.744  17.573  1.00  0.00     0.277 HD
ENDBRANCH   1   7
BRANCH   1  17
HETATM   17  C9  UNL     1      24.172  11.262  19.694  1.00  0.00    -0.044 C
HETATM   18  C10 UNL     1      23.691   9.805  19.628  1.00  0.00     0.056 C
HETATM   19  C11 UNL     1      22.227   9.699  19.977  1.00  0.00     0.130 C
HETATM   20  N4  UNL     1      21.504  10.914  20.056  1.00  0.00    -0.351 N
HETATM   21  C12 UNL     1      20.190  10.808  20.659  1.00  0.00     0.224 C
HETATM   22  C19 UNL     1      21.933  12.195  19.604  1.00  0.00     0.130 C
HETATM   23  O3  UNL     1      19.786   9.687  21.012  1.00  0.00    -0.273 OA
HETATM   24  C20 UNL     1      23.278  12.042  18.848  1.00  0.00     0.056 C
BRANCH  21  25
HETATM   25  C13 UNL     1      19.349  12.056  20.847  1.00  0.00     0.078 C
HETATM   26  C14 UNL     1      19.760  12.656  22.158  1.00  0.00     0.014 C
HETATM   27  C15 UNL     1      18.644  12.714  23.185  1.00  0.00     0.001 C
HETATM   28  C16 UNL     1      17.476  13.442  22.474  1.00  0.00     0.000 C
HETATM   29  C17 UNL     1      16.924  12.474  21.472  1.00  0.00     0.001 C
HETATM   30  C18 UNL     1      17.922  11.675  20.704  1.00  0.00     0.014 C
ENDBRANCH  21  25
ENDBRANCH   1  17
TORSDOF 4
ENDMDL