MODEL 3
REMARK VINA RESULT: -7.435418107      2.057      2.542
REMARK  4 active torsions:
REMARK  status: ('A' for Active; 'I' for Inactive)
REMARK    1  A    between atoms: C5_5  and  N1_6
REMARK       I    between atoms: N1_6  and  C6_8
REMARK       I    between atoms: C6_8  and  N2_10
REMARK    2  A    between atoms: N2_10  and  C7_12
REMARK    3  A    between atoms: N3_15  and  S1_16
REMARK    4  A    between atoms: S1_16  and  N4_19
ROOT
HETATM    1  C7  UNL     1      20.239  11.509  22.024  1.00  0.00     0.088 C
HETATM    2  C8  UNL     1      19.974  11.053  23.429  1.00  0.00     0.041 C
HETATM    3  C9  UNL     1      18.484  10.891  23.735  1.00  0.00     0.110 C
HETATM    4  N3  UNL     1      17.774  11.198  22.536  1.00  0.00    -0.197 NA
HETATM    5  C14 UNL     1      18.001  12.609  22.252  1.00  0.00     0.110 C
HETATM    6  C15 UNL     1      19.370  12.664  21.603  1.00  0.00     0.041 C
ENDROOT
BRANCH   1   7
HETATM    7  N2  UNL     1      21.616  11.958  21.970  1.00  0.00    -0.338 N
HETATM    8  C6  UNL     1      22.459  11.536  20.908  1.00  0.00     0.316 C
HETATM    9  N1  UNL     1      23.802  11.969  20.851  1.00  0.00    -0.339 N
HETATM   10  O1  UNL     1      22.025  10.779  20.013  1.00  0.00    -0.247 OA
ATOM     11  H1  UNL     1      24.177  12.587  21.571  1.00  0.00     0.164 HD
ATOM     12  H2  UNL     1      21.980  12.577  22.695  1.00  0.00     0.164 HD
BRANCH   9  13
HETATM   13  C5  UNL     1      24.638  11.525  19.758  1.00  0.00     0.086 C
HETATM   14  C4  UNL     1      25.791  12.514  19.646  1.00  0.00     0.026 C
HETATM   15  C3  UNL     1      26.893  11.925  18.794  1.00  0.00     0.006 C
HETATM   16  C2  UNL     1      27.532  10.784  19.532  1.00  0.00    -0.019 C
HETATM   17  C1  UNL     1      28.786  11.246  20.227  1.00  0.00     0.010 C
HETATM   18  C17 UNL     1      26.573  10.224  20.557  1.00  0.00     0.006 C
HETATM   19  C16 UNL     1      25.166  10.128  19.984  1.00  0.00     0.026 C
ENDBRANCH   9  13
ENDBRANCH   1   7
BRANCH   4  20
HETATM   20  S1  UNL     1      16.136  10.774  22.489  1.00  0.00     0.282 S
HETATM   21  O2  UNL     1      15.227  11.961  22.343  1.00  0.00    -0.194 OA
HETATM   22  O3  UNL     1      15.787  10.092  23.806  1.00  0.00    -0.194 OA
BRANCH  20  23
HETATM   23  N4  UNL     1      15.837   9.618  21.262  1.00  0.00    -0.198 NA
HETATM   24  C10 UNL     1      15.191   8.420  21.690  1.00  0.00     0.108 C
HETATM   25  C11 UNL     1      15.934   7.288  20.965  1.00  0.00     0.017 C
HETATM   26  C12 UNL     1      16.666   8.012  19.823  1.00  0.00     0.017 C
HETATM   27  C13 UNL     1      16.999   9.305  20.488  1.00  0.00     0.108 C
ENDBRANCH  20  23
ENDBRANCH   4  20
TORSDOF 4
ENDMDL