MODEL 1
REMARK VINA RESULT: -7.802534996      0.000      0.000
REMARK  4 active torsions:
REMARK  status: ('A' for Active; 'I' for Inactive)
REMARK       I    between atoms: C1_2  and  N1_3
REMARK    1  A    between atoms: C1_2  and  C5_8
REMARK    2  A    between atoms: N1_3  and  C2_5
REMARK       I    between atoms: N2_12  and  C9_13
REMARK    3  A    between atoms: C9_13  and  C10_15
REMARK       I    between atoms: N3_19  and  C14_20
REMARK       I    between atoms: C14_20  and  N4_22
REMARK    4  A    between atoms: N4_22  and  C15_24
ROOT
HETATM    1  C10 UNL     1      22.561  10.182  22.488  1.00  0.00     0.181 C
HETATM    2  C11 UNL     1      23.037   9.936  23.889  1.00  0.00     0.037 C
HETATM    3  C12 UNL     1      21.765   9.478  24.580  1.00  0.00     0.022 C
HETATM    4  C13 UNL     1      20.701  10.325  23.904  1.00  0.00     0.129 C
HETATM    5  N3  UNL     1      21.189  10.556  22.576  1.00  0.00    -0.321 N
HETATM    6  C14 UNL     1      20.338  11.063  21.548  1.00  0.00     0.319 C
HETATM    7  O3  UNL     1      20.791  11.208  20.403  1.00  0.00    -0.247 OA
HETATM    8  N4  UNL     1      19.002  11.397  21.815  1.00  0.00    -0.338 N
ATOM      9  H4  UNL     1      18.666  11.265  22.769  1.00  0.00     0.164 HD
ENDROOT
BRANCH   1  10
HETATM   10  C9  UNL     1      23.431  11.179  21.801  1.00  0.00     0.243 C
HETATM   11  N2  UNL     1      23.968  10.761  20.529  1.00  0.00    -0.337 N
HETATM   12  C5  UNL     1      24.839  11.547  19.662  1.00  0.00     0.179 C
HETATM   13  C8  UNL     1      23.767   9.503  19.837  1.00  0.00     0.127 C
HETATM   14  C6  UNL     1      24.162  11.352  18.319  1.00  0.00     0.037 C
HETATM   15  C7  UNL     1      23.761   9.904  18.372  1.00  0.00     0.022 C
HETATM   16  O2  UNL     1      23.728  12.302  22.206  1.00  0.00    -0.271 OA
BRANCH  12  17
HETATM   17  C1  UNL     1      26.224  11.079  19.660  1.00  0.00     0.241 C
HETATM   18  O1  UNL     1      26.951  11.299  18.639  1.00  0.00    -0.271 OA
HETATM   19  N1  UNL     1      26.837  10.384  20.725  1.00  0.00    -0.355 N
ATOM     20  H1  UNL     1      26.279  10.192  21.557  1.00  0.00     0.162 HD
BRANCH  19  21
HETATM   21  C2  UNL     1      28.206   9.928  20.705  1.00  0.00     0.084 A
HETATM   22  C3  UNL     1      29.169  10.349  21.750  1.00  0.00     0.027 A
HETATM   23  C4  UNL     1      28.621   8.961  21.809  1.00  0.00     0.027 A
ENDBRANCH  19  21
ENDBRANCH  12  17
ENDBRANCH   1  10
BRANCH   8  24
HETATM   24  C15 UNL     1      18.071  11.911  20.850  1.00  0.00     0.086 C
HETATM   25  C16 UNL     1      16.962  12.670  21.546  1.00  0.00     0.025 C
HETATM   26  C17 UNL     1      16.301  11.813  22.577  1.00  0.00     0.002 C
HETATM   27  C18 UNL     1      15.791  10.512  22.054  1.00  0.00     0.000 C
HETATM   28  C19 UNL     1      16.710   9.807  21.104  1.00  0.00     0.002 C
HETATM   29  C20 UNL     1      17.407  10.732  20.135  1.00  0.00     0.025 C
ENDBRANCH   8  24
TORSDOF 4
ENDMDL