MODEL 4
REMARK VINA RESULT: -7.967462329      1.264      1.544
REMARK  4 active torsions:
REMARK  status: ('A' for Active; 'I' for Inactive)
REMARK       I    between atoms: N1_2  and  C2_4
REMARK       I    between atoms: C2_4  and  N2_6
REMARK    1  A    between atoms: C5_9  and  C6_10
REMARK       I    between atoms: C6_10  and  N3_12
REMARK    2  A    between atoms: N3_12  and  C7_14
REMARK       I    between atoms: N4_17  and  C10_18
REMARK    3  A    between atoms: C10_18  and  C11_20
REMARK    4  A    between atoms: C11_20  and  C12_21
ROOT
HETATM    1  C7  UNL     1      22.862  12.539  20.157  1.00  0.00     0.087 C
HETATM    2  C8  UNL     1      22.191  11.356  19.506  1.00  0.00     0.045 C
HETATM    3  C9  UNL     1      20.730  11.618  19.400  1.00  0.00     0.127 C
HETATM    4  N4  UNL     1      20.131  12.223  20.542  1.00  0.00    -0.352 N
HETATM    5  C10 UNL     1      18.720  12.144  20.699  1.00  0.00     0.220 C
HETATM    6  O3  UNL     1      18.067  11.536  19.809  1.00  0.00    -0.273 OA
HETATM    7  C18 UNL     1      20.859  12.926  21.577  1.00  0.00     0.127 C
HETATM    8  C19 UNL     1      22.328  12.632  21.571  1.00  0.00     0.045 C
ENDROOT
BRANCH   1   9
HETATM    9  N3  UNL     1      24.270  12.319  20.198  1.00  0.00    -0.356 N
HETATM   10  C6  UNL     1      25.120  12.922  19.245  1.00  0.00     0.223 C
HETATM   11  O2  UNL     1      24.617  13.656  18.361  1.00  0.00    -0.273 OA
ATOM     12  H3  UNL     1      24.667  11.721  20.922  1.00  0.00     0.162 HD
BRANCH  10  13
HETATM   13  C5  UNL     1      26.596  12.715  19.256  1.00  0.00     0.097 C
HETATM   14  C4  UNL     1      27.256  13.942  19.890  1.00  0.00     0.035 C
HETATM   15  C3  UNL     1      27.197  13.573  21.363  1.00  0.00     0.128 C
HETATM   16  N2  UNL     1      27.590  12.190  21.337  1.00  0.00    -0.333 N
HETATM   17  C2  UNL     1      28.450  11.544  22.261  1.00  0.00     0.317 C
HETATM   18  C20 UNL     1      26.951  11.585  20.199  1.00  0.00     0.141 C
HETATM   19  N1  UNL     1      28.788  10.173  22.165  1.00  0.00    -0.347 N
HETATM   20  O1  UNL     1      28.961  12.193  23.239  1.00  0.00    -0.247 OA
HETATM   21  C1  UNL     1      29.654   9.564  23.112  1.00  0.00     0.151 C
ATOM     22  H1  UNL     1      28.405   9.614  21.403  1.00  0.00     0.163 HD
ENDBRANCH  10  13
ENDBRANCH   1   9
BRANCH   5  23
HETATM   23  C11 UNL     1      18.017  12.748  21.860  1.00  0.00     0.107 C
BRANCH  23  24
HETATM   24  C12 UNL     1      16.920  11.753  22.278  1.00  0.00    -0.006 C
HETATM   25  C13 UNL     1      17.466  10.617  23.048  1.00  0.00     0.005 C
HETATM   26  C14 UNL     1      16.959  10.386  24.422  1.00  0.00     0.000 C
HETATM   27  C15 UNL     1      15.697  11.086  24.798  1.00  0.00     0.000 C
HETATM   28  C16 UNL     1      15.830  12.544  24.377  1.00  0.00     0.000 C
HETATM   29  C17 UNL     1      15.801  12.527  22.868  1.00  0.00     0.005 C
ENDBRANCH  23  24
ENDBRANCH   5  23
TORSDOF 4
ENDMDL