MODEL 2
REMARK VINA RESULT: -7.860242115      2.162      3.392
REMARK  4 active torsions:
REMARK  status: ('A' for Active; 'I' for Inactive)
REMARK       I    between atoms: C2_2  and  N1_4
REMARK    1  A    between atoms: C6_8  and  C7_9
REMARK       I    between atoms: C7_9  and  N2_11
REMARK    2  A    between atoms: N2_11  and  C8_13
REMARK    3  A    between atoms: C8_13  and  C9_14
REMARK       I    between atoms: N3_18  and  C13_19
REMARK       I    between atoms: C13_19  and  N4_21
REMARK    4  A    between atoms: N4_21  and  C14_23
ROOT
HETATM    1  C9  UNL     1      21.434  12.504  23.545  1.00  0.00     0.021 C
HETATM    2  C10 UNL     1      21.545  13.856  22.851  1.00  0.00     0.009 C
HETATM    3  C11 UNL     1      22.984  14.284  22.998  1.00  0.00     0.020 C
HETATM    4  C12 UNL     1      23.957  13.183  22.753  1.00  0.00     0.127 C
HETATM    5  N3  UNL     1      23.422  11.941  22.298  1.00  0.00    -0.334 N
HETATM    6  C13 UNL     1      24.226  11.076  21.492  1.00  0.00     0.318 C
HETATM    7  O3  UNL     1      23.713   9.986  21.096  1.00  0.00    -0.247 OA
HETATM    8  N4  UNL     1      25.547  11.338  21.100  1.00  0.00    -0.338 N
ATOM      9  H4  UNL     1      25.977  12.210  21.408  1.00  0.00     0.164 HD
HETATM   10  C19 UNL     1      22.063  11.502  22.634  1.00  0.00     0.133 C
ENDROOT
BRANCH   1  11
HETATM   11  C8  UNL     1      19.989  12.182  23.852  1.00  0.00     0.128 C
BRANCH  11  12
HETATM   12  N2  UNL     1      19.205  12.115  22.653  1.00  0.00    -0.359 N
HETATM   13  C7  UNL     1      18.375  11.009  22.369  1.00  0.00     0.240 C
HETATM   14  O2  UNL     1      18.331  10.067  23.192  1.00  0.00    -0.271 OA
ATOM     15  H2  UNL     1      19.249  12.887  21.988  1.00  0.00     0.162 HD
BRANCH  13  16
HETATM   16  C6  UNL     1      17.593  10.970  21.145  1.00  0.00     0.179 C
HETATM   17  N1  UNL     1      17.664   9.711  20.440  1.00  0.00    -0.339 N
HETATM   18  C2  UNL     1      16.697   8.699  20.366  1.00  0.00     0.216 C
HETATM   19  C3  UNL     1      18.960   9.692  19.809  1.00  0.00     0.127 C
HETATM   20  C1  UNL     1      16.945   7.471  19.598  1.00  0.00     0.117 C
HETATM   21  O1  UNL     1      15.606   8.841  20.963  1.00  0.00    -0.274 OA
HETATM   22  C4  UNL     1      19.157  11.152  19.393  1.00  0.00     0.022 C
HETATM   23  C5  UNL     1      18.070  11.940  20.090  1.00  0.00     0.037 C
ENDBRANCH  13  16
ENDBRANCH  11  12
ENDBRANCH   1  11
BRANCH   8  24
HETATM   24  C14 UNL     1      26.334  10.443  20.284  1.00  0.00     0.086 C
HETATM   25  C15 UNL     1      27.367   9.692  21.098  1.00  0.00     0.025 C
HETATM   26  C16 UNL     1      28.394   9.338  20.042  1.00  0.00     0.002 C
HETATM   27  C17 UNL     1      28.533  10.643  19.293  1.00  0.00     0.002 C
HETATM   28  C18 UNL     1      27.134  11.177  19.221  1.00  0.00     0.025 C
ENDBRANCH   8  24
TORSDOF 4
ENDMDL