MODEL 5
REMARK VINA RESULT: -7.466558037      3.854      7.341
REMARK  6 active torsions:
REMARK  status: ('A' for Active; 'I' for Inactive)
REMARK    1  A    between atoms: C1_2  and  C2_4
REMARK    2  A    between atoms: N1_7  and  C5_8
REMARK    3  A    between atoms: C5_8  and  O3_9
REMARK    4  A    between atoms: C5_8  and  N2_11
REMARK       I    between atoms: N2_11  and  C6_13
REMARK    5  A    between atoms: C6_13  and  C7_15
REMARK       I    between atoms: N3_19  and  C11_20
REMARK    6  A    between atoms: C11_20  and  C12_22
ROOT
HETATM    1  N2  UNL     1      23.101  10.263  23.039  1.00  0.00    -0.291 N
ATOM      2  H2  UNL     1      24.105  10.185  23.207  1.00  0.00     0.172 HD
HETATM    3  C6  UNL     1      22.805  10.193  21.675  1.00  0.00     0.247 C
HETATM    4  O4  UNL     1      21.661  10.255  21.217  1.00  0.00    -0.271 OA
ENDROOT
BRANCH   1   5
HETATM    5  C5  UNL     1      22.411  10.409  24.211  1.00  0.00     0.221 C
BRANCH   5   6
HETATM    6  N1  UNL     1      21.829  11.487  24.843  1.00  0.00    -0.347 N
HETATM    7  C4  UNL     1      22.218  12.841  24.968  1.00  0.00     0.127 C
HETATM    8  C3  UNL     1      21.281  13.664  25.836  1.00  0.00     0.035 C
HETATM    9  C2  UNL     1      20.857  12.990  27.085  1.00  0.00     0.090 C
HETATM   10  C17 UNL     1      20.827  11.483  26.988  1.00  0.00     0.035 C
HETATM   11  C16 UNL     1      20.521  11.176  25.538  1.00  0.00     0.127 C
BRANCH   9  12
HETATM   12  C1  UNL     1      21.777  13.334  28.204  1.00  0.00     0.177 C
HETATM   13  O1  UNL     1      22.871  12.759  28.405  1.00  0.00    -0.648 OA
HETATM   14  O2  UNL     1      21.390  14.354  29.073  1.00  0.00    -0.648 OA
ENDBRANCH   9  12
ENDBRANCH   5   6
BRANCH   5  15
HETATM   15  O3  UNL     1      22.281   9.251  24.870  1.00  0.00    -0.332 OA
ATOM     16  H3  UNL     1      21.774   9.313  25.670  1.00  0.00     0.220 HD
ENDBRANCH   5  15
ENDBRANCH   1   5
BRANCH   3  17
HETATM   17  C7  UNL     1      23.879  10.031  20.661  1.00  0.00     0.179 C
HETATM   18  C8  UNL     1      23.353   9.374  19.407  1.00  0.00     0.037 C
HETATM   19  C9  UNL     1      24.098  10.059  18.254  1.00  0.00     0.022 C
HETATM   20  C10 UNL     1      25.254  10.721  19.017  1.00  0.00     0.127 C
HETATM   21  N3  UNL     1      24.489  11.221  20.177  1.00  0.00    -0.338 N
HETATM   22  C11 UNL     1      24.458  12.555  20.557  1.00  0.00     0.224 C
HETATM   23  O5  UNL     1      23.777  13.017  21.530  1.00  0.00    -0.273 OA
BRANCH  22  24
HETATM   24  C12 UNL     1      25.263  13.566  19.805  1.00  0.00     0.078 C
HETATM   25  C13 UNL     1      25.416  14.897  20.462  1.00  0.00     0.014 C
HETATM   26  C14 UNL     1      24.852  15.623  19.245  1.00  0.00     0.002 C
HETATM   27  C15 UNL     1      24.533  14.237  18.672  1.00  0.00     0.014 C
ENDBRANCH  22  24
ENDBRANCH   3  17
TORSDOF 6
ENDMDL