MODEL 1
REMARK VINA RESULT: -7.097027420      0.000      0.000
REMARK  6 active torsions:
REMARK  status: ('A' for Active; 'I' for Inactive)
REMARK    1  A    between atoms: C2_2  and  N1_3
REMARK    2  A    between atoms: N1_3  and  C3_5
REMARK    3  A    between atoms: C3_5  and  C5_7
REMARK       I    between atoms: C5_7  and  N2_9
REMARK    4  A    between atoms: N3_12  and  C8_13
REMARK    5  A    between atoms: C8_13  and  N4_15
REMARK    6  A    between atoms: N4_15  and  C9_17
ROOT
HETATM    1  C5  UNL     1      16.427  10.092  24.119  1.00  0.00     0.242 C
HETATM    2  O1  UNL     1      16.388   9.827  25.362  1.00  0.00    -0.271 OA
HETATM    3  N2  UNL     1      17.525  10.825  23.655  1.00  0.00    -0.347 N
HETATM    4  C6  UNL     1      18.525  11.264  24.613  1.00  0.00     0.145 C
HETATM    5  C7  UNL     1      19.909  10.818  24.211  1.00  0.00     0.145 C
HETATM    6  N3  UNL     1      20.062  10.885  22.766  1.00  0.00    -0.355 N
HETATM    7  C16 UNL     1      19.072  11.506  21.936  1.00  0.00     0.145 C
HETATM    8  C17 UNL     1      17.661  11.111  22.251  1.00  0.00     0.145 C
ENDROOT
BRANCH   6   9
HETATM    9  C8  UNL     1      21.223  10.320  22.194  1.00  0.00     0.170 C
HETATM   10  S1  UNL     1      22.605  10.416  23.102  1.00  0.00    -0.041 SA
BRANCH   9  11
HETATM   11  N4  UNL     1      21.183   9.687  20.932  1.00  0.00    -0.362 N
ATOM     12  H4  UNL     1      20.668   8.808  20.875  1.00  0.00     0.162 HD
BRANCH  11  13
HETATM   13  C9  UNL     1      21.797  10.160  19.711  1.00  0.00     0.083 C
HETATM   14  C10 UNL     1      21.854  11.660  19.724  1.00  0.00     0.025 C
HETATM   15  C11 UNL     1      22.955  12.251  18.900  1.00  0.00     0.002 C
HETATM   16  C12 UNL     1      24.324  11.972  19.410  1.00  0.00     0.000 C
HETATM   17  C13 UNL     1      24.929  10.859  18.614  1.00  0.00     0.000 C
HETATM   18  C14 UNL     1      23.876   9.824  18.333  1.00  0.00     0.002 C
HETATM   19  C15 UNL     1      23.135   9.514  19.576  1.00  0.00     0.025 C
ENDBRANCH  11  13
ENDBRANCH   9  11
ENDBRANCH   6   9
BRANCH   1  20
HETATM   20  C3  UNL     1      15.305   9.594  23.306  1.00  0.00     0.169 C
HETATM   21  C4  UNL     1      13.995  10.114  23.836  1.00  0.00     0.042 C
BRANCH  20  22
HETATM   22  N1  UNL     1      15.307   8.192  23.104  1.00  0.00    -0.390 N
ATOM     23  H1  UNL     1      15.342   7.579  23.918  1.00  0.00     0.159 HD
BRANCH  22  24
HETATM   24  C2  UNL     1      15.263   7.622  21.837  1.00  0.00     0.052 C
HETATM   25  C1  UNL     1      15.512   8.547  20.655  1.00  0.00     0.054 C
ENDBRANCH  22  24
ENDBRANCH  20  22
ENDBRANCH   1  20
TORSDOF 6
ENDMDL