MODEL 3
REMARK VINA RESULT: -7.280021789      2.029      2.777
REMARK  8 active torsions:
REMARK  status: ('A' for Active; 'I' for Inactive)
REMARK       I    between atoms: C1_2  and  N1_3
REMARK    1  A    between atoms: C1_2  and  C8_11
REMARK    2  A    between atoms: N1_3  and  C2_5
REMARK    3  A    between atoms: C2_5  and  C3_6
REMARK    4  A    between atoms: C4_7  and  C5_8
REMARK    5  A    between atoms: N2_14  and  C11_15
REMARK    6  A    between atoms: C11_15  and  O2_16
REMARK    7  A    between atoms: C11_15  and  N3_18
REMARK    8  A    between atoms: C16_23  and  C17_24
ROOT
HETATM    1  C8  UNL     1      19.163  10.013  19.903  1.00  0.00     0.109 A
HETATM    2  C9  UNL     1      19.140  11.440  20.122  1.00  0.00     0.042 A
HETATM    3  C10 UNL     1      19.463  12.197  21.410  1.00  0.00     0.134 C
HETATM    4  N2  UNL     1      20.758  11.632  21.181  1.00  0.00    -0.341 N
HETATM    5  C18 UNL     1      19.938  10.432  21.023  1.00  0.00     0.107 A
ENDROOT
BRANCH   4   6
HETATM    6  C11 UNL     1      22.107  11.948  21.127  1.00  0.00     0.218 C
BRANCH   6   7
HETATM    7  O2  UNL     1      22.415  13.032  21.805  1.00  0.00    -0.332 OA
ATOM      8  H2  UNL     1      22.411  13.821  21.276  1.00  0.00     0.220 HD
ENDBRANCH   6   7
BRANCH   6   9
HETATM    9  N3  UNL     1      23.169  11.320  20.483  1.00  0.00    -0.333 N
HETATM   10  C12 UNL     1      23.509   9.951  20.605  1.00  0.00     0.127 C
HETATM   11  C13 UNL     1      23.128   9.329  19.245  1.00  0.00     0.020 C
HETATM   12  C14 UNL     1      24.108   9.932  18.259  1.00  0.00     0.004 C
HETATM   13  C15 UNL     1      24.150  11.410  18.236  1.00  0.00     0.036 C
HETATM   14  C16 UNL     1      24.040  12.099  19.572  1.00  0.00     0.188 C
BRANCH  14  15
HETATM   15  C17 UNL     1      25.355  12.339  20.220  1.00  0.00     0.196 C
HETATM   16  O3  UNL     1      26.446  12.105  19.643  1.00  0.00    -0.646 OA
HETATM   17  O4  UNL     1      25.458  12.847  21.528  1.00  0.00    -0.646 OA
ENDBRANCH  14  15
ENDBRANCH   6   9
ENDBRANCH   4   6
BRANCH   1  18
HETATM   18  C1  UNL     1      17.844   9.338  20.041  1.00  0.00     0.225 C
HETATM   19  O1  UNL     1      17.466   8.484  19.198  1.00  0.00    -0.273 OA
HETATM   20  N1  UNL     1      16.975   9.634  21.121  1.00  0.00    -0.350 N
ATOM     21  H1  UNL     1      17.260  10.323  21.818  1.00  0.00     0.163 HD
BRANCH  20  22
HETATM   22  C2  UNL     1      15.696   8.981  21.257  1.00  0.00     0.217 C
BRANCH  22  23
HETATM   23  C3  UNL     1      14.965   9.605  22.359  1.00  0.00    -0.086 C
HETATM   24  C4  UNL     1      14.374  10.136  23.259  1.00  0.00    -0.100 C
BRANCH  24  25
HETATM   25  C5  UNL     1      13.666  10.802  24.352  1.00  0.00     0.065 A
HETATM   26  C6  UNL     1      12.535  10.091  24.997  1.00  0.00     0.018 A
HETATM   27  C7  UNL     1      13.840  10.113  25.711  1.00  0.00     0.018 A
ENDBRANCH  24  25
ENDBRANCH  22  23
ENDBRANCH  20  22
ENDBRANCH   1  18
TORSDOF 8
ENDMDL