MODEL 3
REMARK VINA RESULT: -7.781210078      1.867      3.896
REMARK  4 active torsions:
REMARK  status: ('A' for Active; 'I' for Inactive)
REMARK       I    between atoms: C1_2  and  N1_3
REMARK    1  A    between atoms: C1_2  and  C12_17
REMARK    2  A    between atoms: N1_3  and  C2_5
REMARK    3  A    between atoms: C9_12  and  O2_13
REMARK       I    between atoms: N2_21  and  C16_22
REMARK    4  A    between atoms: C16_22  and  C17_24
ROOT
HETATM    1  O1  UNL     1      21.540  10.020  21.337  1.00  0.00    -0.271 OA
HETATM    2  C1  UNL     1      21.233  11.188  21.035  1.00  0.00     0.241 C
HETATM    3  N1  UNL     1      22.256  12.048  20.550  1.00  0.00    -0.354 N
ATOM      4  H1  UNL     1      22.012  13.007  20.303  1.00  0.00     0.162 HD
ENDROOT
BRANCH   3   5
HETATM    5  C2  UNL     1      23.631  11.618  20.391  1.00  0.00     0.092 C
HETATM    6  C3  UNL     1      24.633  12.679  20.770  1.00  0.00     0.012 C
HETATM    7  C4  UNL     1      24.602  13.870  19.840  1.00  0.00     0.011 C
HETATM    8  C11 UNL     1      26.016  12.058  20.639  1.00  0.00     0.044 C
HETATM    9  C5  UNL     1      24.861  13.445  18.432  1.00  0.00    -0.011 C
HETATM   10  C6  UNL     1      23.787  12.455  18.036  1.00  0.00     0.011 C
HETATM   11  C10 UNL     1      26.210  12.792  18.313  1.00  0.00     0.042 C
HETATM   12  C7  UNL     1      23.827  11.253  18.956  1.00  0.00     0.012 C
HETATM   13  C8  UNL     1      25.176  10.602  18.786  1.00  0.00     0.044 C
HETATM   14  C9  UNL     1      26.235  11.585  19.215  1.00  0.00     0.059 C
BRANCH  14  15
HETATM   15  O2  UNL     1      27.501  11.021  19.116  1.00  0.00    -0.390 OA
ATOM     16  H2  UNL     1      28.168  11.638  19.393  1.00  0.00     0.210 HD
ENDBRANCH  14  15
ENDBRANCH   3   5
BRANCH   2  17
HETATM   17  C12 UNL     1      19.868  11.750  21.147  1.00  0.00     0.179 C
HETATM   18  C13 UNL     1      19.710  12.791  22.186  1.00  0.00     0.037 C
HETATM   19  C14 UNL     1      18.794  12.176  23.217  1.00  0.00     0.022 C
HETATM   20  C15 UNL     1      18.774  10.678  22.844  1.00  0.00     0.127 C
HETATM   21  N2  UNL     1      18.864  10.767  21.402  1.00  0.00    -0.338 N
HETATM   22  C16 UNL     1      18.100  10.007  20.494  1.00  0.00     0.224 C
HETATM   23  O3  UNL     1      18.341  10.215  19.252  1.00  0.00    -0.273 OA
BRANCH  22  24
HETATM   24  C17 UNL     1      17.074   9.019  20.812  1.00  0.00     0.078 C
HETATM   25  C18 UNL     1      15.708   9.470  21.185  1.00  0.00     0.014 C
HETATM   26  C19 UNL     1      15.182   8.244  20.428  1.00  0.00     0.002 C
HETATM   27  C20 UNL     1      16.463   8.305  19.626  1.00  0.00     0.014 C
ENDBRANCH  22  24
ENDBRANCH   2  17
TORSDOF 4
ENDMDL