MODEL 3
REMARK VINA RESULT: -7.674247617      2.772      9.044
REMARK  3 active torsions:
REMARK  status: ('A' for Active; 'I' for Inactive)
REMARK    1  A    between atoms: C3_3  and  N1_4
REMARK       I    between atoms: N1_4  and  C4_6
REMARK    2  A    between atoms: C4_6  and  C5_8
REMARK    3  A    between atoms: C8_11  and  N2_12
REMARK       I    between atoms: N2_12  and  C9_14
REMARK       I    between atoms: C9_14  and  N3_16
ROOT
HETATM    1  C1  UNL     1      15.147   7.961  21.269  1.00  0.00     0.014 C
HETATM    2  C2  UNL     1      16.053   8.031  20.485  1.00  0.00    -0.098 C
HETATM    3  C3  UNL     1      17.150   8.097  19.519  1.00  0.00     0.216 C
ENDROOT
BRANCH   3   4
HETATM    4  N1  UNL     1      18.307   8.674  20.145  1.00  0.00    -0.350 N
HETATM    5  C4  UNL     1      18.629  10.046  19.966  1.00  0.00     0.222 C
HETATM    6  O1  UNL     1      17.870  10.739  19.244  1.00  0.00    -0.273 OA
ATOM      7  H1  UNL     1      18.907   8.090  20.726  1.00  0.00     0.163 HD
BRANCH   5   8
HETATM    8  C5  UNL     1      19.820  10.669  20.603  1.00  0.00     0.080 C
HETATM    9  C6  UNL     1      20.129  10.085  21.949  1.00  0.00     0.016 C
HETATM   10  C7  UNL     1      20.975  11.159  22.638  1.00  0.00     0.026 C
HETATM   11  C8  UNL     1      20.776  12.421  21.837  1.00  0.00     0.087 C
HETATM   12  C19 UNL     1      19.571  12.127  20.938  1.00  0.00     0.039 C
BRANCH  11  13
HETATM   13  N2  UNL     1      21.899  12.691  20.952  1.00  0.00    -0.338 N
HETATM   14  C9  UNL     1      23.105  13.267  21.411  1.00  0.00     0.318 C
HETATM   15  O2  UNL     1      23.210  13.556  22.626  1.00  0.00    -0.247 OA
HETATM   16  N3  UNL     1      24.159  13.506  20.504  1.00  0.00    -0.332 N
HETATM   17  C10 UNL     1      25.329  14.100  21.126  1.00  0.00     0.134 C
HETATM   18  C18 UNL     1      23.882  13.122  19.142  1.00  0.00     0.163 C
HETATM   19  C11 UNL     1      26.606  13.621  20.494  1.00  0.00     0.037 C
HETATM   20  C12 UNL     1      26.872  12.194  20.915  1.00  0.00     0.010 C
HETATM   21  C17 UNL     1      26.684  13.855  19.034  1.00  0.00     0.231 C
HETATM   22  C13 UNL     1      27.349  11.423  19.723  1.00  0.00     0.031 C
HETATM   23  C14 UNL     1      26.259  11.504  18.666  1.00  0.00     0.273 C
HETATM   24  N4  UNL     1      26.145  12.818  18.212  1.00  0.00     0.100 N
HETATM   25  C15 UNL     1      24.910  13.487  18.143  1.00  0.00     0.243 C
HETATM   26  C16 UNL     1      25.614  14.778  18.503  1.00  0.00     0.073 C
ATOM     27  H2  UNL     1      21.812  12.455  19.964  1.00  0.00     0.164 HD
ENDBRANCH  11  13
ENDBRANCH   5   8
ENDBRANCH   3   4
TORSDOF 3
ENDMDL