MODEL 1
REMARK VINA RESULT: -8.669109167      0.000      0.000
REMARK  3 active torsions:
REMARK  status: ('A' for Active; 'I' for Inactive)
REMARK       I    between atoms: N1_2  and  C2_4
REMARK    1  A    between atoms: C2_4  and  C3_6
REMARK    2  A    between atoms: C6_9  and  N2_10
REMARK       I    between atoms: N2_10  and  C7_12
REMARK    3  A    between atoms: C7_12  and  C8_14
REMARK       I    between atoms: C8_14  and  N3_16
ROOT
HETATM    1  N2  UNL     1      20.151   9.921  20.291  1.00  0.00    -0.348 N
ATOM      2  H2  UNL     1      20.255   9.121  20.916  1.00  0.00     0.163 HD
HETATM    3  C7  UNL     1      18.846  10.241  19.789  1.00  0.00     0.309 C
HETATM    4  O2  UNL     1      18.766  11.231  19.025  1.00  0.00    -0.262 OA
ENDROOT
BRANCH   1   5
HETATM    5  C6  UNL     1      21.300  10.677  19.949  1.00  0.00     0.085 C
HETATM    6  C5  UNL     1      22.525   9.801  19.659  1.00  0.00     0.026 C
HETATM    7  C4  UNL     1      23.482  10.702  18.892  1.00  0.00     0.016 C
HETATM    8  C3  UNL     1      23.801  11.970  19.605  1.00  0.00     0.078 C
HETATM    9  C18 UNL     1      22.642  12.682  20.207  1.00  0.00     0.016 C
HETATM   10  C17 UNL     1      21.727  11.700  20.951  1.00  0.00     0.026 C
BRANCH   8  11
HETATM   11  C2  UNL     1      24.453  12.890  18.627  1.00  0.00     0.221 C
HETATM   12  N1  UNL     1      25.771  13.322  18.899  1.00  0.00    -0.365 N
HETATM   13  C1  UNL     1      26.421  14.215  17.960  1.00  0.00     0.149 C
ATOM     14  H1  UNL     1      26.257  13.011  19.740  1.00  0.00     0.161 HD
HETATM   15  O1  UNL     1      23.874  13.283  17.590  1.00  0.00    -0.273 OA
ENDBRANCH   8  11
ENDBRANCH   1   5
BRANCH   3  16
HETATM   16  C8  UNL     1      17.679   9.465  20.143  1.00  0.00     0.311 C
HETATM   17  O3  UNL     1      17.305   8.545  19.376  1.00  0.00    -0.262 OA
HETATM   18  N3  UNL     1      16.896   9.672  21.335  1.00  0.00    -0.344 N
HETATM   19  C9  UNL     1      15.739   8.831  21.600  1.00  0.00     0.126 C
HETATM   20  C16 UNL     1      17.228  10.694  22.283  1.00  0.00     0.131 C
HETATM   21  C10 UNL     1      14.584   9.712  21.947  1.00  0.00     0.025 C
HETATM   22  C11 UNL     1      14.868  10.615  23.115  1.00  0.00    -0.007 C
HETATM   23  C12 UNL     1      14.208  10.053  24.332  1.00  0.00     0.005 C
HETATM   24  C15 UNL     1      16.313  10.688  23.462  1.00  0.00     0.008 C
HETATM   25  C13 UNL     1      15.214   9.111  24.900  1.00  0.00     0.001 C
HETATM   26  C14 UNL     1      16.577   9.624  24.467  1.00  0.00     0.007 C
ENDBRANCH   3  16
TORSDOF 3
ENDMDL