MODEL 5
REMARK VINA RESULT: -6.965107892      1.622      6.993
REMARK  7 active torsions:
REMARK  status: ('A' for Active; 'I' for Inactive)
REMARK       I    between atoms: C1_2  and  N1_3
REMARK    1  A    between atoms: C1_2  and  C9_12
REMARK    2  A    between atoms: N1_3  and  C2_5
REMARK    3  A    between atoms: C2_5  and  C3_6
REMARK       I    between atoms: C9_12  and  N2_14
REMARK    4  A    between atoms: N2_14  and  C10_16
REMARK    5  A    between atoms: N3_20  and  C14_21
REMARK    6  A    between atoms: C14_21  and  O3_22
REMARK    7  A    between atoms: C14_21  and  N4_24
ROOT
HETATM    1  C9  UNL     1      19.178  10.363  20.305  1.00  0.00     0.310 C
HETATM    2  O2  UNL     1      19.184  11.603  20.141  1.00  0.00    -0.262 OA
HETATM    3  N2  UNL     1      20.406   9.676  20.479  1.00  0.00    -0.332 N
ATOM      4  H2  UNL     1      20.406   8.665  20.614  1.00  0.00     0.165 HD
ENDROOT
BRANCH   3   5
HETATM    5  C10 UNL     1      21.655  10.396  20.467  1.00  0.00     0.190 C
HETATM    6  C11 UNL     1      22.523   9.907  19.349  1.00  0.00     0.049 C
HETATM    7  C12 UNL     1      23.564   9.085  20.075  1.00  0.00     0.024 C
HETATM    8  C13 UNL     1      23.769   9.985  21.317  1.00  0.00     0.129 C
HETATM    9  N3  UNL     1      22.423  10.216  21.706  1.00  0.00    -0.326 N
BRANCH   9  10
HETATM   10  C14 UNL     1      21.848  10.280  22.980  1.00  0.00     0.218 C
BRANCH  10  11
HETATM   11  O3  UNL     1      22.311   9.485  23.903  1.00  0.00    -0.332 OA
ATOM     12  H3  UNL     1      22.784   9.871  24.630  1.00  0.00     0.220 HD
ENDBRANCH  10  11
BRANCH  10  13
HETATM   13  N4  UNL     1      20.796  11.114  23.429  1.00  0.00    -0.347 N
HETATM   14  C15 UNL     1      19.499  10.746  23.934  1.00  0.00     0.126 C
HETATM   15  C16 UNL     1      18.884  12.043  24.475  1.00  0.00     0.021 C
HETATM   16  C17 UNL     1      19.489  13.029  23.471  1.00  0.00     0.021 C
HETATM   17  C18 UNL     1      20.910  12.582  23.443  1.00  0.00     0.126 C
ENDBRANCH  10  13
ENDBRANCH   9  10
ENDBRANCH   3   5
BRANCH   1  18
HETATM   18  C1  UNL     1      17.893   9.675  20.310  1.00  0.00     0.309 C
HETATM   19  O1  UNL     1      17.611   8.973  19.301  1.00  0.00    -0.262 OA
HETATM   20  N1  UNL     1      16.979   9.772  21.390  1.00  0.00    -0.353 N
ATOM     21  H1  UNL     1      17.211  10.341  22.205  1.00  0.00     0.162 HD
BRANCH  20  22
HETATM   22  C2  UNL     1      15.729   9.071  21.339  1.00  0.00     0.127 C
BRANCH  22  23
HETATM   23  C3  UNL     1      14.889   9.296  22.578  1.00  0.00     0.003 C
HETATM   24  C4  UNL     1      15.706   8.850  23.768  1.00  0.00     0.006 C
HETATM   25  C5  UNL     1      15.151   9.330  25.073  1.00  0.00     0.000 C
HETATM   26  C6  UNL     1      14.676  10.743  25.061  1.00  0.00     0.000 C
HETATM   27  C7  UNL     1      15.231  11.417  23.819  1.00  0.00     0.000 C
HETATM   28  C8  UNL     1      14.540  10.753  22.633  1.00  0.00     0.006 C
ENDBRANCH  22  23
ENDBRANCH  20  22
ENDBRANCH   1  18
TORSDOF 7
ENDMDL