MODEL 3
REMARK VINA RESULT: -7.594357201      2.419      4.436
REMARK  4 active torsions:
REMARK  status: ('A' for Active; 'I' for Inactive)
REMARK    1  A    between atoms: C3_3  and  N1_5
REMARK       I    between atoms: N1_5  and  C5_7
REMARK       I    between atoms: C5_7  and  N2_9
REMARK       I    between atoms: N3_13  and  C9_14
REMARK       I    between atoms: C9_14  and  N4_16
REMARK    2  A    between atoms: N4_16  and  C10_18
REMARK    3  A    between atoms: C10_18  and  C11_19
REMARK    4  A    between atoms: C11_19  and  N5_20
ROOT
HETATM    1  C1  UNL     1      20.475  11.246  27.691  1.00  0.00     0.014 C
HETATM    2  C2  UNL     1      19.485  11.660  27.142  1.00  0.00    -0.092 C
HETATM    3  C3  UNL     1      18.277  12.173  26.496  1.00  0.00     0.161 C
HETATM    4  C4  UNL     1      18.323  13.685  26.500  1.00  0.00     0.046 C
ENDROOT
BRANCH   3   5
HETATM    5  N1  UNL     1      18.187  11.681  25.110  1.00  0.00    -0.327 N
HETATM    6  C5  UNL     1      17.187  10.797  24.720  1.00  0.00     0.338 C
HETATM    7  O1  UNL     1      16.345  10.443  25.641  1.00  0.00    -0.245 OA
HETATM    8  N2  UNL     1      16.996  10.256  23.440  1.00  0.00    -0.229 N
HETATM    9  C6  UNL     1      15.942   9.352  22.905  1.00  0.00     0.140 A
HETATM   10  N3  UNL     1      17.529  10.212  22.175  1.00  0.00    -0.229 N
HETATM   11  C7  UNL     1      14.952  10.073  22.099  1.00  0.00     0.059 A
HETATM   12  C8  UNL     1      16.274   9.844  21.522  1.00  0.00     0.140 A
HETATM   13  C9  UNL     1      18.830  10.395  21.580  1.00  0.00     0.341 C
HETATM   14  O2  UNL     1      19.805  10.630  22.321  1.00  0.00    -0.245 OA
HETATM   15  N4  UNL     1      19.019  10.314  20.184  1.00  0.00    -0.317 N
ATOM     16  H4  UNL     1      18.184  10.153  19.621  1.00  0.00     0.170 HD
ATOM     17  H1  UNL     1      18.872  11.994  24.423  1.00  0.00     0.165 HD
BRANCH  15  18
HETATM   18  C10 UNL     1      20.215  10.429  19.495  1.00  0.00     0.104 C
BRANCH  18  19
HETATM   19  C11 UNL     1      21.006  11.636  19.312  1.00  0.00     0.076 C
BRANCH  19  20
HETATM   20  N5  UNL     1      22.302  11.807  19.776  1.00  0.00    -0.291 NA
HETATM   21  C12 UNL     1      22.952  10.728  20.429  1.00  0.00     0.100 C
HETATM   22  C13 UNL     1      24.106  10.289  19.551  1.00  0.00     0.004 C
HETATM   23  C14 UNL     1      25.435  10.517  20.275  1.00  0.00     0.006 C
HETATM   24  C17 UNL     1      24.151  11.258  18.404  1.00  0.00     0.004 C
HETATM   25  C15 UNL     1      26.367  10.708  19.087  1.00  0.00     0.001 C
HETATM   26  C16 UNL     1      25.589  11.732  18.273  1.00  0.00     0.006 C
HETATM   27  C18 UNL     1      23.232  12.380  18.826  1.00  0.00     0.100 C
ENDBRANCH  19  20
ENDBRANCH  18  19
ENDBRANCH  15  18
ENDBRANCH   3   5
TORSDOF 4
ENDMDL