MODEL 2
REMARK VINA RESULT: -7.217549711      1.812      5.949
REMARK  4 active torsions:
REMARK  status: ('A' for Active; 'I' for Inactive)
REMARK    1  A    between atoms: C2_2  and  N1_4
REMARK       I    between atoms: N1_4  and  C4_6
REMARK       I    between atoms: C4_6  and  N2_8
REMARK    2  A    between atoms: C6_10  and  N3_11
REMARK       I    between atoms: N3_11  and  C7_13
REMARK    3  A    between atoms: C7_13  and  C8_15
REMARK    4  A    between atoms: C12_19  and  C13_20
REMARK       I    between atoms: C13_20  and  N4_22
ROOT
HETATM    1  N1  UNL     1      17.375   9.487  20.830  1.00  0.00    -0.339 N
ATOM      2  H1  UNL     1      17.357   9.390  21.846  1.00  0.00     0.164 HD
HETATM    3  C4  UNL     1      18.319  10.369  20.273  1.00  0.00     0.318 C
HETATM    4  O1  UNL     1      18.344  10.494  19.003  1.00  0.00    -0.247 OA
HETATM    5  N2  UNL     1      19.217  11.101  21.076  1.00  0.00    -0.331 N
HETATM    6  C5  UNL     1      19.271  11.022  22.516  1.00  0.00     0.153 C
HETATM    7  C6  UNL     1      20.715  11.308  22.865  1.00  0.00     0.117 C
HETATM    8  C12 UNL     1      21.356  11.880  21.654  1.00  0.00     0.120 C
HETATM    9  C18 UNL     1      20.224  12.048  20.669  1.00  0.00     0.143 C
ENDROOT
BRANCH   7  10
HETATM   10  N3  UNL     1      20.719  12.134  24.029  1.00  0.00    -0.353 N
HETATM   11  C7  UNL     1      20.981  11.568  25.302  1.00  0.00     0.225 C
HETATM   12  O2  UNL     1      21.214  10.331  25.418  1.00  0.00    -0.273 OA
ATOM     13  H3  UNL     1      20.533  13.133  23.945  1.00  0.00     0.163 HD
BRANCH  11  14
HETATM   14  C8  UNL     1      20.984  12.421  26.510  1.00  0.00     0.030 C
HETATM   15  C9  UNL     1      22.291  13.217  26.607  1.00  0.00     0.024 C
HETATM   16  C10 UNL     1      19.880  13.464  26.411  1.00  0.00     0.024 C
HETATM   17  C11 UNL     1      20.792  11.664  27.784  1.00  0.00     0.024 C
ENDBRANCH  11  14
ENDBRANCH   7  10
BRANCH   8  18
HETATM   18  C13 UNL     1      22.336  10.933  21.030  1.00  0.00     0.227 C
HETATM   19  O3  UNL     1      22.596   9.895  21.686  1.00  0.00    -0.273 OA
HETATM   20  N4  UNL     1      22.926  11.215  19.767  1.00  0.00    -0.352 N
HETATM   21  C14 UNL     1      22.730  12.349  18.906  1.00  0.00     0.126 C
HETATM   22  C17 UNL     1      23.877  10.335  19.119  1.00  0.00     0.126 C
HETATM   23  C15 UNL     1      24.105  12.572  18.315  1.00  0.00     0.021 C
HETATM   24  C16 UNL     1      24.577  11.156  18.073  1.00  0.00     0.021 C
ENDBRANCH   8  18
BRANCH   1  25
HETATM   25  C2  UNL     1      16.434   8.714  20.067  1.00  0.00     0.078 C
HETATM   26  C1  UNL     1      17.140   7.484  19.556  1.00  0.00     0.032 C
HETATM   27  C3  UNL     1      15.298   8.300  21.004  1.00  0.00     0.032 C
ENDBRANCH   1  25
TORSDOF 4
ENDMDL