MODEL 4
REMARK VINA RESULT: -7.836091030      3.266      3.524
REMARK  4 active torsions:
REMARK  status: ('A' for Active; 'I' for Inactive)
REMARK    1  A    between atoms: C1_2  and  C2_3
REMARK       I    between atoms: C1_2  and  N1_13
REMARK       I    between atoms: N2_16  and  C14_17
REMARK    2  A    between atoms: C14_17  and  C15_19
REMARK    3  A    between atoms: C15_19  and  C16_20
REMARK    4  A    between atoms: C16_20  and  O3_21
ROOT
HETATM    1  O1  UNL     1      23.448  14.806  21.129  1.00  0.00    -0.273 OA
HETATM    2  C1  UNL     1      23.195  13.672  21.684  1.00  0.00     0.224 C
HETATM    3  N1  UNL     1      22.741  13.637  23.018  1.00  0.00    -0.343 N
HETATM    4  C12 UNL     1      22.477  12.363  23.635  1.00  0.00     0.146 C
HETATM    5  C13 UNL     1      22.759  12.380  25.122  1.00  0.00     0.151 C
HETATM    6  N2  UNL     1      22.335  13.652  25.728  1.00  0.00    -0.286 N
HETATM    7  C14 UNL     1      21.408  13.688  26.785  1.00  0.00     0.226 C
HETATM    8  O2  UNL     1      21.070  14.786  27.275  1.00  0.00    -0.273 OA
HETATM    9  C17 UNL     1      22.945  14.835  25.152  1.00  0.00     0.342 C
HETATM   10  F1  UNL     1      24.337  14.690  25.197  1.00  0.00    -0.180 F
HETATM   11  F2  UNL     1      22.551  15.963  25.804  1.00  0.00    -0.180 F
HETATM   12  C18 UNL     1      22.564  14.900  23.706  1.00  0.00     0.230 C
ENDROOT
BRANCH   2  13
HETATM   13  C2  UNL     1      23.392  12.439  20.886  1.00  0.00     0.083 C
HETATM   14  C3  UNL     1      22.826  12.479  19.511  1.00  0.00     0.019 C
HETATM   15  C4  UNL     1      23.374  11.283  18.735  1.00  0.00    -0.013 C
HETATM   16  C5  UNL     1      24.558  11.642  17.896  1.00  0.00     0.009 C
HETATM   17  C9  UNL     1      23.725  10.162  19.653  1.00  0.00     0.010 C
HETATM   18  C6  UNL     1      25.830  11.833  18.692  1.00  0.00    -0.013 C
HETATM   19  C7  UNL     1      26.112  10.560  19.482  1.00  0.00     0.010 C
HETATM   20  C11 UNL     1      25.639  12.830  19.815  1.00  0.00     0.010 C
HETATM   21  C8  UNL     1      24.934  10.595  20.466  1.00  0.00    -0.009 C
HETATM   22  C10 UNL     1      24.867  12.060  20.828  1.00  0.00     0.003 C
ENDBRANCH   2  13
BRANCH   7  23
HETATM   23  C15 UNL     1      20.831  12.438  27.317  1.00  0.00     0.129 C
BRANCH  23  24
HETATM   24  C16 UNL     1      21.309  12.133  28.715  1.00  0.00     0.173 C
BRANCH  24  25
HETATM   25  O3  UNL     1      22.683  12.054  28.772  1.00  0.00    -0.400 OA
ATOM     26  H3  UNL     1      23.002  12.181  29.657  1.00  0.00     0.209 HD
ENDBRANCH  24  25
ENDBRANCH  23  24
ENDBRANCH   7  23
TORSDOF 4
ENDMDL