MODEL 4
REMARK VINA RESULT: -6.054149011      3.672      5.841
REMARK  3 active torsions:
REMARK  status: ('A' for Active; 'I' for Inactive)
REMARK    1  A    between atoms: C2_2  and  C3_3
REMARK       I    between atoms: C3_3  and  N1_5
REMARK    2  A    between atoms: C8_13  and  C9_14
REMARK    3  A    between atoms: C12_17  and  C13_18
ROOT
HETATM    1  C3  UNL     1      19.692  11.311  26.600  1.00  0.00     0.220 C
HETATM    2  O1  UNL     1      18.543  11.849  26.677  1.00  0.00    -0.273 OA
HETATM    3  N1  UNL     1      20.350  11.309  25.333  1.00  0.00    -0.335 N
HETATM    4  C4  UNL     1      21.656  10.723  25.125  1.00  0.00     0.152 C
HETATM    5  C5  UNL     1      21.536  10.264  23.687  1.00  0.00     0.101 C
HETATM    6  N2  UNL     1      22.774  10.014  23.073  1.00  0.00    -0.414 N
ATOM      7  H2  UNL     1      23.574   9.703  23.624  1.00  0.00     0.153 HD
HETATM    8  C6  UNL     1      22.889  10.203  21.673  1.00  0.00     0.130 C
HETATM    9  C7  UNL     1      21.981  11.218  21.063  1.00  0.00     0.080 C
HETATM   10 BR1  UNL     1      22.578  12.019  19.459  1.00  0.00    -0.089 Br
HETATM   11  C8  UNL     1      21.462  12.216  22.116  1.00  0.00     0.010 C
HETATM   12  C11 UNL     1      20.687  11.353  23.034  1.00  0.00     0.048 C
HETATM   13  C12 UNL     1      19.836  11.872  24.083  1.00  0.00     0.194 C
ENDROOT
BRANCH   1  14
HETATM   14  C2  UNL     1      20.287  10.721  27.810  1.00  0.00     0.098 C
HETATM   15  C1  UNL     1      20.859  11.805  28.696  1.00  0.00     0.014 C
ENDBRANCH   1  14
BRANCH  13  16
HETATM   16  C13 UNL     1      19.666  13.294  24.263  1.00  0.00     0.197 C
HETATM   17  O2  UNL     1      18.670  13.872  23.708  1.00  0.00    -0.646 OA
HETATM   18  O3  UNL     1      20.497  14.125  24.996  1.00  0.00    -0.646 OA
ENDBRANCH  13  16
BRANCH  11  19
HETATM   19  C9  UNL     1      22.541  13.055  22.690  1.00  0.00     0.002 C
HETATM   20  C10 UNL     1      22.566  14.474  22.238  1.00  0.00     0.005 C
ENDBRANCH  11  19
TORSDOF 3
ENDMDL