MODEL 1
REMARK VINA RESULT: -5.671403479      0.000      0.000
REMARK  6 active torsions:
REMARK  status: ('A' for Active; 'I' for Inactive)
REMARK    1  A    between atoms: C2_2  and  N1_3
REMARK    2  A    between atoms: N2_6  and  C5_7
REMARK    3  A    between atoms: C5_7  and  N3_9
REMARK    4  A    between atoms: N3_9  and  N4_11
REMARK       I    between atoms: N4_11  and  C6_13
REMARK    5  A    between atoms: C6_13  and  C7_15
REMARK    6  A    between atoms: C7_15  and  C8_16
ROOT
HETATM    1  C5  UNL     1      27.387  13.553  19.499  1.00  0.00     0.188 C
HETATM    2  S1  UNL     1      28.221  14.976  19.751  1.00  0.00    -0.039 SA
ENDROOT
BRANCH   1   3
HETATM    3  N2  UNL     1      27.950  12.388  20.031  1.00  0.00    -0.354 N
HETATM    4  C4  UNL     1      29.057  12.518  21.006  1.00  0.00     0.155 C
HETATM    5  C3  UNL     1      28.730  11.492  22.086  1.00  0.00     0.292 C
HETATM    6  N1  UNL     1      29.039  10.213  21.486  1.00  0.00     0.091 N
HETATM    7  C11 UNL     1      28.354   9.952  20.280  1.00  0.00     0.292 C
HETATM    8  C10 UNL     1      27.535  11.074  19.702  1.00  0.00     0.155 C
BRANCH   6   9
HETATM    9  C2  UNL     1      28.748   9.180  22.455  1.00  0.00     0.268 C
HETATM   10  C1  UNL     1      29.739   9.184  23.597  1.00  0.00     0.037 C
ENDBRANCH   6   9
ENDBRANCH   1   3
BRANCH   1  11
HETATM   11  N3  UNL     1      26.205  13.656  18.780  1.00  0.00    -0.274 N
ATOM     12  H3  UNL     1      26.317  13.805  17.776  1.00  0.00     0.189 HD
BRANCH  11  13
HETATM   13  N4  UNL     1      24.893  13.585  19.227  1.00  0.00    -0.268 N
HETATM   14  C6  UNL     1      24.074  12.530  18.771  1.00  0.00     0.237 C
HETATM   15  O1  UNL     1      24.489  11.651  17.975  1.00  0.00    -0.272 OA
ATOM     16  H4  UNL     1      24.528  14.284  19.874  1.00  0.00     0.190 HD
BRANCH  14  17
HETATM   17  C7  UNL     1      22.675  12.459  19.250  1.00  0.00     0.120 C
BRANCH  17  18
HETATM   18  C8  UNL     1      22.532  11.544  20.448  1.00  0.00     0.062 C
HETATM   19  C9  UNL     1      21.562  12.225  21.404  1.00  0.00     0.022 C
HETATM   20 BR1  UNL     1      21.890   9.798  19.946  1.00  0.00    -0.091 Br
ENDBRANCH  17  18
ENDBRANCH  14  17
ENDBRANCH  11  13
ENDBRANCH   1  11
TORSDOF 6
ENDMDL