MODEL 4
REMARK VINA RESULT: -7.900946675      1.197      1.496
REMARK  3 active torsions:
REMARK  status: ('A' for Active; 'I' for Inactive)
REMARK    1  A    between atoms: C1_2  and  C2_4
REMARK       I    between atoms: N1_8  and  C6_9
REMARK    2  A    between atoms: C6_9  and  C7_11
REMARK    3  A    between atoms: C13_17  and  C14_18
REMARK       I    between atoms: C14_18  and  N2_20
ROOT
HETATM    1  C7  UNL     1      24.836  12.886  20.784  1.00  0.00     0.095 C
HETATM    2  C8  UNL     1      24.277  13.021  19.389  1.00  0.00    -0.000 C
HETATM    3  C9  UNL     1      23.625  14.378  19.270  1.00  0.00     0.006 C
HETATM    4  C10 UNL     1      22.524  14.279  20.331  1.00  0.00     0.006 C
HETATM    5  C11 UNL     1      22.486  12.850  20.770  1.00  0.00    -0.000 C
HETATM    6  C12 UNL     1      23.006  12.154  19.498  1.00  0.00     0.011 C
HETATM    7  C13 UNL     1      23.663  12.521  21.662  1.00  0.00     0.095 C
ENDROOT
BRANCH   1   8
HETATM    8  C6  UNL     1      25.859  11.816  20.764  1.00  0.00     0.226 C
HETATM    9  N1  UNL     1      27.238  12.079  20.631  1.00  0.00    -0.337 N
HETATM   10  C2  UNL     1      28.316  11.089  20.567  1.00  0.00     0.188 C
HETATM   11  C5  UNL     1      27.821  13.403  20.553  1.00  0.00     0.127 C
HETATM   12  C3  UNL     1      29.526  11.851  20.136  1.00  0.00     0.038 C
HETATM   13  C4  UNL     1      28.953  13.127  19.553  1.00  0.00     0.022 C
HETATM   14  O3  UNL     1      25.480  10.598  20.869  1.00  0.00    -0.273 OA
BRANCH  10  15
HETATM   15  C1  UNL     1      28.488  10.408  21.868  1.00  0.00     0.196 C
HETATM   16  O1  UNL     1      28.278   9.191  22.048  1.00  0.00    -0.646 OA
HETATM   17  O2  UNL     1      28.905  11.171  22.948  1.00  0.00    -0.646 OA
ENDBRANCH  10  15
ENDBRANCH   1   8
BRANCH   7  18
HETATM   18  C14 UNL     1      23.656  13.215  22.947  1.00  0.00     0.225 C
HETATM   19  O4  UNL     1      24.422  14.195  23.114  1.00  0.00    -0.273 OA
HETATM   20  N2  UNL     1      22.787  12.771  23.975  1.00  0.00    -0.349 N
HETATM   21  C15 UNL     1      22.695  13.383  25.294  1.00  0.00     0.129 C
HETATM   22  C18 UNL     1      21.846  11.662  23.944  1.00  0.00     0.162 C
HETATM   23  C16 UNL     1      21.736  12.568  26.086  1.00  0.00     0.058 C
HETATM   24  C17 UNL     1      21.721  11.235  25.392  1.00  0.00     0.189 C
HETATM   25  F1  UNL     1      20.517  10.598  25.615  1.00  0.00    -0.248 F
ENDBRANCH   7  18
TORSDOF 3
ENDMDL