MODEL 1
REMARK VINA RESULT: -6.447326982      0.000      0.000
REMARK  3 active torsions:
REMARK  status: ('A' for Active; 'I' for Inactive)
REMARK    1  A    between atoms: C2_2  and  N1_3
REMARK       I    between atoms: N1_3  and  C3_5
REMARK       I    between atoms: C3_5  and  N2_7
REMARK       I    between atoms: N3_14  and  C10_15
REMARK       I    between atoms: C10_15  and  N4_17
REMARK    2  A    between atoms: N4_17  and  C11_19
REMARK    3  A    between atoms: C11_19  and  C12_20
ROOT
HETATM    1  N1  UNL     1      25.509  11.287  19.543  1.00  0.00    -0.343 N
ATOM      2  H1  UNL     1      25.203  10.392  19.162  1.00  0.00     0.164 HD
HETATM    3  C3  UNL     1      24.890  11.810  20.701  1.00  0.00     0.318 C
HETATM    4  O1  UNL     1      25.277  12.914  21.161  1.00  0.00    -0.247 OA
HETATM    5  N2  UNL     1      23.845  11.125  21.360  1.00  0.00    -0.332 N
HETATM    6  C4  UNL     1      23.314   9.862  20.944  1.00  0.00     0.127 C
HETATM    7  C5  UNL     1      21.933  10.118  20.371  1.00  0.00     0.022 C
HETATM    8  C6  UNL     1      21.262  11.287  21.059  1.00  0.00     0.034 C
HETATM    9  C7  UNL     1      21.746  11.402  22.477  1.00  0.00     0.085 C
HETATM   10  C8  UNL     1      23.223  11.712  22.564  1.00  0.00     0.158 C
HETATM   11  C9  UNL     1      21.252  10.329  23.407  1.00  0.00     0.180 C
HETATM   12  N3  UNL     1      20.127  11.224  23.592  1.00  0.00    -0.244 N
HETATM   13  C10 UNL     1      18.736  11.145  23.913  1.00  0.00     0.334 C
HETATM   14  O2  UNL     1      18.087  12.219  23.977  1.00  0.00    -0.246 OA
HETATM   15  N4  UNL     1      18.085   9.929  24.154  1.00  0.00    -0.341 N
ATOM     16  H4  UNL     1      18.637   9.073  24.102  1.00  0.00     0.164 HD
HETATM   17  N5  UNL     1      20.986  12.283  23.316  1.00  0.00    -0.121 NA
ENDROOT
BRANCH   1  18
HETATM   18  C2  UNL     1      26.590  12.027  18.890  1.00  0.00     0.120 C
HETATM   19  C1  UNL     1      27.916  11.402  19.318  1.00  0.00     0.026 C
ENDBRANCH   1  18
BRANCH  15  20
HETATM   20  C11 UNL     1      16.712   9.811  24.466  1.00  0.00     0.135 C
BRANCH  20  21
HETATM   21  C12 UNL     1      15.915   9.298  23.303  1.00  0.00     0.104 C
HETATM   22 BR1  UNL     1      14.967  10.801  22.528  1.00  0.00    -0.095 Br
ENDBRANCH  20  21
ENDBRANCH  15  20
TORSDOF 3
ENDMDL