MODEL 1
REMARK VINA RESULT: -7.601316034      0.000      0.000
REMARK  5 active torsions:
REMARK  status: ('A' for Active; 'I' for Inactive)
REMARK       I    between atoms: C1_2  and  N1_3
REMARK       I    between atoms: C1_2  and  N2_10
REMARK    1  A    between atoms: N1_3  and  C2_5
REMARK    2  A    between atoms: C2_5  and  C3_6
REMARK    3  A    between atoms: C9_13  and  C10_14
REMARK    4  A    between atoms: C10_14  and  O2_15
REMARK    5  A    between atoms: C10_14  and  N3_17
ROOT
HETATM    1  O1  UNL     1      18.675  12.170  24.664  1.00  0.00    -0.247 OA
HETATM    2  C1  UNL     1      18.758  11.143  23.947  1.00  0.00     0.318 C
HETATM    3  N1  UNL     1      17.909  10.043  23.932  1.00  0.00    -0.343 N
ATOM      4  H1  UNL     1      18.143   9.306  23.266  1.00  0.00     0.164 HD
HETATM    5  N2  UNL     1      19.893  11.147  23.038  1.00  0.00    -0.334 N
HETATM    6  C7  UNL     1      20.764  12.296  23.080  1.00  0.00     0.128 C
HETATM    7  C8  UNL     1      21.821  12.311  21.998  1.00  0.00     0.033 C
HETATM    8  C9  UNL     1      22.289  10.901  21.839  1.00  0.00     0.063 C
HETATM    9  C16 UNL     1      21.186  10.099  21.200  1.00  0.00     0.033 C
HETATM   10  C17 UNL     1      20.046  10.013  22.183  1.00  0.00     0.128 C
ENDROOT
BRANCH   8  11
HETATM   11  C10 UNL     1      23.626  10.696  21.315  1.00  0.00     0.120 C
BRANCH  11  12
HETATM   12  O2  UNL     1      24.326   9.698  21.780  1.00  0.00    -0.349 OA
ATOM     13  H2  UNL     1      25.274   9.776  21.785  1.00  0.00     0.219 HD
ENDBRANCH  11  12
BRANCH  11  14
HETATM   14  N3  UNL     1      24.326  11.434  20.341  1.00  0.00    -0.333 N
HETATM   15  C11 UNL     1      25.599  12.051  20.589  1.00  0.00     0.155 C
HETATM   16  C12 UNL     1      25.454  13.520  20.159  1.00  0.00     0.252 C
HETATM   17  N4  UNL     1      25.622  13.575  18.740  1.00  0.00    -0.073 N
HETATM   18  C13 UNL     1      24.369  13.725  18.029  1.00  0.00     0.237 C
ATOM     19  H42 UNL     1      26.279  14.310  18.479  1.00  0.00     0.277 HD
ATOM     20  H41 UNL     1      26.138  12.763  18.402  1.00  0.00     0.277 HD
HETATM   21  C14 UNL     1      23.259  12.926  18.680  1.00  0.00     0.086 C
HETATM   22  C15 UNL     1      23.670  11.536  19.020  1.00  0.00     0.274 C
HETATM   23  F1  UNL     1      24.600  11.110  18.071  1.00  0.00    -0.227 F
ENDBRANCH  11  14
ENDBRANCH   8  11
BRANCH   3  24
HETATM   24  C2  UNL     1      16.762   9.822  24.726  1.00  0.00     0.129 C
BRANCH  24  25
HETATM   25  C3  UNL     1      15.477   9.936  23.998  1.00  0.00     0.003 C
HETATM   26  C4  UNL     1      15.675   9.551  22.492  1.00  0.00     0.006 C
HETATM   27  C5  UNL     1      14.674  10.669  22.217  1.00  0.00     0.001 C
HETATM   28  C6  UNL     1      15.119  11.322  23.550  1.00  0.00     0.006 C
ENDBRANCH  24  25
ENDBRANCH   3  24
TORSDOF 5
ENDMDL