MODEL 5
REMARK VINA RESULT: -6.082128436      3.835      5.760
REMARK  3 active torsions:
REMARK  status: ('A' for Active; 'I' for Inactive)
REMARK       I    between atoms: C1_4  and  N2_5
REMARK       I    between atoms: C1_4  and  N3_11
REMARK    1  A    between atoms: C9_15  and  C10_16
REMARK       I    between atoms: C10_16  and  N4_18
REMARK    2  A    between atoms: N4_18  and  C11_20
REMARK    3  A    between atoms: C11_20  and  C12_21
ROOT
HETATM    1  N1  UNL     1      23.140  10.910  23.770  1.00  0.00    -0.235 N
ATOM      2  H11 UNL     1      23.347   9.955  23.478  1.00  0.00     0.174 HD
ATOM      3  H12 UNL     1      23.214  11.140  24.761  1.00  0.00     0.174 HD
HETATM    4  C1  UNL     1      22.804  11.785  22.902  1.00  0.00     0.672 C
HETATM    5  N2  UNL     1      22.518  13.103  23.305  1.00  0.00    -0.214 N
HETATM    6  C2  UNL     1      22.887  14.232  22.435  1.00  0.00     0.167 C
HETATM    7  C3  UNL     1      21.977  15.373  22.844  1.00  0.00     0.188 C
HETATM    8  O1  UNL     1      22.264  15.826  24.126  1.00  0.00    -0.388 OA
HETATM    9  C4  UNL     1      22.450  14.795  25.027  1.00  0.00     0.188 C
HETATM   10  C5  UNL     1      21.869  13.487  24.537  1.00  0.00     0.167 C
HETATM   11  N3  UNL     1      22.701  11.466  21.527  1.00  0.00    -0.205 N
HETATM   12  C6  UNL     1      21.422  11.047  20.929  1.00  0.00     0.142 C
HETATM   13  C7  UNL     1      21.812  10.148  19.782  1.00  0.00     0.023 C
HETATM   14  C8  UNL     1      23.327  10.092  19.801  1.00  0.00     0.037 C
HETATM   15  C9  UNL     1      23.643  11.451  20.445  1.00  0.00     0.194 C
ENDROOT
BRANCH  15  16
HETATM   16  C10 UNL     1      25.047  11.567  20.811  1.00  0.00     0.241 C
HETATM   17  O2  UNL     1      25.606  12.671  20.963  1.00  0.00    -0.271 OA
HETATM   18  N4  UNL     1      25.837  10.404  21.010  1.00  0.00    -0.359 N
ATOM     19  H4  UNL     1      25.379   9.501  20.883  1.00  0.00     0.162 HD
BRANCH  18  20
HETATM   20  C11 UNL     1      27.219  10.391  21.373  1.00  0.00     0.133 C
BRANCH  20  21
HETATM   21  C12 UNL     1      28.133   9.959  20.266  1.00  0.00     0.104 C
HETATM   22 BR1  UNL     1      28.826  11.583  19.424  1.00  0.00    -0.095 Br
ENDBRANCH  20  21
ENDBRANCH  18  20
ENDBRANCH  15  16
TORSDOF 3
ENDMDL