MODEL 3
REMARK VINA RESULT: -6.484217904      2.480      3.343
REMARK  3 active torsions:
REMARK  status: ('A' for Active; 'I' for Inactive)
REMARK    1  A    between atoms: C4_4  and  C5_5
REMARK    2  A    between atoms: C5_5  and  N1_6
REMARK    3  A    between atoms: C12_17  and  N3_18
REMARK       I    between atoms: N3_18  and  C13_20
ROOT
HETATM    1  C1  UNL     1      26.752  11.828  18.730  1.00  0.00     0.012 C
HETATM    2  C2  UNL     1      26.044  11.520  20.032  1.00  0.00     0.011 C
HETATM    3  C3  UNL     1      24.718  12.295  19.981  1.00  0.00     0.018 C
HETATM    4  C4  UNL     1      24.301  12.473  21.397  1.00  0.00     0.060 C
HETATM    5  C11 UNL     1      25.640  12.648  22.085  1.00  0.00     0.022 C
HETATM    6  N2  UNL     1      25.862  13.185  23.221  1.00  0.00    -0.328 N
ATOM      7  H2  UNL     1      26.822  13.234  23.560  1.00  0.00     0.173 HD
HETATM    8 BR1  UNL     1      24.494  13.887  24.288  1.00  0.00     0.047 Br
HETATM    9  C12 UNL     1      26.714  12.093  21.224  1.00  0.00     0.136 C
ENDROOT
BRANCH   4  10
HETATM   10  C5  UNL     1      23.533  11.377  22.023  1.00  0.00     0.247 C
BRANCH  10  11
HETATM   11  N1  UNL     1      22.165  11.577  22.330  1.00  0.00    -0.066 N
HETATM   12  C6  UNL     1      21.574  12.811  21.908  1.00  0.00     0.272 C
HETATM   13  C7  UNL     1      21.887  11.406  23.762  1.00  0.00     0.263 C
HETATM   14  C8  UNL     1      21.588   9.984  24.128  1.00  0.00     0.195 C
HETATM   15  O1  UNL     1      20.383   9.537  23.591  1.00  0.00    -0.388 OA
HETATM   16  C9  UNL     1      20.103  10.294  22.445  1.00  0.00     0.195 C
HETATM   17  C10 UNL     1      21.405  10.494  21.705  1.00  0.00     0.263 C
ENDBRANCH  10  11
ENDBRANCH   4  10
BRANCH   9  18
HETATM   18  N3  UNL     1      27.534  11.138  21.940  1.00  0.00    -0.335 N
HETATM   19  C13 UNL     1      28.681  11.482  22.675  1.00  0.00     0.329 C
HETATM   20  N4  UNL     1      29.419  10.485  23.340  1.00  0.00    -0.040 NA
HETATM   21  O2  UNL     1      29.049  12.669  22.742  1.00  0.00    -0.251 OA
ATOM     22  H3  UNL     1      27.263  10.155  21.908  1.00  0.00     0.164 HD
ENDBRANCH   9  18
TORSDOF 3
ENDMDL