MODEL 4
REMARK VINA RESULT: -6.638021038      5.759      8.035
REMARK  5 active torsions:
REMARK  status: ('A' for Active; 'I' for Inactive)
REMARK    1  A    between atoms: C1_2  and  C2_3
REMARK       I    between atoms: C1_2  and  N1_9
REMARK    2  A    between atoms: C2_3  and  O2_4
REMARK    3  A    between atoms: O2_4  and  C3_5
REMARK    4  A    between atoms: C3_5  and  C4_7
REMARK    5  A    between atoms: N1_9  and  C5_11
ROOT
HETATM    1  C5  UNL     1      21.103  10.215  24.714  1.00  0.00     0.130 A
HETATM    2  N2  UNL     1      22.108   9.370  24.997  1.00  0.00    -0.285 N
ATOM      3  H2  UNL     1      22.183   8.820  25.853  1.00  0.00     0.188 HD
HETATM    4  N3  UNL     1      23.004   9.352  23.988  1.00  0.00    -0.303 N
ATOM      5  H3  UNL     1      23.854   8.789  23.965  1.00  0.00     0.186 HD
HETATM    6  C6  UNL     1      22.602  10.188  23.018  1.00  0.00     0.036 A
HETATM    7  C7  UNL     1      21.430  10.727  23.454  1.00  0.00     0.011 A
HETATM    8  C8  UNL     1      20.585  11.704  22.780  1.00  0.00     0.044 C
HETATM    9  C9  UNL     1      21.327  12.800  22.061  1.00  0.00     0.005 C
HETATM   10  C10 UNL     1      21.911  12.175  20.806  1.00  0.00     0.001 C
HETATM   11  C11 UNL     1      23.297  11.720  21.161  1.00  0.00     0.006 C
HETATM   12  C12 UNL     1      23.366  10.381  21.796  1.00  0.00     0.059 C
ENDROOT
BRANCH   1  13
HETATM   13  N1  UNL     1      20.054  10.547  25.381  1.00  0.00    -0.310 N
HETATM   14  C1  UNL     1      19.972  11.330  26.520  1.00  0.00     0.247 C
HETATM   15  O1  UNL     1      21.047  11.654  27.139  1.00  0.00    -0.271 OA
ATOM     16  H1  UNL     1      19.169  10.188  25.025  1.00  0.00     0.170 HD
BRANCH  14  17
HETATM   17  C2  UNL     1      18.694  11.818  27.058  1.00  0.00     0.281 C
BRANCH  17  18
HETATM   18  O2  UNL     1      17.529  11.382  26.464  1.00  0.00    -0.311 OA
BRANCH  18  19
HETATM   19  C3  UNL     1      16.762  12.276  25.683  1.00  0.00     0.269 C
HETATM   20  O3  UNL     1      15.727  12.718  26.214  1.00  0.00    -0.264 OA
BRANCH  19  21
HETATM   21  C4  UNL     1      17.192  12.658  24.316  1.00  0.00     0.196 C
HETATM   22 BR1  UNL     1      18.133  14.329  24.253  1.00  0.00    -0.086 Br
ENDBRANCH  19  21
ENDBRANCH  18  19
ENDBRANCH  17  18
ENDBRANCH  14  17
ENDBRANCH   1  13
TORSDOF 5
ENDMDL