MODEL 5
REMARK VINA RESULT: -7.060450862      1.290      1.391
REMARK  3 active torsions:
REMARK  status: ('A' for Active; 'I' for Inactive)
REMARK       I    between atoms: C1_2  and  N1_3
REMARK       I    between atoms: C1_2  and  N3_18
REMARK    1  A    between atoms: N1_3  and  C2_5
REMARK    2  A    between atoms: C2_5  and  C3_6
REMARK    3  A    between atoms: C3_6  and  C4_7
ROOT
HETATM    1  C3  UNL     1      22.363  11.697  19.514  1.00  0.00     0.024 C
ENDROOT
BRANCH   1   2
HETATM    2  C2  UNL     1      23.658  11.937  18.801  1.00  0.00     0.125 C
BRANCH   2   3
HETATM    3  N1  UNL     1      24.806  11.401  19.471  1.00  0.00    -0.343 N
HETATM    4  C1  UNL     1      26.140  11.617  19.086  1.00  0.00     0.318 C
HETATM    5  O1  UNL     1      26.392  12.323  18.087  1.00  0.00    -0.247 OA
HETATM    6  N3  UNL     1      27.220  11.051  19.803  1.00  0.00    -0.330 N
HETATM    7  C11 UNL     1      27.016  10.213  20.982  1.00  0.00     0.153 C
HETATM    8  C14 UNL     1      28.609  11.264  19.418  1.00  0.00     0.153 C
HETATM    9  C12 UNL     1      28.354   9.587  21.304  1.00  0.00     0.187 C
HETATM   10  O2  UNL     1      29.316  10.543  21.612  1.00  0.00    -0.388 OA
HETATM   11  C13 UNL     1      29.432  11.532  20.665  1.00  0.00     0.187 C
ATOM     12  H1  UNL     1      24.641  10.818  20.291  1.00  0.00     0.164 HD
ENDBRANCH   2   3
ENDBRANCH   1   2
BRANCH   1  13
HETATM   13  C4  UNL     1      22.456  12.080  20.971  1.00  0.00    -0.011 C
HETATM   14  C5  UNL     1      22.571  13.577  21.156  1.00  0.00     0.021 C
HETATM   15  C6  UNL     1      22.330  13.716  22.644  1.00  0.00     0.070 C
HETATM   16 BR1  UNL     1      21.723  15.495  23.108  1.00  0.00    -0.090 Br
HETATM   17  C7  UNL     1      21.318  12.663  22.951  1.00  0.00     0.021 C
HETATM   18  C8  UNL     1      21.555  11.928  24.253  1.00  0.00     0.244 C
HETATM   19  C9  UNL     1      20.025  13.119  23.540  1.00  0.00     0.244 C
HETATM   20  C10 UNL     1      21.218  11.757  21.743  1.00  0.00     0.018 C
HETATM   21  N2  UNL     1      20.501  12.717  24.850  1.00  0.00    -0.073 N
ATOM     22  H22 UNL     1      19.855  12.280  25.508  1.00  0.00     0.277 HD
ATOM     23  H21 UNL     1      20.736  13.430  25.541  1.00  0.00     0.277 HD
ENDBRANCH   1  13
TORSDOF 3
ENDMDL