MODEL 4
REMARK VINA RESULT: -6.714684472      4.439      8.022
REMARK  3 active torsions:
REMARK  status: ('A' for Active; 'I' for Inactive)
REMARK       I    between atoms: N1_2  and  C2_4
REMARK    1  A    between atoms: C2_4  and  C3_6
REMARK       I    between atoms: N3_14  and  C9_15
REMARK    2  A    between atoms: C9_15  and  C10_17
REMARK    3  A    between atoms: C13_20  and  C14_21
REMARK       I    between atoms: C14_21  and  N4_23
ROOT
HETATM    1  C3  UNL     1      21.484  11.915  21.331  1.00  0.00     0.095 C
HETATM    2  C4  UNL     1      21.973  12.090  22.729  1.00  0.00     0.128 C
HETATM    3  N2  UNL     1      23.077  13.008  22.873  1.00  0.00    -0.413 N
ATOM      4  H2  UNL     1      23.134  13.672  23.645  1.00  0.00     0.153 HD
HETATM    5  C5  UNL     1      24.072  12.930  21.878  1.00  0.00     0.114 C
HETATM    6  C6  UNL     1      23.865  11.633  21.106  1.00  0.00     0.029 C
HETATM    7  C7  UNL     1      22.606  11.867  20.311  1.00  0.00     0.024 C
HETATM    8  C8  UNL     1      25.132  11.660  20.271  1.00  0.00     0.133 C
HETATM    9  N3  UNL     1      26.143  12.179  21.178  1.00  0.00    -0.336 N
HETATM   10  C9  UNL     1      27.554  12.076  21.004  1.00  0.00     0.224 C
HETATM   11  O2  UNL     1      28.345  12.561  21.877  1.00  0.00    -0.273 OA
HETATM   12  C13 UNL     1      25.497  12.820  22.306  1.00  0.00     0.202 C
ENDROOT
BRANCH  12  13
HETATM   13  C14 UNL     1      25.982  14.212  22.498  1.00  0.00     0.244 C
HETATM   14  O3  UNL     1      25.852  15.018  21.550  1.00  0.00    -0.271 OA
HETATM   15  N4  UNL     1      26.579  14.656  23.692  1.00  0.00    -0.350 N
HETATM   16  C15 UNL     1      27.050  16.002  23.935  1.00  0.00     0.126 C
HETATM   17  C18 UNL     1      26.869  13.919  24.903  1.00  0.00     0.126 C
HETATM   18  C16 UNL     1      28.428  15.740  24.508  1.00  0.00     0.021 C
HETATM   19  C17 UNL     1      28.189  14.524  25.344  1.00  0.00     0.021 C
ENDBRANCH  12  13
BRANCH  10  20
HETATM   20  C10 UNL     1      28.190  11.421  19.841  1.00  0.00     0.070 C
HETATM   21  C11 UNL     1      29.528  11.983  19.468  1.00  0.00     0.019 C
HETATM   22  C12 UNL     1      28.341   9.912  20.093  1.00  0.00     0.019 C
ENDBRANCH  10  20
BRANCH   1  23
HETATM   23  C2  UNL     1      20.763  10.620  21.247  1.00  0.00     0.223 C
HETATM   24  N1  UNL     1      20.826   9.782  20.106  1.00  0.00    -0.365 N
HETATM   25  C1  UNL     1      20.127   8.518  20.013  1.00  0.00     0.149 C
ATOM     26  H1  UNL     1      21.390  10.084  19.311  1.00  0.00     0.161 HD
HETATM   27  O1  UNL     1      20.043  10.199  22.215  1.00  0.00    -0.273 OA
ENDBRANCH   1  23
TORSDOF 3
ENDMDL