MODEL 2
REMARK VINA RESULT: -7.279065826      2.841      3.299
REMARK  4 active torsions:
REMARK  status: ('A' for Active; 'I' for Inactive)
REMARK    1  A    between atoms: C2_2  and  C3_3
REMARK    2  A    between atoms: C3_3  and  N1_4
REMARK       I    between atoms: N1_4  and  C4_6
REMARK       I    between atoms: C4_6  and  N2_8
REMARK    3  A    between atoms: N2_8  and  C5_10
REMARK       I    between atoms: N3_17  and  C12_18
REMARK    4  A    between atoms: C12_18  and  C13_20
REMARK       I    between atoms: C13_20  and  N4_22
ROOT
HETATM    1  C5  UNL     1      22.621  11.341  24.466  1.00  0.00     0.088 C
HETATM    2  C6  UNL     1      22.571   9.974  23.853  1.00  0.00     0.028 C
HETATM    3  C7  UNL     1      22.651  10.127  22.357  1.00  0.00     0.033 C
HETATM    4  C8  UNL     1      22.590  11.615  22.048  1.00  0.00     0.037 C
HETATM    5  C9  UNL     1      21.424  11.881  21.068  1.00  0.00     0.033 C
HETATM    6  C10 UNL     1      22.038  11.195  19.842  1.00  0.00     0.022 C
HETATM    7  C11 UNL     1      23.478  11.737  19.905  1.00  0.00     0.127 C
HETATM    8  N3  UNL     1      23.709  12.043  21.291  1.00  0.00    -0.335 N
HETATM    9  C12 UNL     1      24.907  12.664  21.738  1.00  0.00     0.312 C
HETATM   10  O2  UNL     1      25.114  12.935  22.964  1.00  0.00    -0.262 OA
HETATM   11  C18 UNL     1      22.323  12.308  23.344  1.00  0.00     0.056 C
ENDROOT
BRANCH   9  12
HETATM   12  C13 UNL     1      26.001  13.044  20.852  1.00  0.00     0.311 C
HETATM   13  O3  UNL     1      26.066  14.253  20.505  1.00  0.00    -0.262 OA
HETATM   14  N4  UNL     1      26.941  12.090  20.408  1.00  0.00    -0.344 N
HETATM   15  C14 UNL     1      27.036  10.691  20.699  1.00  0.00     0.126 C
HETATM   16  C17 UNL     1      28.041  12.432  19.505  1.00  0.00     0.126 C
HETATM   17  C15 UNL     1      28.292  10.176  20.020  1.00  0.00     0.021 C
HETATM   18  C16 UNL     1      29.113  11.459  19.919  1.00  0.00     0.021 C
ENDBRANCH   9  12
BRANCH   1  19
HETATM   19  N2  UNL     1      21.636  11.482  25.537  1.00  0.00    -0.338 N
HETATM   20  C4  UNL     1      21.983  12.260  26.668  1.00  0.00     0.316 C
HETATM   21  N1  UNL     1      21.038  12.407  27.715  1.00  0.00    -0.340 N
HETATM   22  O1  UNL     1      23.117  12.828  26.769  1.00  0.00    -0.247 OA
ATOM     23  H1  UNL     1      20.123  11.960  27.655  1.00  0.00     0.164 HD
ATOM     24  H2  UNL     1      20.723  11.034  25.470  1.00  0.00     0.164 HD
BRANCH  21  25
HETATM   25  C3  UNL     1      21.395  13.201  28.867  1.00  0.00     0.150 C
BRANCH  25  26
HETATM   26  C2  UNL     1      20.433  12.949  29.946  1.00  0.00    -0.018 C
HETATM   27  C1  UNL     1      19.282  12.354  29.689  1.00  0.00     0.008 C
ENDBRANCH  25  26
ENDBRANCH  21  25
ENDBRANCH   1  19
TORSDOF 4
ENDMDL