MODEL 2
REMARK VINA RESULT: -6.954083298      2.211      2.627
REMARK  5 active torsions:
REMARK  status: ('A' for Active; 'I' for Inactive)
REMARK    1  A    between atoms: N3_4  and  C2_6
REMARK    2  A    between atoms: C2_6  and  N4_8
REMARK    3  A    between atoms: N5_11  and  C5_12
REMARK    4  A    between atoms: N6_15  and  C8_16
REMARK    5  A    between atoms: C8_16  and  C9_17
ROOT
HETATM    1  N4  UNL     1      19.665  12.100  26.922  1.00  0.00    -0.349 N
HETATM    2  C3  UNL     1      20.951  12.028  26.292  1.00  0.00     0.170 C
HETATM    3  C4  UNL     1      20.916  11.021  25.168  1.00  0.00     0.083 C
HETATM    4  N5  UNL     1      19.841  11.195  24.275  1.00  0.00    -0.366 N
HETATM    5  C16 UNL     1      18.674  11.856  24.679  1.00  0.00     0.083 C
HETATM    6  C17 UNL     1      18.477  11.861  26.159  1.00  0.00     0.170 C
ENDROOT
BRANCH   4   7
HETATM    7  C5  UNL     1      20.238  11.394  22.914  1.00  0.00     0.094 C
HETATM    8  C6  UNL     1      20.988  12.644  22.670  1.00  0.00     0.070 C
HETATM    9  C7  UNL     1      21.561  12.801  21.323  1.00  0.00     0.065 C
HETATM   10  N6  UNL     1      21.614  11.725  20.448  1.00  0.00    -0.373 N
HETATM   11  C14 UNL     1      21.079  10.472  20.876  1.00  0.00     0.129 C
HETATM   12  C15 UNL     1      21.077  10.256  22.365  1.00  0.00     0.046 C
BRANCH  10  13
HETATM   13  C8  UNL     1      22.511  11.667  19.390  1.00  0.00     0.067 C
BRANCH  13  14
HETATM   14  C9  UNL     1      23.743  10.890  19.394  1.00  0.00     0.024 C
HETATM   15  C10 UNL     1      24.522  11.288  18.097  1.00  0.00     0.010 C
HETATM   16  C11 UNL     1      25.092  12.624  18.514  1.00  0.00     0.001 C
HETATM   17  C12 UNL     1      25.249  12.565  20.028  1.00  0.00     0.001 C
HETATM   18  C13 UNL     1      24.802  11.164  20.404  1.00  0.00     0.010 C
ENDBRANCH  13  14
ENDBRANCH  10  13
ENDBRANCH   4   7
BRANCH   1  19
HETATM   19  C2  UNL     1      19.620  12.376  28.323  1.00  0.00     0.176 C
HETATM   20  S1  UNL     1      20.964  12.503  29.217  1.00  0.00    -0.041 SA
BRANCH  19  21
HETATM   21  N3  UNL     1      18.353  12.564  28.997  1.00  0.00    -0.310 N
HETATM   22  C1  UNL     1      17.958  13.806  29.103  1.00  0.00     0.203 C
HETATM   23  N1  UNL     1      18.766  14.826  28.575  1.00  0.00    -0.066 NA
HETATM   24  N2  UNL     1      16.729  14.101  29.717  1.00  0.00    -0.066 NA
ATOM     25  H3  UNL     1      17.807  11.784  29.363  1.00  0.00     0.170 HD
ENDBRANCH  19  21
ENDBRANCH   1  19
TORSDOF 5
ENDMDL