MODEL 1
REMARK VINA RESULT: -7.383672915      0.000      0.000
REMARK  5 active torsions:
REMARK  status: ('A' for Active; 'I' for Inactive)
REMARK    1  A    between atoms: C2_2  and  C3_3
REMARK    2  A    between atoms: C3_3  and  O1_4
REMARK    3  A    between atoms: C3_3  and  N1_6
REMARK       I    between atoms: N2_10  and  C7_11
REMARK       I    between atoms: C7_11  and  N3_13
REMARK    4  A    between atoms: N3_13  and  C8_15
REMARK    5  A    between atoms: C8_15  and  C9_16
ROOT
HETATM    1  N1  UNL     1      22.214  11.830  22.518  1.00  0.00    -0.363 N
HETATM    2  C4  UNL     1      21.358  11.717  21.395  1.00  0.00     0.126 C
HETATM    3  C5  UNL     1      20.686  10.368  21.220  1.00  0.00     0.040 C
HETATM    4  C6  UNL     1      20.332   9.826  22.596  1.00  0.00     0.129 C
HETATM    5  N2  UNL     1      19.610  10.824  23.342  1.00  0.00    -0.333 N
HETATM    6  C7  UNL     1      18.217  10.650  23.460  1.00  0.00     0.319 C
HETATM    7  O2  UNL     1      17.672  11.547  24.157  1.00  0.00    -0.247 OA
HETATM    8  N3  UNL     1      17.494   9.603  22.876  1.00  0.00    -0.325 N
ATOM      9  H3  UNL     1      18.042   8.945  22.322  1.00  0.00     0.165 HD
HETATM   10  C15 UNL     1      20.204  12.005  23.967  1.00  0.00     0.147 C
HETATM   11  C16 UNL     1      21.701  11.910  23.920  1.00  0.00     0.144 C
ENDROOT
BRANCH   8  12
HETATM   12  C8  UNL     1      16.073   9.327  22.951  1.00  0.00     0.113 C
HETATM   13  C10 UNL     1      15.204  10.475  22.659  1.00  0.00     0.041 C
HETATM   14  C11 UNL     1      13.909  10.375  23.423  1.00  0.00     0.003 C
HETATM   15  C12 UNL     1      14.278  10.567  24.879  1.00  0.00     0.000 C
HETATM   16  C13 UNL     1      15.158   9.412  25.278  1.00  0.00     0.003 C
HETATM   17  C14 UNL     1      15.661   8.576  24.184  1.00  0.00     0.041 C
BRANCH  12  18
HETATM   18  C9  UNL     1      15.799   8.315  21.852  1.00  0.00     0.259 C
HETATM   19  N4  UNL     1      16.034   8.686  20.530  1.00  0.00    -0.060 NA
HETATM   20  O3  UNL     1      15.379   7.196  22.147  1.00  0.00    -0.274 OA
ENDBRANCH  12  18
ENDBRANCH   8  12
BRANCH   1  21
HETATM   21  C3  UNL     1      23.603  11.895  22.504  1.00  0.00     0.122 C
BRANCH  21  22
HETATM   22  C2  UNL     1      24.593  11.746  21.445  1.00  0.00     0.021 A
HETATM   23  C1  UNL     1      24.750  10.314  20.863  1.00  0.00     0.024 C
HETATM   24  C17 UNL     1      24.868  12.823  20.408  1.00  0.00     0.018 A
HETATM   25  C18 UNL     1      25.850  12.572  21.459  1.00  0.00     0.018 A
ENDBRANCH  21  22
BRANCH  21  26
HETATM   26  O1  UNL     1      24.143  12.144  23.682  1.00  0.00    -0.349 OA
ATOM     27  H1  UNL     1      23.788  11.600  24.374  1.00  0.00     0.219 HD
ENDBRANCH  21  26
ENDBRANCH   1  21
TORSDOF 5
ENDMDL