MODEL 2
REMARK VINA RESULT: -6.360829030      1.239      1.567
REMARK  6 active torsions:
REMARK  status: ('A' for Active; 'I' for Inactive)
REMARK       I    between atoms: N1_2  and  C3_4
REMARK    1  A    between atoms: C3_4  and  C4_6
REMARK    2  A    between atoms: N2_10  and  C8_11
REMARK    3  A    between atoms: C8_11  and  O2_12
REMARK    4  A    between atoms: C8_11  and  C9_14
REMARK    5  A    between atoms: C9_14  and  C10_15
REMARK       I    between atoms: C10_15  and  N3_17
REMARK    6  A    between atoms: N3_17  and  C11_19
ROOT
HETATM    1  C9  UNL     1      23.967  11.560  21.231  1.00  0.00     0.268 C
HETATM    2  C15 UNL     1      23.324  12.871  20.772  1.00  0.00     0.059 C
HETATM    3  C16 UNL     1      22.400  12.567  19.653  1.00  0.00     0.031 C
HETATM    4  C17 UNL     1      22.248  11.093  19.660  1.00  0.00     0.234 C
HETATM    5  N4  UNL     1      23.279  10.526  20.428  1.00  0.00    -0.050 N
ATOM      6  H41 UNL     1      22.938   9.761  21.010  1.00  0.00     0.279 HD
ATOM      7  H42 UNL     1      23.934  10.001  19.849  1.00  0.00     0.279 HD
ENDROOT
BRANCH   1   8
HETATM    8  C8  UNL     1      23.431  11.360  22.613  1.00  0.00     0.161 C
BRANCH   8   9
HETATM    9  N2  UNL     1      22.866  12.150  23.581  1.00  0.00    -0.345 N
HETATM   10  C4  UNL     1      21.448  12.241  24.125  1.00  0.00     0.113 C
HETATM   11  C5  UNL     1      20.414  11.972  23.058  1.00  0.00     0.049 C
HETATM   12  C6  UNL     1      21.704  13.656  24.428  1.00  0.00     0.060 C
HETATM   13  C7  UNL     1      23.161  13.108  24.598  1.00  0.00     0.129 C
BRANCH  10  14
HETATM   14  C3  UNL     1      21.217  11.374  25.276  1.00  0.00     0.247 C
HETATM   15  N1  UNL     1      20.528  11.695  26.467  1.00  0.00    -0.359 N
HETATM   16  C1  UNL     1      19.930  12.972  26.766  1.00  0.00     0.152 C
HETATM   17  C2  UNL     1      20.364  10.665  27.480  1.00  0.00     0.152 C
HETATM   18  O1  UNL     1      21.703  10.192  25.195  1.00  0.00    -0.271 OA
ENDBRANCH  10  14
ENDBRANCH   8   9
BRANCH   8  19
HETATM   19  O2  UNL     1      23.569  10.110  22.944  1.00  0.00    -0.347 OA
ATOM     20  H2  UNL     1      23.213   9.492  22.316  1.00  0.00     0.219 HD
ENDBRANCH   8  19
ENDBRANCH   1   8
BRANCH   1  21
HETATM   21  C10 UNL     1      25.394  11.631  21.045  1.00  0.00     0.263 C
HETATM   22  O3  UNL     1      25.963  12.680  20.617  1.00  0.00    -0.270 OA
HETATM   23  N3  UNL     1      26.289  10.564  21.323  1.00  0.00    -0.350 N
ATOM     24  H3  UNL     1      25.939   9.715  21.766  1.00  0.00     0.163 HD
BRANCH  23  25
HETATM   25  C11 UNL     1      27.709  10.667  20.981  1.00  0.00     0.022 C
HETATM   26  C12 UNL     1      28.415  11.790  21.658  1.00  0.00     0.037 C
HETATM   27  C13 UNL     1      27.857  10.774  19.486  1.00  0.00     0.037 C
HETATM   28  C14 UNL     1      28.399   9.368  21.423  1.00  0.00     0.037 C
ENDBRANCH  23  25
ENDBRANCH   1  21
TORSDOF 6
ENDMDL