MODEL 3
REMARK VINA RESULT: -7.827615173      0.855      1.117
REMARK  5 active torsions:
REMARK  status: ('A' for Active; 'I' for Inactive)
REMARK    1  A    between atoms: C3_3  and  N1_4
REMARK       I    between atoms: N1_4  and  C4_6
REMARK       I    between atoms: C4_6  and  N2_8
REMARK    2  A    between atoms: N2_8  and  C5_9
REMARK    3  A    between atoms: C11_15  and  C12_16
REMARK    4  A    between atoms: C12_16  and  O2_17
REMARK    5  A    between atoms: C12_16  and  N3_19
ROOT
HETATM    1  C1  UNL     1      21.473  11.998  27.048  1.00  0.00     0.014 C
HETATM    2  C2  UNL     1      20.839  11.602  26.093  1.00  0.00    -0.098 C
HETATM    3  C3  UNL     1      20.053  11.143  24.930  1.00  0.00     0.219 C
ENDROOT
BRANCH   3   4
HETATM    4  N1  UNL     1      20.836  11.354  23.775  1.00  0.00    -0.321 N
HETATM    5  C4  UNL     1      20.521  10.737  22.448  1.00  0.00     0.389 C
HETATM    6  O1  UNL     1      19.498  10.050  22.532  1.00  0.00    -0.231 OA
HETATM    7  N2  UNL     1      21.319  10.981  21.410  1.00  0.00    -0.391 NA
ATOM      8  H1  UNL     1      21.656  11.957  23.848  1.00  0.00     0.166 HD
BRANCH   7   9
HETATM    9  C5  UNL     1      22.168  11.240  20.308  1.00  0.00     0.169 C
HETATM   10  C6  UNL     1      22.306  12.745  20.099  1.00  0.00     0.044 C
HETATM   11  C7  UNL     1      23.564  13.085  19.411  1.00  0.00    -0.010 C
HETATM   12  C8  UNL     1      23.597  12.294  18.116  1.00  0.00     0.010 C
HETATM   13  C17 UNL     1      24.830  13.013  20.166  1.00  0.00     0.023 C
HETATM   14  C9  UNL     1      24.429  11.060  18.327  1.00  0.00    -0.008 C
HETATM   15  C10 UNL     1      25.870  11.628  18.390  1.00  0.00     0.023 C
HETATM   16  C18 UNL     1      24.604  10.652  19.728  1.00  0.00     0.009 C
HETATM   17  C11 UNL     1      25.642  11.728  19.868  1.00  0.00     0.029 C
HETATM   18  C19 UNL     1      23.533  10.723  20.701  1.00  0.00     0.045 C
BRANCH  17  19
HETATM   19  C12 UNL     1      26.745  11.562  20.792  1.00  0.00     0.122 C
BRANCH  19  20
HETATM   20  O2  UNL     1      26.487  12.045  21.992  1.00  0.00    -0.349 OA
ATOM     21  H2  UNL     1      26.826  12.923  22.118  1.00  0.00     0.219 HD
ENDBRANCH  19  20
BRANCH  19  22
HETATM   22  N3  UNL     1      27.999  11.006  20.674  1.00  0.00    -0.361 N
HETATM   23  C13 UNL     1      29.143  11.552  20.036  1.00  0.00     0.151 C
HETATM   24  C14 UNL     1      30.144  11.806  21.203  1.00  0.00     0.187 C
HETATM   25  O3  UNL     1      30.446  10.563  21.733  1.00  0.00    -0.388 OA
HETATM   26  C15 UNL     1      29.356   9.929  22.329  1.00  0.00     0.187 C
HETATM   27  C16 UNL     1      28.249   9.672  21.287  1.00  0.00     0.151 C
ENDBRANCH  19  22
ENDBRANCH  17  19
ENDBRANCH   7   9
ENDBRANCH   3   4
TORSDOF 5
ENDMDL