MODEL 2
REMARK VINA RESULT: -7.250470171      1.337      1.493
REMARK  4 active torsions:
REMARK  status: ('A' for Active; 'I' for Inactive)
REMARK       I    between atoms: C1_2  and  N1_3
REMARK    1  A    between atoms: C1_2  and  C10_20
REMARK    2  A    between atoms: N1_3  and  S1_5
REMARK    3  A    between atoms: S1_5  and  N2_8
REMARK    4  A    between atoms: C9_17  and  O4_18
ROOT
HETATM    1  S1  UNL     1      21.431  10.133  23.762  1.00  0.00     0.308 S
HETATM    2  O2  UNL     1      20.042   9.653  23.445  1.00  0.00    -0.188 OA
HETATM    3  O3  UNL     1      22.026   9.112  24.726  1.00  0.00    -0.188 OA
ENDROOT
BRANCH   1   4
HETATM    4  N1  UNL     1      22.414  10.200  22.383  1.00  0.00    -0.241 N
HETATM    5  C1  UNL     1      22.000  10.861  21.200  1.00  0.00     0.236 C
HETATM    6  O1  UNL     1      20.875  11.411  21.179  1.00  0.00    -0.272 OA
ATOM      7  H1  UNL     1      23.331   9.751  22.405  1.00  0.00     0.182 HD
BRANCH   5   8
HETATM    8  C10 UNL     1      22.843  10.931  19.986  1.00  0.00     0.079 C
HETATM    9  C11 UNL     1      22.812  12.341  19.461  1.00  0.00     0.014 C
HETATM   10  C12 UNL     1      23.494  12.376  18.144  1.00  0.00     0.001 C
HETATM   11  C13 UNL     1      24.555  11.393  17.880  1.00  0.00     0.000 C
HETATM   12  C14 UNL     1      25.095  10.632  19.029  1.00  0.00     0.001 C
HETATM   13  C15 UNL     1      24.270  10.590  20.252  1.00  0.00     0.014 C
ENDBRANCH   5   8
ENDBRANCH   1   4
BRANCH   1  14
HETATM   14  N2  UNL     1      21.354  11.621  24.615  1.00  0.00    -0.139 NA
HETATM   15  C2  UNL     1      20.237  12.433  24.251  1.00  0.00     0.142 C
HETATM   16  C3  UNL     1      20.179  13.390  25.436  1.00  0.00     0.258 C
HETATM   17  N3  UNL     1      20.801  12.667  26.535  1.00  0.00    -0.026 N
HETATM   18  C4  UNL     1      19.907  12.585  27.678  1.00  0.00     0.242 C
HETATM   19  C8  UNL     1      22.048  13.299  26.884  1.00  0.00     0.242 C
HETATM   20  C9  UNL     1      21.108  11.349  26.015  1.00  0.00     0.420 C
HETATM   21  C5  UNL     1      19.990  13.870  28.439  1.00  0.00     0.028 C
HETATM   22  C6  UNL     1      21.316  13.834  29.206  1.00  0.00     0.003 C
HETATM   23  C7  UNL     1      22.372  13.156  28.362  1.00  0.00     0.028 C
BRANCH  20  24
HETATM   24  O4  UNL     1      19.996  10.521  26.149  1.00  0.00    -0.357 OA
ATOM     25  H4  UNL     1      19.203  11.043  26.161  1.00  0.00     0.213 HD
ENDBRANCH  20  24
ENDBRANCH   1  14
TORSDOF 4
ENDMDL