MODEL 3
REMARK VINA RESULT: -7.472325688      6.815      8.592
REMARK  4 active torsions:
REMARK  status: ('A' for Active; 'I' for Inactive)
REMARK       I    between atoms: C1_2  and  N1_3
REMARK       I    between atoms: C1_2  and  N3_21
REMARK    1  A    between atoms: N1_3  and  C2_5
REMARK    2  A    between atoms: C2_5  and  C3_6
REMARK    3  A    between atoms: C3_6  and  N2_7
REMARK       I    between atoms: N2_7  and  C4_9
REMARK    4  A    between atoms: C4_9  and  C5_11
ROOT
HETATM    1  N2  UNL     1      21.637  10.703  22.947  1.00  0.00    -0.359 N
ATOM      2  H2  UNL     1      22.375  11.270  23.364  1.00  0.00     0.162 HD
HETATM    3  C4  UNL     1      21.471  10.792  21.558  1.00  0.00     0.226 C
HETATM    4  O2  UNL     1      20.593  10.125  20.979  1.00  0.00    -0.273 OA
ENDROOT
BRANCH   1   5
HETATM    5  C3  UNL     1      20.850   9.874  23.847  1.00  0.00     0.142 C
BRANCH   5   6
HETATM    6  C2  UNL     1      19.578  10.556  24.252  1.00  0.00     0.144 C
BRANCH   6   7
HETATM    7  N1  UNL     1      18.476   9.997  23.523  1.00  0.00    -0.341 N
HETATM    8  C1  UNL     1      17.188  10.520  23.593  1.00  0.00     0.332 C
HETATM    9  O1  UNL     1      16.884  11.510  24.278  1.00  0.00    -0.246 OA
HETATM   10  N3  UNL     1      16.143   9.894  22.839  1.00  0.00    -0.210 N
HETATM   11  C15 UNL     1      14.704   9.874  22.453  1.00  0.00     0.309 A
HETATM   12  S1  UNL     1      15.604   8.649  21.740  1.00  0.00     0.255 S
HETATM   13  O3  UNL     1      16.052   8.722  20.323  1.00  0.00    -0.204 OA
HETATM   14  O4  UNL     1      15.501   7.251  22.281  1.00  0.00    -0.204 OA
ATOM     15  H1  UNL     1      18.643   9.183  22.930  1.00  0.00     0.164 HD
ENDBRANCH   6   7
ENDBRANCH   5   6
ENDBRANCH   1   5
BRANCH   3  16
HETATM   16  C5  UNL     1      22.344  11.684  20.765  1.00  0.00     0.042 C
HETATM   17  C6  UNL     1      23.753  11.530  21.307  1.00  0.00     0.024 C
HETATM   18  C7  UNL     1      24.730  12.336  20.456  1.00  0.00    -0.013 C
HETATM   19  C8  UNL     1      24.321  13.785  20.588  1.00  0.00     0.009 C
HETATM   20  C12 UNL     1      24.610  11.825  19.048  1.00  0.00     0.009 C
HETATM   21  C9  UNL     1      22.913  13.956  20.101  1.00  0.00    -0.013 C
HETATM   22  C10 UNL     1      22.884  13.571  18.637  1.00  0.00     0.009 C
HETATM   23  C14 UNL     1      21.944  13.138  20.909  1.00  0.00     0.024 C
HETATM   24  C11 UNL     1      23.241  12.117  18.497  1.00  0.00    -0.013 C
HETATM   25  C13 UNL     1      22.242  11.303  19.315  1.00  0.00     0.024 C
ENDBRANCH   3  16
TORSDOF 4
ENDMDL