MODEL 3
REMARK VINA RESULT: -6.712446385      3.882      8.913
REMARK  4 active torsions:
REMARK  status: ('A' for Active; 'I' for Inactive)
REMARK       I    between atoms: C2_2  and  N1_4
REMARK    1  A    between atoms: N1_4  and  C3_6
REMARK       I    between atoms: N2_10  and  C7_11
REMARK       I    between atoms: C7_11  and  N3_13
REMARK    2  A    between atoms: N4_16  and  C10_17
REMARK    3  A    between atoms: C16_23  and  C17_24
REMARK    4  A    between atoms: C17_24  and  O3_25
ROOT
HETATM    1  C3  UNL     1      18.976  11.850  26.900  1.00  0.00     0.097 C
HETATM    2  C4  UNL     1      18.543  11.187  25.594  1.00  0.00     0.023 C
HETATM    3  C5  UNL     1      17.192  11.648  25.157  1.00  0.00     0.014 C
HETATM    4  C6  UNL     1      19.542  11.455  24.484  1.00  0.00     0.134 C
HETATM    5  N2  UNL     1      20.850  11.110  24.954  1.00  0.00    -0.333 N
HETATM    6  C7  UNL     1      22.079  11.293  24.278  1.00  0.00     0.320 C
HETATM    7  O2  UNL     1      23.153  10.882  24.880  1.00  0.00    -0.247 OA
HETATM    8  N3  UNL     1      22.294  11.871  23.021  1.00  0.00    -0.331 N
HETATM    9  C8  UNL     1      23.694  11.929  22.538  1.00  0.00     0.158 C
HETATM   10  C9  UNL     1      23.659  11.167  21.217  1.00  0.00     0.292 C
HETATM   11  N4  UNL     1      22.847  11.827  20.239  1.00  0.00     0.095 N
HETATM   12  C13 UNL     1      21.886  12.736  20.761  1.00  0.00     0.292 C
HETATM   13  C14 UNL     1      21.347  12.427  22.131  1.00  0.00     0.158 C
HETATM   14  C15 UNL     1      20.907  10.505  26.279  1.00  0.00     0.136 C
HETATM   15  C16 UNL     1      20.333  11.447  27.316  1.00  0.00     0.050 C
ENDROOT
BRANCH  15  16
HETATM   16  C17 UNL     1      21.329  12.500  27.608  1.00  0.00     0.172 C
BRANCH  16  17
HETATM   17  O3  UNL     1      22.651  12.090  27.701  1.00  0.00    -0.400 OA
ATOM     18  H3  UNL     1      23.211  12.297  26.961  1.00  0.00     0.209 HD
ENDBRANCH  16  17
ENDBRANCH  15  16
BRANCH   1  19
HETATM   19  N1  UNL     1      18.693  13.258  26.907  1.00  0.00    -0.356 N
HETATM   20  C2  UNL     1      17.866  13.955  27.790  1.00  0.00     0.213 C
HETATM   21  C1  UNL     1      17.647  15.412  27.703  1.00  0.00     0.117 C
HETATM   22  O1  UNL     1      17.266  13.363  28.709  1.00  0.00    -0.274 OA
ATOM     23  H1  UNL     1      19.150  13.813  26.183  1.00  0.00     0.162 HD
ENDBRANCH   1  19
BRANCH  11  24
HETATM   24  C10 UNL     1      23.613  12.459  19.190  1.00  0.00     0.215 C
HETATM   25  C11 UNL     1      24.015  11.523  18.095  1.00  0.00     0.042 C
HETATM   26  C12 UNL     1      22.688  13.506  18.557  1.00  0.00     0.042 C
ENDBRANCH  11  24
TORSDOF 4
ENDMDL