MODEL 1
REMARK VINA RESULT: -8.047637323      0.000      0.000
REMARK  5 active torsions:
REMARK  status: ('A' for Active; 'I' for Inactive)
REMARK       I    between atoms: C1_2  and  N1_3
REMARK    1  A    between atoms: C1_2  and  C9_16
REMARK    2  A    between atoms: N1_3  and  C2_5
REMARK    3  A    between atoms: C2_5  and  C3_6
REMARK    4  A    between atoms: C2_5  and  C8_13
REMARK    5  A    between atoms: C3_6  and  N2_7
ROOT
HETATM    1  O1  UNL     1      40.280  64.852  39.283  1.00  0.00    -0.268 OA
HETATM    2  C1  UNL     1      40.043  65.834  40.059  1.00  0.00     0.254 C
HETATM    3  N1  UNL     1      38.770  66.458  40.097  1.00  0.00    -0.345 N
ATOM      4  H1  UNL     1      38.600  67.243  40.726  1.00  0.00     0.163 HD
ENDROOT
BRANCH   3   5
HETATM    5  C2  UNL     1      37.729  65.978  39.247  1.00  0.00     0.177 C
BRANCH   5   6
HETATM    6  C3  UNL     1      37.355  66.854  38.112  1.00  0.00     0.303 C
BRANCH   6   7
HETATM    7  N2  UNL     1      38.448  67.319  37.311  1.00  0.00     0.094 N
HETATM    8  C4  UNL     1      38.981  66.310  36.421  1.00  0.00     0.298 C
HETATM    9  C5  UNL     1      40.187  66.908  35.725  1.00  0.00     0.198 C
HETATM   10  O2  UNL     1      39.949  68.208  35.288  1.00  0.00    -0.388 OA
HETATM   11  C6  UNL     1      38.595  68.355  35.085  1.00  0.00     0.198 C
HETATM   12  C7  UNL     1      37.912  68.373  36.435  1.00  0.00     0.298 C
ENDBRANCH   6   7
ENDBRANCH   5   6
BRANCH   5  13
HETATM   13  C8  UNL     1      36.478  65.828  40.131  1.00  0.00     0.377 C
HETATM   14  F1  UNL     1      36.943  65.886  41.443  1.00  0.00    -0.212 F
HETATM   15  F2  UNL     1      35.629  66.893  39.942  1.00  0.00    -0.212 F
ENDBRANCH   5  13
ENDBRANCH   3   5
BRANCH   2  16
HETATM   16  C9  UNL     1      41.140  66.280  40.903  1.00  0.00     0.057 A
HETATM   17  C10 UNL     1      41.444  65.695  42.112  1.00  0.00     0.044 A
HETATM   18  C11 UNL     1      42.507  66.149  42.895  1.00  0.00     0.058 A
HETATM   19 CL1  UNL     1      42.851  65.376  44.415  1.00  0.00    -0.082 Cl
HETATM   20  C12 UNL     1      43.254  67.197  42.445  1.00  0.00     0.079 A
HETATM   21 CL2  UNL     1      44.610  67.810  43.399  1.00  0.00    -0.081 Cl
HETATM   22  C13 UNL     1      42.972  67.807  41.235  1.00  0.00     0.080 A
HETATM   23 CL3  UNL     1      43.968  69.144  40.712  1.00  0.00    -0.081 Cl
HETATM   24  C14 UNL     1      41.917  67.341  40.474  1.00  0.00     0.073 A
HETATM   25 CL4  UNL     1      41.548  68.098  38.951  1.00  0.00    -0.081 Cl
ENDBRANCH   2  16
TORSDOF 5
ENDMDL