MODEL 1
REMARK VINA RESULT: -9.341196867      0.000      0.000
REMARK  7 active torsions:
REMARK  status: ('A' for Active; 'I' for Inactive)
REMARK    1  A    between atoms: C2_2  and  C3_3
REMARK    2  A    between atoms: C3_3  and  O1_4
REMARK    3  A    between atoms: O1_4  and  C4_5
REMARK    4  A    between atoms: C4_5  and  C5_7
REMARK    5  A    between atoms: N1_11  and  C9_12
REMARK    6  A    between atoms: C9_12  and  N2_14
REMARK    7  A    between atoms: N2_14  and  C10_16
ROOT
HETATM    1  C5  UNL     1      41.950  66.068  42.448  1.00  0.00     0.186 C
HETATM    2  C6  UNL     1      43.185  66.246  43.247  1.00  0.00     0.037 C
HETATM    3  C7  UNL     1      43.172  67.654  43.711  1.00  0.00     0.022 C
HETATM    4  C8  UNL     1      42.237  68.352  42.747  1.00  0.00     0.126 C
HETATM    5  N1  UNL     1      41.350  67.349  42.241  1.00  0.00    -0.344 N
ENDROOT
BRANCH   5   6
HETATM    6  C9  UNL     1      40.084  67.513  41.626  1.00  0.00     0.175 C
HETATM    7  S1  UNL     1      38.813  66.547  42.172  1.00  0.00    -0.041 SA
BRANCH   6   8
HETATM    8  N2  UNL     1      39.718  68.390  40.607  1.00  0.00    -0.328 N
ATOM      9  H2  UNL     1      39.627  69.369  40.880  1.00  0.00     0.168 HD
BRANCH   8  10
HETATM   10  C10 UNL     1      39.455  68.110  39.251  1.00  0.00     0.118 A
HETATM   11  C11 UNL     1      40.483  67.864  38.369  1.00  0.00     0.184 A
HETATM   12  F1  UNL     1      41.790  67.933  38.793  1.00  0.00    -0.200 F
HETATM   13  C12 UNL     1      40.267  67.540  37.048  1.00  0.00     0.160 A
HETATM   14  F2  UNL     1      41.316  67.302  36.203  1.00  0.00    -0.203 F
HETATM   15  C13 UNL     1      38.992  67.452  36.555  1.00  0.00     0.091 A
HETATM   16  C14 UNL     1      37.950  67.688  37.393  1.00  0.00     0.160 A
HETATM   17  F3  UNL     1      36.685  67.598  36.895  1.00  0.00    -0.203 F
HETATM   18  C15 UNL     1      38.162  68.012  38.715  1.00  0.00     0.184 A
HETATM   19  F4  UNL     1      37.147  68.252  39.574  1.00  0.00    -0.200 F
ENDBRANCH   8  10
ENDBRANCH   6   8
ENDBRANCH   5   6
BRANCH   1  20
HETATM   20  C4  UNL     1      42.332  65.404  41.173  1.00  0.00     0.282 C
HETATM   21  O2  UNL     1      43.420  65.642  40.630  1.00  0.00    -0.263 OA
BRANCH  20  22
HETATM   22  O1  UNL     1      41.456  64.528  40.620  1.00  0.00    -0.315 OA
BRANCH  22  23
HETATM   23  C3  UNL     1      40.720  64.528  39.476  1.00  0.00     0.218 C
BRANCH  23  24
HETATM   24  C2  UNL     1      40.116  63.268  39.038  1.00  0.00     0.008 C
HETATM   25  C1  UNL     1      39.819  62.134  39.917  1.00  0.00     0.051 C
HETATM   26  C16 UNL     1      39.824  63.108  37.726  1.00  0.00     0.271 C
HETATM   27  F5  UNL     1      39.286  61.958  37.268  1.00  0.00    -0.173 F
HETATM   28  F6  UNL     1      40.058  64.092  36.827  1.00  0.00    -0.173 F
ENDBRANCH  23  24
ENDBRANCH  22  23
ENDBRANCH  20  22
ENDBRANCH   1  20
TORSDOF 7
ENDMDL