MODEL 2
REMARK VINA RESULT: -9.086878487      0.343      1.205
REMARK  4 active torsions:
REMARK  status: ('A' for Active; 'I' for Inactive)
REMARK    1  A    between atoms: C2_3  and  C3_4
REMARK    2  A    between atoms: C2_3  and  N3_19
REMARK    3  A    between atoms: C3_4  and  N2_5
REMARK       I    between atoms: N2_5  and  C4_7
REMARK    4  A    between atoms: C4_7  and  C5_9
ROOT
HETATM    1  N1  UNL     1      40.053  63.166  37.372  1.00  0.00    -0.195 NA
HETATM    2  C1  UNL     1      39.334  64.031  37.078  1.00  0.00     0.086 C
HETATM    3  C2  UNL     1      38.397  65.121  36.714  1.00  0.00     0.205 C
ENDROOT
BRANCH   3   4
HETATM    4  C3  UNL     1      37.740  65.560  38.013  1.00  0.00     0.162 C
BRANCH   4   5
HETATM    5  N2  UNL     1      38.734  65.649  39.094  1.00  0.00    -0.354 N
HETATM    6  C4  UNL     1      39.156  66.892  39.555  1.00  0.00     0.256 C
HETATM    7  O1  UNL     1      38.624  67.906  38.959  1.00  0.00    -0.267 OA
ATOM      8  H2  UNL     1      39.115  64.797  39.506  1.00  0.00     0.162 HD
BRANCH   6   9
HETATM    9  C5  UNL     1      40.102  67.215  40.597  1.00  0.00     0.094 A
HETATM   10  C6  UNL     1      39.842  67.126  41.941  1.00  0.00     0.054 A
HETATM   11 CL1  UNL     1      38.246  66.704  42.577  1.00  0.00    -0.083 Cl
HETATM   12  C7  UNL     1      40.799  67.401  42.927  1.00  0.00     0.050 A
HETATM   13  C8  UNL     1      42.050  67.777  42.502  1.00  0.00     0.060 A
HETATM   14 CL2  UNL     1      43.290  68.132  43.690  1.00  0.00    -0.082 Cl
HETATM   15  C9  UNL     1      42.330  67.872  41.158  1.00  0.00     0.095 A
HETATM   16 CL3  UNL     1      43.947  68.358  40.613  1.00  0.00    -0.079 Cl
HETATM   17  C10 UNL     1      41.396  67.604  40.199  1.00  0.00     0.157 A
HETATM   18  F1  UNL     1      41.701  67.706  38.867  1.00  0.00    -0.203 F
ENDBRANCH   6   9
ENDBRANCH   4   5
ENDBRANCH   3   4
BRANCH   3  19
HETATM   19  N3  UNL     1      39.133  66.222  36.191  1.00  0.00    -0.395 N
HETATM   20  C11 UNL     1      38.390  67.132  35.388  1.00  0.00     0.124 C
HETATM   21  C12 UNL     1      39.096  67.625  34.165  1.00  0.00     0.098 C
HETATM   22  C13 UNL     1      40.530  68.006  34.395  1.00  0.00     0.246 C
HETATM   23  F2  UNL     1      41.275  67.621  33.281  1.00  0.00    -0.206 F
HETATM   24  F3  UNL     1      40.706  69.372  34.523  1.00  0.00    -0.206 F
HETATM   25  C14 UNL     1      41.146  67.310  35.586  1.00  0.00     0.098 C
HETATM   26  C15 UNL     1      40.432  65.952  35.682  1.00  0.00     0.124 C
ENDBRANCH   3  19
TORSDOF 4
ENDMDL