MODEL 3
REMARK VINA RESULT: -9.553895386      1.365      1.771
REMARK  4 active torsions:
REMARK  status: ('A' for Active; 'I' for Inactive)
REMARK       I    between atoms: C1_2  and  N1_3
REMARK       I    between atoms: C1_2  and  N2_13
REMARK    1  A    between atoms: N1_3  and  C2_5
REMARK    2  A    between atoms: C10_16  and  C11_17
REMARK    3  A    between atoms: C11_17  and  O2_18
REMARK    4  A    between atoms: O2_18  and  C12_19
ROOT
HETATM    1  O1  UNL     1      42.904  65.034  41.075  1.00  0.00    -0.247 OA
HETATM    2  C1  UNL     1      41.801  65.588  41.245  1.00  0.00     0.318 C
HETATM    3  N1  UNL     1      41.655  66.576  42.242  1.00  0.00    -0.338 N
ATOM      4  H1  UNL     1      40.742  67.015  42.363  1.00  0.00     0.164 HD
HETATM    5  N2  UNL     1      40.690  65.227  40.437  1.00  0.00    -0.334 N
HETATM    6  C8  UNL     1      40.663  64.235  39.371  1.00  0.00     0.128 C
HETATM    7  C9  UNL     1      39.396  63.474  39.692  1.00  0.00     0.028 C
HETATM    8  C10 UNL     1      38.458  64.590  40.103  1.00  0.00     0.030 C
HETATM    9  C17 UNL     1      39.337  65.758  40.490  1.00  0.00     0.134 C
ENDROOT
BRANCH   3  10
HETATM   10  C2  UNL     1      42.749  66.996  43.105  1.00  0.00     0.086 C
HETATM   11  C3  UNL     1      42.435  68.232  43.872  1.00  0.00     0.031 C
HETATM   12  C4  UNL     1      42.829  69.506  43.231  1.00  0.00     0.081 C
HETATM   13  C5  UNL     1      44.166  69.475  42.542  1.00  0.00     0.243 C
HETATM   14  F1  UNL     1      44.960  70.547  42.824  1.00  0.00    -0.206 F
HETATM   15  F2  UNL     1      43.938  69.469  41.175  1.00  0.00    -0.206 F
HETATM   16  C6  UNL     1      44.884  68.153  42.842  1.00  0.00     0.081 C
HETATM   17  C7  UNL     1      43.981  67.077  42.261  1.00  0.00     0.031 C
ENDBRANCH   3  10
BRANCH   8  18
HETATM   18  C11 UNL     1      37.514  64.974  38.966  1.00  0.00     0.183 C
BRANCH  18  19
HETATM   19  O2  UNL     1      37.711  66.324  38.601  1.00  0.00    -0.335 OA
BRANCH  19  20
HETATM   20  C12 UNL     1      38.062  66.687  37.299  1.00  0.00     0.146 A
HETATM   21  C13 UNL     1      39.051  67.624  37.081  1.00  0.00     0.101 A
HETATM   22  C14 UNL     1      39.390  67.976  35.805  1.00  0.00     0.162 A
HETATM   23  F3  UNL     1      40.375  68.909  35.606  1.00  0.00    -0.203 F
HETATM   24  C15 UNL     1      38.770  67.417  34.716  1.00  0.00     0.193 A
HETATM   25  F4  UNL     1      39.110  67.768  33.460  1.00  0.00    -0.199 F
HETATM   26  C16 UNL     1      37.783  66.480  34.968  1.00  0.00     0.147 A
HETATM   27 CL1  UNL     1      36.995  65.772  33.561  1.00  0.00    -0.061 Cl
HETATM   28  N3  UNL     1      37.460  66.144  36.224  1.00  0.00    -0.325 N
ATOM     29  H3  UNL     1      36.727  65.450  36.371  1.00  0.00     0.169 HD
ENDBRANCH  19  20
ENDBRANCH  18  19
ENDBRANCH   8  18
TORSDOF 4
ENDMDL