MODEL 2
REMARK VINA RESULT: -8.855160794      2.935      4.163
REMARK  5 active torsions:
REMARK  status: ('A' for Active; 'I' for Inactive)
REMARK    1  A    between atoms: C1_2  and  C2_3
REMARK       I    between atoms: C1_2  and  N1_16
REMARK    2  A    between atoms: C2_3  and  O2_4
REMARK    3  A    between atoms: O2_4  and  C3_5
REMARK    4  A    between atoms: N1_16  and  C9_18
REMARK    5  A    between atoms: C12_24  and  C13_25
ROOT
HETATM    1  O1  UNL     1      35.716  64.894  39.973  1.00  0.00    -0.266 OA
HETATM    2  C1  UNL     1      36.215  66.005  40.062  1.00  0.00     0.281 C
HETATM    3  N1  UNL     1      36.986  66.383  41.252  1.00  0.00    -0.154 N
ATOM      4  H1  UNL     1      36.553  66.783  42.084  1.00  0.00     0.187 HD
ENDROOT
BRANCH   2   5
HETATM    5  C2  UNL     1      36.124  67.049  39.062  1.00  0.00     0.217 C
BRANCH   5   6
HETATM    6  O2  UNL     1      36.478  66.892  37.771  1.00  0.00    -0.311 OA
BRANCH   6   7
HETATM    7  C3  UNL     1      37.665  66.851  37.101  1.00  0.00     0.157 A
HETATM    8  C4  UNL     1      38.314  65.602  36.947  1.00  0.00     0.194 A
HETATM    9  F1  UNL     1      37.657  64.529  37.519  1.00  0.00    -0.200 F
HETATM   10  C5  UNL     1      39.494  65.437  36.289  1.00  0.00     0.198 A
HETATM   11  F2  UNL     1      40.060  64.196  36.188  1.00  0.00    -0.199 F
HETATM   12  C6  UNL     1      40.116  66.524  35.737  1.00  0.00     0.182 A
HETATM   13  F3  UNL     1      41.278  66.466  35.062  1.00  0.00    -0.201 F
HETATM   14  C7  UNL     1      39.505  67.758  35.874  1.00  0.00     0.117 A
HETATM   15 CL1  UNL     1      40.280  69.150  35.182  1.00  0.00    -0.077 Cl
HETATM   16  C8  UNL     1      38.309  67.934  36.534  1.00  0.00     0.178 A
HETATM   17  F4  UNL     1      37.746  69.185  36.574  1.00  0.00    -0.201 F
ENDBRANCH   6   7
ENDBRANCH   5   6
ENDBRANCH   2   5
BRANCH   3  18
HETATM   18  C9  UNL     1      38.258  66.167  41.160  1.00  0.00     0.685 A
HETATM   19  N2  UNL     1      39.179  66.947  41.756  1.00  0.00    -0.200 N
HETATM   20  C10 UNL     1      40.508  66.672  41.654  1.00  0.00     0.132 A
ATOM     21  H2  UNL     1      38.875  67.759  42.294  1.00  0.00     0.183 HD
HETATM   22  C11 UNL     1      40.949  65.581  40.938  1.00  0.00     0.073 A
HETATM   23 CL2  UNL     1      42.671  65.245  40.832  1.00  0.00    -0.081 Cl
HETATM   24  C12 UNL     1      39.994  64.776  40.326  1.00  0.00     0.053 A
HETATM   25  N3  UNL     1      38.711  65.098  40.462  1.00  0.00    -0.193 N
ATOM     26  H3  UNL     1      38.021  64.498  40.010  1.00  0.00     0.184 HD
BRANCH  24  27
HETATM   27  C13 UNL     1      40.486  63.591  39.564  1.00  0.00     0.038 A
HETATM   28  C14 UNL     1      40.139  62.186  40.120  1.00  0.00     0.011 A
HETATM   29  C15 UNL     1      39.500  62.707  38.885  1.00  0.00     0.011 A
ENDBRANCH  24  27
ENDBRANCH   3  18
TORSDOF 5
ENDMDL