MODEL 5
REMARK VINA RESULT: -8.451768290      2.663      4.211
REMARK  7 active torsions:
REMARK  status: ('A' for Active; 'I' for Inactive)
REMARK    1  A    between atoms: C2_2  and  O1_5
REMARK    2  A    between atoms: O1_5  and  C5_6
REMARK       I    between atoms: C5_6  and  N1_8
REMARK    3  A    between atoms: N1_8  and  C6_10
REMARK    4  A    between atoms: N2_14  and  C9_15
REMARK    5  A    between atoms: C9_15  and  C10_16
REMARK    6  A    between atoms: C10_16  and  C11_17
REMARK    7  A    between atoms: C12_18  and  C13_19
ROOT
HETATM    1  C6  UNL     1      40.408  67.527  38.788  1.00  0.00     0.113 C
HETATM    2  C7  UNL     1      40.137  68.309  37.508  1.00  0.00     0.129 C
HETATM    3  C8  UNL     1      40.031  67.288  36.444  1.00  0.00     0.221 C
HETATM    4  O3  UNL     1      39.785  67.556  35.241  1.00  0.00    -0.273 OA
HETATM    5  N2  UNL     1      40.256  66.024  37.065  1.00  0.00    -0.350 N
HETATM    6  C18 UNL     1      41.045  66.250  38.289  1.00  0.00     0.151 C
ENDROOT
BRANCH   5   7
HETATM    7  C9  UNL     1      39.768  64.771  36.536  1.00  0.00     0.130 C
BRANCH   7   8
HETATM    8  C10 UNL     1      38.363  64.473  37.025  1.00  0.00     0.062 C
BRANCH   8   9
HETATM    9  C11 UNL     1      38.140  64.837  38.428  1.00  0.00    -0.003 A
HETATM   10  C12 UNL     1      38.600  64.102  39.500  1.00  0.00     0.018 A
HETATM   11  C14 UNL     1      38.345  64.473  40.826  1.00  0.00     0.058 A
HETATM   12  C15 UNL     1      37.615  65.606  41.063  1.00  0.00     0.158 A
HETATM   13  F3  UNL     1      37.361  65.977  42.341  1.00  0.00    -0.203 F
HETATM   14  C16 UNL     1      37.136  66.372  40.016  1.00  0.00     0.193 A
HETATM   15  F4  UNL     1      36.422  67.480  40.313  1.00  0.00    -0.200 F
HETATM   16  C17 UNL     1      37.400  65.985  38.737  1.00  0.00     0.165 A
HETATM   17  F5  UNL     1      36.933  66.731  37.714  1.00  0.00    -0.202 F
BRANCH  10  18
HETATM   18  C13 UNL     1      39.406  62.897  39.304  1.00  0.00     0.387 C
HETATM   19  F1  UNL     1      39.221  61.971  40.330  1.00  0.00    -0.209 F
HETATM   20  F2  UNL     1      40.747  63.280  39.402  1.00  0.00    -0.209 F
ENDBRANCH  10  18
ENDBRANCH   8   9
ENDBRANCH   7   8
ENDBRANCH   5   7
BRANCH   1  21
HETATM   21  N1  UNL     1      41.247  68.309  39.627  1.00  0.00    -0.330 N
HETATM   22  C5  UNL     1      41.401  68.121  41.027  1.00  0.00     0.361 C
HETATM   23  O2  UNL     1      40.739  67.188  41.551  1.00  0.00    -0.238 OA
ATOM     24  H1  UNL     1      41.780  69.062  39.192  1.00  0.00     0.165 HD
BRANCH  22  25
HETATM   25  O1  UNL     1      42.213  68.881  41.823  1.00  0.00    -0.294 OA
BRANCH  25  26
HETATM   26  C2  UNL     1      43.524  68.526  42.212  1.00  0.00     0.061 C
HETATM   27  C1  UNL     1      44.273  69.811  42.517  1.00  0.00     0.046 C
HETATM   28  C3  UNL     1      43.567  67.602  43.385  1.00  0.00     0.046 C
HETATM   29  C4  UNL     1      44.277  67.851  41.059  1.00  0.00     0.046 C
ENDBRANCH  25  26
ENDBRANCH  22  25
ENDBRANCH   1  21
TORSDOF 7
ENDMDL