MODEL 4
REMARK VINA RESULT: -10.288558463      1.008      1.157
REMARK  5 active torsions:
REMARK  status: ('A' for Active; 'I' for Inactive)
REMARK    1  A    between atoms: O1_1  and  C1_3
REMARK    2  A    between atoms: N1_13  and  C9_14
REMARK    3  A    between atoms: C9_14  and  C10_15
REMARK    4  A    between atoms: C10_15  and  N2_16
REMARK    5  A    between atoms: C13_19  and  C14_21
ROOT
HETATM    1  C10 UNL     1      37.517  65.800  39.411  1.00  0.00     0.302 C
ENDROOT
BRANCH   1   2
HETATM    2  C9  UNL     1      38.125  66.655  38.355  1.00  0.00     0.303 C
BRANCH   2   3
HETATM    3  N1  UNL     1      38.270  66.114  37.061  1.00  0.00     0.099 N
HETATM    4  C3  UNL     1      37.930  64.788  36.765  1.00  0.00     0.226 C
HETATM    5  C2  UNL     1      37.545  64.778  35.260  1.00  0.00     0.073 C
HETATM    6  C4  UNL     1      39.189  63.961  36.836  1.00  0.00     0.038 C
HETATM    7  C1  UNL     1      37.212  66.164  34.793  1.00  0.00     0.192 C
HETATM    8  C8  UNL     1      38.366  67.034  34.456  1.00  0.00     0.271 C
HETATM    9  C7  UNL     1      39.660  66.744  35.133  1.00  0.00     0.117 C
HETATM   10  F1  UNL     1      38.636  66.965  33.073  1.00  0.00    -0.203 F
HETATM   11  F2  UNL     1      38.028  68.392  34.639  1.00  0.00    -0.203 F
HETATM   12  C6  UNL     1      39.610  66.285  36.539  1.00  0.00     0.229 C
HETATM   13  C5  UNL     1      40.272  64.956  36.666  1.00  0.00     0.038 C
BRANCH   7  14
HETATM   14  O1  UNL     1      36.274  66.796  35.644  1.00  0.00    -0.389 OA
ATOM     15  H1  UNL     1      35.408  66.411  35.566  1.00  0.00     0.210 HD
ENDBRANCH   7  14
ENDBRANCH   2   3
ENDBRANCH   1   2
BRANCH   1  16
HETATM   16  N2  UNL     1      38.591  65.357  40.315  1.00  0.00     0.093 N
HETATM   17  C11 UNL     1      38.095  65.402  41.687  1.00  0.00     0.276 C
HETATM   18  C12 UNL     1      38.537  66.668  42.308  1.00  0.00     0.080 C
HETATM   19  C13 UNL     1      39.655  67.188  41.425  1.00  0.00     0.158 C
HETATM   20  F3  UNL     1      39.325  68.417  40.877  1.00  0.00    -0.236 F
HETATM   21  C20 UNL     1      39.746  66.205  40.304  1.00  0.00     0.321 C
BRANCH  19  22
HETATM   22  C14 UNL     1      40.887  67.363  42.217  1.00  0.00    -0.011 A
HETATM   23  C15 UNL     1      41.409  68.594  42.525  1.00  0.00     0.053 A
HETATM   24  C16 UNL     1      42.579  68.759  43.249  1.00  0.00     0.119 A
HETATM   25  F4  UNL     1      43.060  69.997  43.525  1.00  0.00    -0.206 F
HETATM   26  C17 UNL     1      43.280  67.645  43.697  1.00  0.00     0.084 A
HETATM   27  C18 UNL     1      42.769  66.410  43.396  1.00  0.00     0.119 A
HETATM   28  F5  UNL     1      43.458  65.311  43.840  1.00  0.00    -0.206 F
HETATM   29  C19 UNL     1      41.592  66.246  42.669  1.00  0.00     0.053 A
ENDBRANCH  19  22
ENDBRANCH   1  16
TORSDOF 5
ENDMDL