MODEL 1
REMARK VINA RESULT: -9.510807535      0.000      0.000
REMARK  6 active torsions:
REMARK  status: ('A' for Active; 'I' for Inactive)
REMARK    1  A    between atoms: C2_2  and  O1_3
REMARK    2  A    between atoms: O1_3  and  C3_4
REMARK       I    between atoms: C3_4  and  N1_6
REMARK    3  A    between atoms: N1_6  and  C4_8
REMARK    4  A    between atoms: C4_8  and  C5_9
REMARK    5  A    between atoms: C4_8  and  C12_22
REMARK       I    between atoms: C5_9  and  N2_11
REMARK    6  A    between atoms: C10_17  and  C11_18
ROOT
HETATM    1  C4  UNL     1      40.055  66.116  40.219  1.00  0.00     0.183 C
ENDROOT
BRANCH   1   2
HETATM    2  N1  UNL     1      38.791  66.731  39.771  1.00  0.00    -0.323 N
HETATM    3  C3  UNL     1      37.788  66.999  40.725  1.00  0.00     0.361 C
HETATM    4  O2  UNL     1      37.963  66.721  41.945  1.00  0.00    -0.238 OA
ATOM      5  H1  UNL     1      38.644  66.957  38.788  1.00  0.00     0.165 HD
BRANCH   3   6
HETATM    6  O1  UNL     1      36.569  67.575  40.399  1.00  0.00    -0.304 OA
BRANCH   6   7
HETATM    7  C2  UNL     1      35.590  66.843  39.690  1.00  0.00     0.176 C
HETATM    8  C1  UNL     1      35.526  65.451  40.295  1.00  0.00     0.034 C
ENDBRANCH   6   7
ENDBRANCH   3   6
ENDBRANCH   1   2
BRANCH   1   9
HETATM    9  C5  UNL     1      40.984  67.192  40.647  1.00  0.00     0.243 C
HETATM   10  O3  UNL     1      40.729  68.398  40.264  1.00  0.00    -0.271 OA
HETATM   11  N2  UNL     1      42.137  67.028  41.450  1.00  0.00    -0.334 N
HETATM   12  C6  UNL     1      42.577  65.799  42.016  1.00  0.00     0.164 C
HETATM   13  C10 UNL     1      42.950  68.219  41.713  1.00  0.00     0.195 C
HETATM   14  C7  UNL     1      43.088  65.865  43.425  1.00  0.00     0.188 C
HETATM   15  F1  UNL     1      42.134  65.383  44.333  1.00  0.00    -0.248 F
HETATM   16  C8  UNL     1      43.608  67.169  43.884  1.00  0.00     0.041 C
HETATM   17  C9  UNL     1      43.028  68.365  43.200  1.00  0.00     0.037 C
BRANCH  13  18
HETATM   18  C11 UNL     1      44.273  68.172  41.024  1.00  0.00     0.407 C
HETATM   19  F2  UNL     1      44.667  69.494  40.820  1.00  0.00    -0.169 F
HETATM   20  F3  UNL     1      45.270  67.563  41.720  1.00  0.00    -0.169 F
HETATM   21  F4  UNL     1      44.096  67.635  39.763  1.00  0.00    -0.169 F
ENDBRANCH  13  18
ENDBRANCH   1   9
BRANCH   1  22
HETATM   22  C12 UNL     1      40.660  65.412  39.022  1.00  0.00     0.018 C
HETATM   23  C13 UNL     1      40.582  63.925  39.086  1.00  0.00     0.013 C
HETATM   24  C14 UNL     1      39.151  63.536  38.687  1.00  0.00     0.079 C
HETATM   25  C15 UNL     1      39.127  63.622  37.169  1.00  0.00     0.243 C
HETATM   26  F5  UNL     1      39.718  62.444  36.716  1.00  0.00    -0.206 F
HETATM   27  F6  UNL     1      37.845  63.627  36.675  1.00  0.00    -0.206 F
HETATM   28  C16 UNL     1      39.945  64.802  36.706  1.00  0.00     0.079 C
HETATM   29  C17 UNL     1      39.923  65.873  37.767  1.00  0.00     0.013 C
ENDBRANCH   1  22
TORSDOF 6
ENDMDL