MODEL 5
REMARK VINA RESULT: -9.435793845      2.656      8.362
REMARK  4 active torsions:
REMARK  status: ('A' for Active; 'I' for Inactive)
REMARK       I    between atoms: C1_2  and  N1_3
REMARK    1  A    between atoms: C1_2  and  C8_16
REMARK    2  A    between atoms: N1_3  and  C2_5
REMARK    3  A    between atoms: C11_19  and  N2_20
REMARK    4  A    between atoms: C15_25  and  C16_26
ROOT
HETATM    1  O1  UNL     1      37.522  66.419  38.935  1.00  0.00    -0.273 OA
HETATM    2  C1  UNL     1      38.744  66.153  38.927  1.00  0.00     0.226 C
HETATM    3  N1  UNL     1      39.371  65.911  37.659  1.00  0.00    -0.322 N
ATOM      4  H1  UNL     1      40.367  65.692  37.631  1.00  0.00     0.169 HD
ENDROOT
BRANCH   2   5
HETATM    5  C8  UNL     1      39.514  66.093  40.191  1.00  0.00     0.078 C
HETATM    6  C9  UNL     1      40.869  65.540  39.915  1.00  0.00     0.016 C
HETATM    7  C10 UNL     1      41.761  65.445  41.109  1.00  0.00     0.026 C
HETATM    8  C11 UNL     1      41.605  66.509  42.138  1.00  0.00     0.084 C
HETATM    9  C17 UNL     1      40.329  67.271  42.142  1.00  0.00     0.026 C
HETATM   10  C18 UNL     1      39.645  67.450  40.840  1.00  0.00     0.016 C
BRANCH   8  11
HETATM   11  N2  UNL     1      42.703  67.404  42.257  1.00  0.00    -0.378 N
HETATM   12  C12 UNL     1      43.019  67.941  43.516  1.00  0.00     0.085 C
HETATM   13  C13 UNL     1      42.983  69.460  43.542  1.00  0.00     0.212 C
HETATM   14  O2  UNL     1      43.590  70.048  42.465  1.00  0.00    -0.384 OA
HETATM   15  C14 UNL     1      44.100  69.189  41.531  1.00  0.00     0.195 C
HETATM   16  C15 UNL     1      43.103  68.118  41.104  1.00  0.00     0.136 C
BRANCH  16  17
HETATM   17  C16 UNL     1      43.809  67.271  40.069  1.00  0.00     0.249 C
HETATM   18  F6  UNL     1      44.872  66.656  40.700  1.00  0.00    -0.253 F
ENDBRANCH  16  17
ENDBRANCH   8  11
ENDBRANCH   2   5
BRANCH   3  19
HETATM   19  C2  UNL     1      38.648  65.968  36.456  1.00  0.00     0.119 A
HETATM   20  C3  UNL     1      38.646  67.132  35.722  1.00  0.00     0.188 A
HETATM   21  F1  UNL     1      39.326  68.228  36.135  1.00  0.00    -0.200 F
HETATM   22  C4  UNL     1      37.931  67.206  34.519  1.00  0.00     0.199 A
HETATM   23  F2  UNL     1      37.938  68.367  33.803  1.00  0.00    -0.199 F
HETATM   24  C5  UNL     1      37.234  66.120  34.075  1.00  0.00     0.199 A
HETATM   25  F3  UNL     1      36.538  66.175  32.913  1.00  0.00    -0.199 F
HETATM   26  C6  UNL     1      37.223  64.943  34.797  1.00  0.00     0.199 A
HETATM   27  F4  UNL     1      36.531  63.863  34.357  1.00  0.00    -0.199 F
HETATM   28  C7  UNL     1      37.941  64.883  35.995  1.00  0.00     0.188 A
HETATM   29  F5  UNL     1      37.919  63.720  36.693  1.00  0.00    -0.200 F
ENDBRANCH   3  19
TORSDOF 4
ENDMDL