MODEL 4
REMARK VINA RESULT: -8.383015742      2.771      3.408
REMARK  4 active torsions:
REMARK  status: ('A' for Active; 'I' for Inactive)
REMARK    1  A    between atoms: C1_2  and  C2_3
REMARK       I    between atoms: C1_2  and  N2_14
REMARK    2  A    between atoms: C2_3  and  O2_4
REMARK    3  A    between atoms: O2_4  and  C3_5
REMARK    4  A    between atoms: N2_14  and  C8_16
ROOT
HETATM    1  O1  UNL     1      38.947  66.808  41.756  1.00  0.00    -0.271 OA
HETATM    2  C1  UNL     1      39.231  66.267  40.657  1.00  0.00     0.246 C
HETATM    3  N2  UNL     1      40.530  66.070  40.228  1.00  0.00    -0.323 N
ATOM      4  H2  UNL     1      40.631  65.629  39.314  1.00  0.00     0.169 HD
ENDROOT
BRANCH   2   5
HETATM    5  C2  UNL     1      38.065  65.854  39.847  1.00  0.00     0.280 C
BRANCH   5   6
HETATM    6  O2  UNL     1      38.376  64.941  38.839  1.00  0.00    -0.326 OA
BRANCH   6   7
HETATM    7  C3  UNL     1      38.172  65.297  37.499  1.00  0.00     0.143 A
HETATM    8  C4  UNL     1      38.506  66.575  37.054  1.00  0.00     0.081 A
HETATM    9  C5  UNL     1      38.305  66.927  35.744  1.00  0.00     0.056 A
HETATM   10 CL1  UNL     1      38.726  68.536  35.186  1.00  0.00    -0.083 Cl
HETATM   11  C6  UNL     1      37.775  66.017  34.876  1.00  0.00     0.048 A
HETATM   12 BR1  UNL     1      37.500  66.511  33.065  1.00  0.00    -0.048 Br
HETATM   13  C7  UNL     1      37.442  64.743  35.317  1.00  0.00     0.111 A
HETATM   14  N1  UNL     1      37.656  64.449  36.600  1.00  0.00    -0.345 N
ATOM     15  H1  UNL     1      37.410  63.512  36.919  1.00  0.00     0.167 HD
ENDBRANCH   6   7
ENDBRANCH   5   6
ENDBRANCH   2   5
BRANCH   3  16
HETATM   16  C8  UNL     1      41.749  66.399  40.892  1.00  0.00     0.080 A
HETATM   17  C9  UNL     1      42.342  65.628  41.855  1.00  0.00     0.078 A
HETATM   18  C10 UNL     1      43.548  66.011  42.471  1.00  0.00     0.160 A
HETATM   19  F1  UNL     1      44.113  65.232  43.420  1.00  0.00    -0.203 F
HETATM   20  C11 UNL     1      44.187  67.178  42.135  1.00  0.00     0.196 A
HETATM   21  F2  UNL     1      45.346  67.545  42.730  1.00  0.00    -0.199 F
HETATM   22  C12 UNL     1      43.594  67.956  41.167  1.00  0.00     0.198 A
HETATM   23  F3  UNL     1      44.235  69.111  40.840  1.00  0.00    -0.199 F
HETATM   24  C13 UNL     1      42.415  67.590  40.559  1.00  0.00     0.184 A
HETATM   25  F4  UNL     1      41.857  68.381  39.605  1.00  0.00    -0.200 F
ENDBRANCH   3  16
TORSDOF 4
ENDMDL