MODEL 4
REMARK VINA RESULT: -5.327321115      1.404      1.443
REMARK  3 active torsions:
REMARK  status: ('A' for Active; 'I' for Inactive)
REMARK    1  A    between atoms: N2_6  and  C4_8
REMARK    2  A    between atoms: C4_8  and  C5_9
REMARK    3  A    between atoms: C5_9  and  N3_10
ROOT
HETATM    1  C1  UNL     1      32.406 -15.655  36.572  1.00  0.00     0.044 C
HETATM    2  C2  UNL     1      31.128 -15.871  36.650  1.00  0.00     0.053 A
HETATM    3  N1  UNL     1      30.419 -15.417  37.843  1.00  0.00    -0.192 N
ATOM      4  H1  UNL     1      30.935 -14.943  38.584  1.00  0.00     0.184 HD
HETATM    5  C3  UNL     1      29.036 -15.622  37.985  1.00  0.00     0.679 A
HETATM    6  N2  UNL     1      28.390 -15.226  39.036  1.00  0.00    -0.224 N
ATOM      7  H2  UNL     1      28.908 -14.753  39.776  1.00  0.00     0.177 HD
HETATM    8  N4  UNL     1      28.306 -16.266  36.986  1.00  0.00    -0.191 N
ATOM      9  H4  UNL     1      27.303 -16.404  37.110  1.00  0.00     0.184 HD
HETATM   10  C6  UNL     1      28.933 -16.732  35.801  1.00  0.00     0.064 A
HETATM   11  C7  UNL     1      28.121 -17.359  34.870  1.00  0.00     0.050 A
HETATM   12  C8  UNL     1      28.687 -17.824  33.711  1.00  0.00     0.014 A
HETATM   13 BR1  UNL     1      27.598 -18.697  32.398  1.00  0.00    -0.051 Br
HETATM   14  C9  UNL     1      30.028 -17.648  33.529  1.00  0.00     0.039 A
HETATM   15  C10 UNL     1      30.844 -17.010  34.482  1.00  0.00     0.027 A
HETATM   16 BR2  UNL     1      32.695 -16.847  34.069  1.00  0.00    -0.050 Br
HETATM   17  C11 UNL     1      30.297 -16.538  35.645  1.00  0.00     0.035 A
ENDROOT
BRANCH   6  18
HETATM   18  C4  UNL     1      26.978 -15.422  39.207  1.00  0.00     0.165 C
BRANCH  18  19
HETATM   19  C5  UNL     1      26.619 -15.160  40.663  1.00  0.00     0.249 C
BRANCH  19  20
HETATM   20  N3  UNL     1      27.805 -15.103  41.494  1.00  0.00    -0.078 N
ATOM     21  H33 UNL     1      27.990 -14.155  41.820  1.00  0.00     0.274 HD
ATOM     22  H32 UNL     1      27.652 -15.551  42.397  1.00  0.00     0.274 HD
ATOM     23  H31 UNL     1      28.613 -15.498  41.011  1.00  0.00     0.274 HD
ENDBRANCH  19  20
ENDBRANCH  18  19
ENDBRANCH   6  18
TORSDOF 3
ENDMDL