MODEL 2
REMARK VINA RESULT: -5.318173033      0.844      1.168
REMARK  2 active torsions:
REMARK  status: ('A' for Active; 'I' for Inactive)
REMARK    1  A    between atoms: C7_15  and  C8_16
REMARK    2  A    between atoms: C8_16  and  C9_17
ROOT
HETATM    1  C1  UNL     1      32.601 -15.939  36.189  1.00  0.00     0.068 C
HETATM    2  C2  UNL     1      31.147 -15.761  36.537  1.00  0.00     0.014 A
HETATM    3  N1  UNL     1      30.705 -15.621  37.822  1.00  0.00    -0.345 N
ATOM      4  H1  UNL     1      31.312 -15.587  38.640  1.00  0.00     0.167 HD
HETATM    5  C3  UNL     1      29.370 -15.536  37.866  1.00  0.00     0.126 A
HETATM    6  N2  UNL     1      28.474 -15.409  38.877  1.00  0.00    -0.293 N
ATOM      7  H2  UNL     1      28.831 -15.346  39.830  1.00  0.00     0.172 HD
HETATM    8  C4  UNL     1      27.155 -15.361  38.698  1.00  0.00     0.328 A
HETATM    9  O1  UNL     1      26.358 -15.240  39.693  1.00  0.00    -0.247 OA
HETATM   10  N3  UNL     1      26.688 -15.446  37.452  1.00  0.00    -0.275 N
ATOM     11  H3  UNL     1      25.682 -15.413  37.286  1.00  0.00     0.173 HD
HETATM   12  C5  UNL     1      27.543 -15.575  36.394  1.00  0.00     0.264 A
HETATM   13  O2  UNL     1      27.030 -15.651  35.277  1.00  0.00    -0.267 OA
HETATM   14  C6  UNL     1      28.900 -15.621  36.581  1.00  0.00     0.084 A
HETATM   15  C7  UNL     1      30.033 -15.760  35.749  1.00  0.00    -0.014 A
ENDROOT
BRANCH  15  16
HETATM   16  C8  UNL     1      29.932 -15.864  34.285  1.00  0.00     0.074 C
BRANCH  16  17
HETATM   17  C9  UNL     1      30.008 -14.656  33.451  1.00  0.00     0.076 C
HETATM   18  C10 UNL     1      31.426 -14.692  32.784  1.00  0.00     0.040 C
HETATM   19 BR1  UNL     1      30.084 -12.972  34.443  1.00  0.00    -0.073 Br
HETATM   20 BR2  UNL     1      28.679 -14.421  32.110  1.00  0.00    -0.073 Br
ENDBRANCH  16  17
ENDBRANCH  15  16
TORSDOF 2
ENDMDL