MODEL 3
REMARK VINA RESULT: -6.980152365      2.069      2.238
REMARK  3 active torsions:
REMARK  status: ('A' for Active; 'I' for Inactive)
REMARK    1  A    between atoms: C3_5  and  N2_6
REMARK    2  A    between atoms: N2_6  and  N3_8
REMARK    3  A    between atoms: C4_10  and  C5_11
ROOT
HETATM    1  N2  UNL     1      26.095 -15.328  39.667  1.00  0.00    -0.132 N
ATOM      2  H2  UNL     1      25.291 -15.842  39.304  1.00  0.00     0.205 HD
ENDROOT
BRANCH   1   3
HETATM    3  C3  UNL     1      26.120 -15.068  40.935  1.00  0.00     0.697 A
HETATM    4  N1  UNL     1      27.264 -14.874  41.605  1.00  0.00    -0.189 N
HETATM    5  C2  UNL     1      26.984 -14.628  42.884  1.00  0.00     0.066 A
ATOM      6  H1  UNL     1      28.200 -14.910  41.200  1.00  0.00     0.184 HD
HETATM    7  C1  UNL     1      27.859 -14.382  43.878  1.00  0.00     0.046 C
HETATM    8  C11 UNL     1      25.612 -14.671  43.005  1.00  0.00     0.066 A
HETATM    9  N4  UNL     1      25.099 -14.944  41.797  1.00  0.00    -0.189 N
HETATM   10  C12 UNL     1      24.931 -14.477  44.122  1.00  0.00     0.046 C
ATOM     11  H4  UNL     1      24.109 -15.039  41.573  1.00  0.00     0.184 HD
ENDBRANCH   1   3
BRANCH   1  12
HETATM   12  N3  UNL     1      27.076 -14.959  38.770  1.00  0.00    -0.297 N
HETATM   13  C4  UNL     1      28.057 -15.708  38.402  1.00  0.00     0.119 C
ATOM     14  H3  UNL     1      27.022 -14.023  38.369  1.00  0.00     0.186 HD
BRANCH  13  15
HETATM   15  C5  UNL     1      29.027 -15.213  37.454  1.00  0.00    -0.017 A
HETATM   16  C6  UNL     1      30.258 -15.799  37.344  1.00  0.00     0.032 A
HETATM   17  C7  UNL     1      31.210 -15.329  36.429  1.00  0.00     0.013 A
HETATM   18 BR1  UNL     1      32.882 -16.231  36.373  1.00  0.00    -0.051 Br
HETATM   19  C8  UNL     1      30.906 -14.261  35.626  1.00  0.00     0.038 A
HETATM   20  C9  UNL     1      29.684 -13.670  35.729  1.00  0.00     0.013 A
HETATM   21 BR2  UNL     1      29.284 -12.191  34.609  1.00  0.00    -0.051 Br
HETATM   22  C10 UNL     1      28.737 -14.143  36.644  1.00  0.00     0.032 A
ENDBRANCH  13  15
ENDBRANCH   1  12
TORSDOF 3
ENDMDL