MODEL 2
REMARK VINA RESULT: -4.927521873      3.376      4.538
REMARK  2 active torsions:
REMARK  status: ('A' for Active; 'I' for Inactive)
REMARK    1  A    between atoms: C9_12  and  C10_13
REMARK    2  A    between atoms: C10_13  and  O1_17
ROOT
HETATM    1  C1  UNL     1      27.906 -15.311  39.111  1.00  0.00     0.036 C
HETATM    2  C2  UNL     1      28.472 -15.673  37.731  1.00  0.00     0.101 A
HETATM    3  C3  UNL     1      28.187 -14.584  36.821  1.00  0.00     0.011 A
HETATM    4  C4  UNL     1      29.117 -13.970  36.041  1.00  0.00    -0.009 A
HETATM    5  C5  UNL     1      28.932 -12.951  35.170  1.00  0.00    -0.013 A
HETATM    6  C6  UNL     1      27.574 -12.306  34.923  1.00  0.00     0.127 A
HETATM    7 BR1  UNL     1      27.692 -10.916  33.643  1.00  0.00    -0.086 Br
HETATM    8  C7  UNL     1      30.027 -12.496  34.494  1.00  0.00     0.059 A
HETATM    9 BR2  UNL     1      30.112 -11.072  33.192  1.00  0.00    -0.048 Br
HETATM   10  S1  UNL     1      31.286 -13.482  35.073  1.00  0.00    -0.079 SA
HETATM   11  C8  UNL     1      30.392 -14.446  36.158  1.00  0.00     0.047 A
HETATM   12  C9  UNL     1      30.757 -15.450  36.972  1.00  0.00     0.097 A
HETATM   13  N2  UNL     1      29.814 -16.122  37.808  1.00  0.00    -0.378 N
ATOM     14  H2  UNL     1      30.091 -16.884  38.426  1.00  0.00     0.160 HD
ENDROOT
BRANCH  12  15
HETATM   15  C10 UNL     1      32.138 -15.847  36.992  1.00  0.00     0.162 C
HETATM   16  N1  UNL     1      32.535 -16.826  36.275  1.00  0.00    -0.378 N
ATOM     17  H12 UNL     1      31.864 -17.324  35.690  1.00  0.00     0.158 HD
ATOM     18  H11 UNL     1      33.515 -17.107  36.290  1.00  0.00     0.158 HD
BRANCH  15  19
HETATM   19  O1  UNL     1      33.048 -15.172  37.785  1.00  0.00    -0.345 OA
ATOM     20  H1  UNL     1      33.464 -15.609  38.519  1.00  0.00     0.219 HD
ENDBRANCH  15  19
ENDBRANCH  12  15
TORSDOF 2
ENDMDL