MODEL 1
REMARK VINA RESULT: -6.322352810      0.000      0.000
REMARK  2 active torsions:
REMARK  status: ('A' for Active; 'I' for Inactive)
REMARK    1  A    between atoms: C5_8  and  C6_9
REMARK    2  A    between atoms: C6_9  and  C7_10
ROOT
HETATM    1  C7  UNL     1      26.801 -15.046  39.435  1.00  0.00     0.042 A
HETATM    2  N2  UNL     1      25.920 -14.759  38.467  1.00  0.00    -0.302 N
ATOM      3  H2  UNL     1      26.087 -14.819  37.463  1.00  0.00     0.186 HD
HETATM    4  N3  UNL     1      24.802 -14.385  39.047  1.00  0.00    -0.284 N
ATOM      5  H3  UNL     1      23.961 -14.109  38.541  1.00  0.00     0.188 HD
HETATM    6  C8  UNL     1      24.900 -14.412  40.386  1.00  0.00     0.134 A
HETATM    7  N4  UNL     1      24.276 -14.201  41.573  1.00  0.00    -0.334 N
ATOM      8  H4  UNL     1      23.313 -13.881  41.683  1.00  0.00     0.168 HD
HETATM    9  C9  UNL     1      25.120 -14.479  42.579  1.00  0.00     0.099 A
HETATM   10 BR1  UNL     1      24.773 -14.360  44.445  1.00  0.00    -0.030 Br
HETATM   11  C10 UNL     1      26.341 -14.886  42.028  1.00  0.00     0.061 A
HETATM   12 BR2  UNL     1      27.883 -15.407  42.991  1.00  0.00    -0.047 Br
HETATM   13  C11 UNL     1      26.196 -14.840  40.657  1.00  0.00     0.053 A
ENDROOT
BRANCH   1  14
HETATM   14  C6  UNL     1      28.188 -15.489  39.203  1.00  0.00     0.073 C
BRANCH  14  15
HETATM   15  C5  UNL     1      28.417 -15.952  37.758  1.00  0.00     0.083 C
HETATM   16  C1  UNL     1      29.124 -14.820  37.098  1.00  0.00     0.222 C
HETATM   17  O1  UNL     1      28.547 -13.688  36.945  1.00  0.00    -0.273 OA
HETATM   18  N1  UNL     1      30.455 -14.950  36.615  1.00  0.00    -0.361 N
HETATM   19  C2  UNL     1      30.884 -16.229  36.036  1.00  0.00     0.122 C
ATOM     20  H1  UNL     1      31.103 -14.164  36.670  1.00  0.00     0.162 HD
HETATM   21  C3  UNL     1      30.134 -17.390  36.592  1.00  0.00     0.020 C
HETATM   22  C4  UNL     1      29.346 -17.127  37.827  1.00  0.00     0.016 C
ENDBRANCH  14  15
ENDBRANCH   1  14
TORSDOF 2
ENDMDL