MODEL 2
REMARK VINA RESULT: -5.872182848      3.701      5.973
REMARK  4 active torsions:
REMARK  status: ('A' for Active; 'I' for Inactive)
REMARK    1  A    between atoms: C3_5  and  N2_6
REMARK    2  A    between atoms: N2_6  and  C4_7
REMARK    3  A    between atoms: N3_11  and  C8_12
REMARK    4  A    between atoms: C8_12  and  C9_13
ROOT
HETATM    1  C1  UNL     1      30.567 -15.632  36.594  1.00  0.00     0.064 C
HETATM    2  C2  UNL     1      29.440 -15.619  37.328  1.00  0.00     0.101 A
HETATM    3  N1  UNL     1      29.367 -15.390  38.626  1.00  0.00    -0.316 N
ATOM      4  H1  UNL     1      30.167 -15.194  39.227  1.00  0.00     0.170 HD
HETATM    5  C3  UNL     1      28.053 -15.454  39.057  1.00  0.00     0.200 A
HETATM    6  C6  UNL     1      27.311 -15.747  37.892  1.00  0.00     0.085 A
HETATM    7  C7  UNL     1      25.997 -15.889  37.894  1.00  0.00     0.048 C
HETATM    8  N3  UNL     1      28.190 -15.834  36.894  1.00  0.00    -0.325 N
ENDROOT
BRANCH   8   9
HETATM    9  C8  UNL     1      27.814 -16.124  35.526  1.00  0.00     0.188 C
BRANCH   9  10
HETATM   10  C9  UNL     1      27.629 -14.880  34.720  1.00  0.00     0.029 A
HETATM   11  C10 UNL     1      27.385 -14.764  33.368  1.00  0.00     0.048 A
HETATM   12  C11 UNL     1      27.279 -13.431  33.028  1.00  0.00     0.046 A
HETATM   13 BR1  UNL     1      26.949 -12.666  31.311  1.00  0.00    -0.048 Br
HETATM   14  C12 UNL     1      27.466 -12.721  34.214  1.00  0.00     0.097 A
HETATM   15 BR2  UNL     1      27.443 -10.818  34.442  1.00  0.00    -0.030 Br
HETATM   16  N4  UNL     1      27.670 -13.624  35.192  1.00  0.00    -0.351 N
ATOM     17  H4  UNL     1      27.836 -13.383  36.169  1.00  0.00     0.166 HD
ENDBRANCH   9  10
ENDBRANCH   8   9
BRANCH   5  18
HETATM   18  N2  UNL     1      27.667 -15.288  40.195  1.00  0.00    -0.429 NA
BRANCH  18  19
HETATM   19  C4  UNL     1      27.247 -15.108  41.429  1.00  0.00     0.216 C
HETATM   20  C5  UNL     1      25.740 -14.725  41.441  1.00  0.00     0.041 C
ENDBRANCH  18  19
ENDBRANCH   5  18
TORSDOF 4
ENDMDL