MODEL 2
REMARK VINA RESULT: -5.470874211      2.764      3.687
REMARK  2 active torsions:
REMARK  status: ('A' for Active; 'I' for Inactive)
REMARK       I    between atoms: C1_4  and  N3_6
REMARK    1  A    between atoms: C3_8  and  C4_9
REMARK    2  A    between atoms: C6_13  and  C7_14
ROOT
HETATM    1  N1  UNL     1      28.510 -18.806  35.040  1.00  0.00    -0.374 N
ATOM      2  H11 UNL     1      28.704 -19.035  36.015  1.00  0.00     0.158 HD
ATOM      3  H12 UNL     1      28.350 -19.523  34.333  1.00  0.00     0.158 HD
HETATM    4  C1  UNL     1      28.464 -17.552  34.689  1.00  0.00     0.184 C
HETATM    5  N2  UNL     1      28.192 -17.232  33.327  1.00  0.00    -0.064 NA
HETATM    6  N3  UNL     1      28.687 -16.551  35.677  1.00  0.00    -0.350 N
HETATM    7  C2  UNL     1      29.779 -15.633  35.704  1.00  0.00     0.141 C
HETATM    8  C3  UNL     1      29.408 -14.535  36.667  1.00  0.00     0.111 C
HETATM    9  C5  UNL     1      28.034 -14.832  37.189  1.00  0.00     0.032 C
HETATM   10  C6  UNL     1      28.107 -15.266  38.653  1.00  0.00     0.019 C
HETATM   11  C9  UNL     1      28.561 -16.587  38.162  1.00  0.00     0.035 C
HETATM   12  C10 UNL     1      27.854 -16.274  36.833  1.00  0.00     0.093 C
ENDROOT
BRANCH   8  13
HETATM   13  C4  UNL     1      29.488 -13.221  35.981  1.00  0.00     0.179 C
HETATM   14  O1  UNL     1      30.547 -12.610  35.758  1.00  0.00    -0.648 OA
HETATM   15  O2  UNL     1      28.303 -12.637  35.562  1.00  0.00    -0.648 OA
ENDBRANCH   8  13
BRANCH  10  16
HETATM   16  C7  UNL     1      26.902 -15.049  39.422  1.00  0.00     0.005 C
HETATM   17  C8  UNL     1      26.605 -14.941  40.671  1.00  0.00     0.054 C
HETATM   18 BR1  UNL     1      24.761 -14.644  41.205  1.00  0.00    -0.043 Br
HETATM   19 BR2  UNL     1      27.880 -15.051  42.055  1.00  0.00    -0.043 Br
ENDBRANCH  10  16
TORSDOF 2
ENDMDL