MODEL 5
REMARK VINA RESULT: -4.928194591      1.560      1.988
REMARK  3 active torsions:
REMARK  status: ('A' for Active; 'I' for Inactive)
REMARK    1  A    between atoms: N1_1  and  C1_5
REMARK    2  A    between atoms: C4_11  and  C5_12
REMARK    3  A    between atoms: C5_12  and  C6_13
ROOT
HETATM    1  C1  UNL     1      28.393 -16.278  37.715  1.00  0.00     0.187 C
HETATM    2  C2  UNL     1      29.513 -16.910  36.935  1.00  0.00     0.060 C
HETATM    3  C3  UNL     1      29.012 -17.568  35.686  1.00  0.00     0.235 C
HETATM    4  N2  UNL     1      28.223 -16.647  34.934  1.00  0.00    -0.071 N
ATOM      5  H21 UNL     1      27.278 -17.010  34.805  1.00  0.00     0.277 HD
ATOM      6  H22 UNL     1      28.534 -16.621  33.963  1.00  0.00     0.277 HD
HETATM    7  C4  UNL     1      28.179 -15.320  35.482  1.00  0.00     0.189 C
HETATM    8  C11 UNL     1      27.570 -15.324  36.890  1.00  0.00     0.066 C
ENDROOT
BRANCH   7   9
HETATM    9  C5  UNL     1      27.388 -14.447  34.563  1.00  0.00     0.055 C
BRANCH   9  10
HETATM   10  C6  UNL     1      28.272 -13.529  33.769  1.00  0.00     0.043 C
HETATM   11 BR1  UNL     1      28.795 -14.238  32.055  1.00  0.00    -0.084 Br
HETATM   12  C7  UNL     1      29.514 -13.310  34.606  1.00  0.00     0.042 C
HETATM   13  C8  UNL     1      30.034 -11.894  34.545  1.00  0.00     0.124 C
HETATM   14  N3  UNL     1      29.021 -10.940  34.978  1.00  0.00    -0.360 N
HETATM   15  C9  UNL     1      27.684 -11.284  34.625  1.00  0.00     0.233 C
ATOM     16  H3  UNL     1      29.251 -10.091  35.494  1.00  0.00     0.162 HD
HETATM   17  O1  UNL     1      26.689 -10.835  35.220  1.00  0.00    -0.272 OA
HETATM   18  C10 UNL     1      27.540 -12.234  33.479  1.00  0.00     0.169 C
HETATM   19 BR2  UNL     1      28.212 -11.413  31.857  1.00  0.00    -0.079 Br
ENDBRANCH   9  10
ENDBRANCH   7   9
BRANCH   1  20
HETATM   20  N1  UNL     1      28.876 -15.684  38.933  1.00  0.00    -0.075 N
ATOM     21  H13 UNL     1      29.391 -16.358  39.500  1.00  0.00     0.274 HD
ATOM     22  H12 UNL     1      29.630 -15.022  38.754  1.00  0.00     0.274 HD
ATOM     23  H11 UNL     1      28.117 -15.253  39.461  1.00  0.00     0.274 HD
ENDBRANCH   1  20
TORSDOF 3
ENDMDL