MODEL 4
REMARK VINA RESULT: -4.997969846      2.447      3.753
REMARK  3 active torsions:
REMARK  status: ('A' for Active; 'I' for Inactive)
REMARK    1  A    between atoms: C8_11  and  C9_12
REMARK    2  A    between atoms: C9_12  and  O2_13
REMARK    3  A    between atoms: C9_12  and  C10_15
ROOT
HETATM    1  O1  UNL     1      28.489 -12.541  33.180  1.00  0.00    -0.247 OA
HETATM    2  C1  UNL     1      28.747 -13.149  34.277  1.00  0.00     0.316 C
HETATM    3  N1  UNL     1      27.829 -13.766  35.143  1.00  0.00    -0.336 N
ATOM      4  H1  UNL     1      26.923 -14.160  34.889  1.00  0.00     0.164 HD
HETATM    5  C2  UNL     1      28.404 -13.735  36.442  1.00  0.00     0.117 C
HETATM    6  C3  UNL     1      28.097 -14.837  37.347  1.00  0.00     0.037 C
HETATM    7  C4  UNL     1      27.296 -15.953  36.865  1.00  0.00    -0.024 C
HETATM    8  C5  UNL     1      27.844 -17.080  37.283  1.00  0.00    -0.030 C
HETATM    9  C6  UNL     1      29.069 -16.776  38.082  1.00  0.00     0.032 C
HETATM   10  C7  UNL     1      29.467 -15.428  37.680  1.00  0.00     0.007 C
HETATM   11  C8  UNL     1      30.321 -15.208  36.468  1.00  0.00     0.046 C
HETATM   12  C11 UNL     1      29.911 -13.824  36.130  1.00  0.00     0.116 C
HETATM   13  N2  UNL     1      30.042 -13.318  34.839  1.00  0.00    -0.336 N
ATOM     14  H2  UNL     1      30.923 -13.105  34.372  1.00  0.00     0.164 HD
ENDROOT
BRANCH  11  15
HETATM   15  C9  UNL     1      30.329 -16.253  35.487  1.00  0.00     0.149 C
BRANCH  15  16
HETATM   16  O2  UNL     1      31.082 -17.357  35.912  1.00  0.00    -0.393 OA
ATOM     17  H2  UNL     1      31.182 -18.001  35.221  1.00  0.00     0.210 HD
ENDBRANCH  15  16
BRANCH  15  18
HETATM   18  C10 UNL     1      30.864 -16.000  34.113  1.00  0.00     0.158 C
HETATM   19 BR1  UNL     1      29.405 -16.622  32.935  1.00  0.00    -0.076 Br
HETATM   20 BR2  UNL     1      32.337 -17.158  33.664  1.00  0.00    -0.076 Br
ENDBRANCH  15  18
ENDBRANCH  11  15
TORSDOF 3
ENDMDL