MODEL 2
REMARK VINA RESULT: -5.293789252      4.404      6.222
REMARK  3 active torsions:
REMARK  status: ('A' for Active; 'I' for Inactive)
REMARK    1  A    between atoms: N2_12  and  C8_14
REMARK    2  A    between atoms: C8_14  and  C9_15
REMARK    3  A    between atoms: C9_15  and  N3_16
ROOT
HETATM    1  C1  UNL     1      26.943 -15.530  37.125  1.00  0.00     0.070 C
HETATM    2  C2  UNL     1      28.381 -15.323  36.740  1.00  0.00     0.028 A
HETATM    3  N1  UNL     1      28.832 -14.077  36.504  1.00  0.00    -0.326 N
ATOM      4  H1  UNL     1      28.222 -13.263  36.578  1.00  0.00     0.169 HD
HETATM    5  C3  UNL     1      30.132 -13.961  36.163  1.00  0.00     0.258 A
HETATM    6  O1  UNL     1      30.581 -12.801  35.935  1.00  0.00    -0.267 OA
HETATM    7  C4  UNL     1      30.980 -15.034  36.054  1.00  0.00     0.061 A
HETATM    8  C5  UNL     1      32.306 -14.915  35.706  1.00  0.00     0.042 A
HETATM    9  C6  UNL     1      33.099 -16.069  35.618  1.00  0.00     0.055 A
HETATM   10 BR1  UNL     1      34.919 -15.746  35.126  1.00  0.00    -0.047 Br
HETATM   11  C7  UNL     1      32.599 -17.308  35.867  1.00  0.00     0.119 A
HETATM   12  N2  UNL     1      33.213 -18.370  35.816  1.00  0.00    -0.374 N
ATOM     13  H2  UNL     1      32.634 -19.178  36.042  1.00  0.00     0.161 HD
HETATM   14  N4  UNL     1      31.270 -17.391  36.211  1.00  0.00    -0.340 N
ATOM     15  H4  UNL     1      30.863 -18.307  36.403  1.00  0.00     0.167 HD
HETATM   16  C10 UNL     1      30.493 -16.294  36.301  1.00  0.00     0.069 A
HETATM   17  C11 UNL     1      29.163 -16.449  36.653  1.00  0.00     0.061 A
HETATM   18 BR2  UNL     1      28.481 -18.195  36.997  1.00  0.00    -0.046 Br
ENDROOT
BRANCH  12  19
HETATM   19  C8  UNL     1      34.532 -18.710  35.514  1.00  0.00     0.148 C
BRANCH  19  20
HETATM   20  C9  UNL     1      34.729 -20.231  35.394  1.00  0.00     0.249 C
BRANCH  20  21
HETATM   21  N3  UNL     1      33.756 -20.826  36.307  1.00  0.00    -0.078 N
ATOM     22  H33 UNL     1      32.843 -20.372  36.284  1.00  0.00     0.274 HD
ATOM     23  H32 UNL     1      33.438 -21.751  36.020  1.00  0.00     0.274 HD
ATOM     24  H31 UNL     1      34.198 -20.811  37.226  1.00  0.00     0.274 HD
ENDBRANCH  20  21
ENDBRANCH  19  20
ENDBRANCH  12  19
TORSDOF 3
ENDMDL