MODEL 4
REMARK VINA RESULT: -5.286031838      1.834      2.005
REMARK  4 active torsions:
REMARK  status: ('A' for Active; 'I' for Inactive)
REMARK    1  A    between atoms: N1_4  and  C4_5
REMARK    2  A    between atoms: C4_5  and  N2_7
REMARK    3  A    between atoms: N2_7  and  C5_9
REMARK    4  A    between atoms: C5_9  and  C8_12
REMARK       I    between atoms: N3_18  and  C12_19
ROOT
HETATM    1  C1  UNL     1      27.416 -11.023  31.316  1.00  0.00     0.034 C
HETATM    2  C2  UNL     1      26.824 -11.498  32.652  1.00  0.00     0.101 C
HETATM    3  C3  UNL     1      26.674 -12.976  32.557  1.00  0.00     0.150 C
HETATM    4  N1  UNL     1      27.726 -13.705  33.347  1.00  0.00    -0.355 N
HETATM    5  C10 UNL     1      28.994 -13.058  33.262  1.00  0.00     0.145 C
HETATM    6  C11 UNL     1      28.968 -11.709  33.982  1.00  0.00     0.146 C
HETATM    7  N3  UNL     1      27.702 -11.050  33.694  1.00  0.00    -0.348 N
HETATM    8  C12 UNL     1      27.338  -9.931  34.473  1.00  0.00     0.184 C
HETATM    9  N4  UNL     1      27.843  -8.755  34.302  1.00  0.00    -0.374 N
ATOM     10  H41 UNL     1      27.580  -7.946  34.866  1.00  0.00     0.158 HD
ATOM     11  H42 UNL     1      28.536  -8.667  33.559  1.00  0.00     0.158 HD
HETATM   12  N5  UNL     1      26.361 -10.056  35.524  1.00  0.00    -0.064 NA
ENDROOT
BRANCH   4  13
HETATM   13  C4  UNL     1      27.319 -14.851  34.012  1.00  0.00     0.170 C
HETATM   14  S1  UNL     1      26.128 -15.723  33.130  1.00  0.00    -0.041 SA
BRANCH  13  15
HETATM   15  N2  UNL     1      27.637 -15.474  35.205  1.00  0.00    -0.356 N
ATOM     16  H2  UNL     1      27.364 -16.457  35.195  1.00  0.00     0.162 HD
BRANCH  15  17
HETATM   17  C5  UNL     1      28.235 -15.118  36.432  1.00  0.00     0.060 C
HETATM   18  C6  UNL     1      29.724 -15.079  36.490  1.00  0.00     0.041 C
HETATM   19  C7  UNL     1      27.651 -13.811  36.948  1.00  0.00     0.041 C
BRANCH  17  20
HETATM   20  C8  UNL     1      27.795 -16.144  37.517  1.00  0.00     0.134 C
HETATM   21  C9  UNL     1      28.655 -16.010  38.732  1.00  0.00     0.053 C
HETATM   22 CL1  UNL     1      27.950 -17.789  36.869  1.00  0.00    -0.099 Cl
HETATM   23 CL2  UNL     1      26.107 -15.850  37.926  1.00  0.00    -0.099 Cl
ENDBRANCH  17  20
ENDBRANCH  15  17
ENDBRANCH  13  15
ENDBRANCH   4  13
TORSDOF 4
ENDMDL