MODEL 2
REMARK VINA RESULT: -4.943398093      1.318      3.336
REMARK  5 active torsions:
REMARK  status: ('A' for Active; 'I' for Inactive)
REMARK    1  A    between atoms: C2_2  and  C3_4
REMARK    2  A    between atoms: C3_4  and  C4_5
REMARK    3  A    between atoms: C5_7  and  O1_8
REMARK    4  A    between atoms: C6_10  and  O2_11
REMARK    5  A    between atoms: C11_17  and  O3_18
ROOT
HETATM    1  C3  UNL     1      28.300 -15.748  35.068  1.00  0.00     0.016 C
HETATM    2  C5  UNL     1      29.716 -15.846  35.594  1.00  0.00     0.158 C
HETATM    3  C6  UNL     1      29.941 -14.859  36.719  1.00  0.00     0.154 C
HETATM    4  C7  UNL     1      28.822 -14.798  37.692  1.00  0.00     0.046 C
HETATM    5  C8  UNL     1      28.436 -16.191  38.187  1.00  0.00     0.010 C
HETATM    6  C9  UNL     1      27.362 -16.659  37.225  1.00  0.00     0.009 C
HETATM    7  C10 UNL     1      27.284 -15.609  36.153  1.00  0.00     0.028 C
HETATM    8  C11 UNL     1      27.542 -14.392  37.015  1.00  0.00     0.129 C
ENDROOT
BRANCH   1   9
HETATM    9  C2  UNL     1      27.959 -16.713  34.010  1.00  0.00     0.066 C
HETATM   10  C1  UNL     1      27.979 -18.155  34.251  1.00  0.00     0.023 C
HETATM   11 BR1  UNL     1      26.168 -16.272  33.348  1.00  0.00    -0.091 Br
ENDBRANCH   1   9
BRANCH   1  12
HETATM   12  C4  UNL     1      28.299 -14.393  34.318  1.00  0.00     0.099 C
HETATM   13 BR2  UNL     1      29.656 -14.469  32.903  1.00  0.00    -0.096 Br
ENDBRANCH   1  12
BRANCH   2  14
HETATM   14  O1  UNL     1      30.117 -17.105  35.948  1.00  0.00    -0.392 OA
ATOM     15  H1  UNL     1      30.568 -17.590  35.267  1.00  0.00     0.210 HD
ENDBRANCH   2  14
BRANCH   3  16
HETATM   16  O2  UNL     1      31.114 -15.274  37.373  1.00  0.00    -0.393 OA
ATOM     17  H2  UNL     1      31.392 -16.070  36.935  1.00  0.00     0.210 HD
ENDBRANCH   3  16
BRANCH   8  18
HETATM   18  O3  UNL     1      26.577 -14.347  38.052  1.00  0.00    -0.395 OA
ATOM     19  H3  UNL     1      25.794 -13.997  37.644  1.00  0.00     0.210 HD
ENDBRANCH   8  18
TORSDOF 5
ENDMDL