MODEL 2
REMARK VINA RESULT: -5.094556821      1.249      1.504
REMARK  5 active torsions:
REMARK  status: ('A' for Active; 'I' for Inactive)
REMARK    1  A    between atoms: C3_3  and  C4_4
REMARK    2  A    between atoms: C4_4  and  C6_7
REMARK    3  A    between atoms: C6_7  and  C7_8
REMARK    4  A    between atoms: C8_11  and  N2_12
REMARK    5  A    between atoms: C9_17  and  N4_18
ROOT
HETATM    1  C1  UNL     1      25.443 -14.648  40.651  1.00  0.00     0.112 C
HETATM    2  C2  UNL     1      26.299 -14.985  39.508  1.00  0.00    -0.109 C
HETATM    3  C3  UNL     1      27.015 -15.266  38.583  1.00  0.00    -0.085 C
ENDROOT
BRANCH   3   4
HETATM    4  C4  UNL     1      27.921 -15.613  37.446  1.00  0.00     0.083 C
HETATM    5  C5  UNL     1      28.723 -16.866  37.848  1.00  0.00     0.042 C
HETATM    6 BR1  UNL     1      26.807 -16.072  35.990  1.00  0.00    -0.071 Br
BRANCH   4   7
HETATM    7  C6  UNL     1      28.909 -14.525  37.277  1.00  0.00     0.093 C
BRANCH   7   8
HETATM    8  C7  UNL     1      28.708 -13.557  36.219  1.00  0.00     0.050 A
HETATM    9  N1  UNL     1      27.733 -12.625  36.337  1.00  0.00    -0.194 N
HETATM   10  C8  UNL     1      27.465 -11.731  35.372  1.00  0.00     0.677 A
ATOM     11  H1  UNL     1      27.180 -12.600  37.195  1.00  0.00     0.184 HD
HETATM   12  N3  UNL     1      28.141 -11.693  34.225  1.00  0.00    -0.176 N
HETATM   13  C9  UNL     1      29.123 -12.599  34.060  1.00  0.00     0.134 A
ATOM     14  H3  UNL     1      27.924 -11.007  33.502  1.00  0.00     0.186 HD
HETATM   15  C10 UNL     1      29.422 -13.544  35.054  1.00  0.00     0.078 A
HETATM   16 BR2  UNL     1      30.886 -14.706  34.691  1.00  0.00    -0.045 Br
BRANCH  10  17
HETATM   17  N2  UNL     1      26.509 -10.853  35.541  1.00  0.00    -0.234 N
ATOM     18  H22 UNL     1      26.767  -9.937  35.909  1.00  0.00     0.174 HD
ATOM     19  H21 UNL     1      25.546 -11.097  35.308  1.00  0.00     0.174 HD
ENDBRANCH  10  17
BRANCH  13  20
HETATM   20  N4  UNL     1      29.780 -12.560  32.942  1.00  0.00    -0.384 N
ATOM     21  H42 UNL     1      30.757 -12.269  32.907  1.00  0.00     0.157 HD
ATOM     22  H41 UNL     1      29.276 -12.834  32.098  1.00  0.00     0.157 HD
ENDBRANCH  13  20
ENDBRANCH   7   8
ENDBRANCH   4   7
ENDBRANCH   3   4
TORSDOF 5
ENDMDL