MODEL 5
REMARK VINA RESULT: -5.379415262      4.923      6.750
REMARK  4 active torsions:
REMARK  status: ('A' for Active; 'I' for Inactive)
REMARK    1  A    between atoms: C2_2  and  C4_4
REMARK       I    between atoms: N3_10  and  C6_12
REMARK    2  A    between atoms: C6_12  and  C7_14
REMARK    3  A    between atoms: C7_14  and  N4_15
REMARK    4  A    between atoms: C7_14  and  C8_19
ROOT
HETATM    1  C4  UNL     1      28.104 -14.302  37.177  1.00  0.00     0.071 A
HETATM    2  N1  UNL     1      27.150 -13.358  36.967  1.00  0.00    -0.298 N
ATOM      3  H1  UNL     1      26.239 -13.326  37.425  1.00  0.00     0.187 HD
HETATM    4  N2  UNL     1      27.597 -12.479  36.064  1.00  0.00    -0.284 N
ATOM      5  H2  UNL     1      27.080 -11.670  35.720  1.00  0.00     0.188 HD
HETATM    6  C5  UNL     1      28.816 -12.827  35.689  1.00  0.00     0.142 A
HETATM    7  N3  UNL     1      29.551 -12.235  34.766  1.00  0.00    -0.309 N
ATOM      8  H3  UNL     1      30.492 -12.551  34.526  1.00  0.00     0.170 HD
HETATM    9  C6  UNL     1      28.927 -11.115  34.129  1.00  0.00     0.254 C
HETATM   10  O1  UNL     1      28.022 -11.381  33.252  1.00  0.00    -0.271 OA
HETATM   11  C9  UNL     1      29.185 -13.973  36.361  1.00  0.00     0.084 A
HETATM   12 BR2  UNL     1      30.827 -14.928  36.272  1.00  0.00    -0.044 Br
ENDROOT
BRANCH   9  13
HETATM   13  C7  UNL     1      29.223  -9.704  34.383  1.00  0.00     0.284 C
BRANCH  13  14
HETATM   14  N4  UNL     1      28.153  -9.141  35.229  1.00  0.00    -0.066 N
ATOM     15  H43 UNL     1      27.470  -9.843  35.513  1.00  0.00     0.275 HD
ATOM     16  H42 UNL     1      28.486  -8.885  36.159  1.00  0.00     0.275 HD
ATOM     17  H41 UNL     1      27.725  -8.357  34.737  1.00  0.00     0.275 HD
ENDBRANCH  13  14
BRANCH  13  18
HETATM   18  C8  UNL     1      29.130  -8.888  33.095  1.00  0.00     0.127 C
HETATM   19 BR1  UNL     1      27.587  -7.754  33.089  1.00  0.00    -0.094 Br
ENDBRANCH  13  18
ENDBRANCH   9  13
BRANCH   1  20
HETATM   20  C2  UNL     1      27.908 -15.505  37.987  1.00  0.00    -0.058 C
HETATM   21  C1  UNL     1      27.583 -16.747  37.255  1.00  0.00     0.045 C
HETATM   22  C3  UNL     1      27.104 -15.271  39.219  1.00  0.00     0.045 C
ENDBRANCH   1  20
TORSDOF 4
ENDMDL