MODEL 2
REMARK VINA RESULT: -4.461713890      4.878      6.661
REMARK  3 active torsions:
REMARK  status: ('A' for Active; 'I' for Inactive)
REMARK    1  A    between atoms: C2_2  and  C3_3
REMARK    2  A    between atoms: C5_8  and  C6_9
REMARK    3  A    between atoms: C6_9  and  N2_10
ROOT
HETATM    1  C3  UNL     1      27.372 -15.541  37.199  1.00  0.00     0.186 C
HETATM    2  N1  UNL     1      27.045 -14.310  36.574  1.00  0.00    -0.339 N
ATOM      3  H1  UNL     1      26.203 -13.880  36.958  1.00  0.00     0.164 HD
HETATM    4  C4  UNL     1      27.632 -13.547  35.534  1.00  0.00     0.230 C
HETATM    5  O1  UNL     1      27.456 -12.293  35.575  1.00  0.00    -0.273 OA
HETATM    6  C5  UNL     1      28.428 -14.114  34.414  1.00  0.00     0.146 C
HETATM    7  C7  UNL     1      29.527 -14.954  34.883  1.00  0.00     0.037 C
HETATM    8 BR1  UNL     1      31.163 -14.716  33.895  1.00  0.00    -0.052 Br
HETATM    9  C8  UNL     1      29.554 -15.820  35.851  1.00  0.00     0.093 C
HETATM   10 BR2  UNL     1      31.257 -16.681  36.079  1.00  0.00    -0.030 Br
HETATM   11  N3  UNL     1      28.528 -16.211  36.741  1.00  0.00    -0.357 N
HETATM   12  C9  UNL     1      28.689 -17.546  37.288  1.00  0.00     0.152 C
ENDROOT
BRANCH   6  13
HETATM   13  C6  UNL     1      27.509 -14.823  33.446  1.00  0.00     0.249 C
BRANCH  13  14
HETATM   14  N2  UNL     1      26.339 -14.069  33.109  1.00  0.00    -0.078 N
ATOM     15  H23 UNL     1      25.686 -14.047  33.892  1.00  0.00     0.274 HD
ATOM     16  H22 UNL     1      26.558 -13.074  33.041  1.00  0.00     0.274 HD
ATOM     17  H21 UNL     1      25.873 -14.393  32.261  1.00  0.00     0.274 HD
ENDBRANCH  13  14
ENDBRANCH   6  13
BRANCH   1  18
HETATM   18  C2  UNL     1      27.443 -15.279  38.703  1.00  0.00     0.042 C
HETATM   19  C1  UNL     1      26.090 -14.925  39.266  1.00  0.00     0.009 C
ENDBRANCH   1  18
TORSDOF 3
ENDMDL