MODEL 2
REMARK VINA RESULT: -5.488412962      2.257      6.230
REMARK  3 active torsions:
REMARK  status: ('A' for Active; 'I' for Inactive)
REMARK       I    between atoms: C1_4  and  N2_5
REMARK       I    between atoms: C1_4  and  N4_14
REMARK    1  A    between atoms: N2_5  and  C2_7
REMARK    2  A    between atoms: N4_14  and  C5_16
REMARK    3  A    between atoms: C5_16  and  C6_17
ROOT
HETATM    1  N1  UNL     1      27.809 -14.903  42.805  1.00  0.00    -0.235 N
ATOM      2  H11 UNL     1      28.142 -14.396  43.626  1.00  0.00     0.174 HD
ATOM      3  H12 UNL     1      28.421 -15.600  42.381  1.00  0.00     0.174 HD
HETATM    4  C1  UNL     1      26.647 -14.670  42.320  1.00  0.00     0.673 C
HETATM    5  N2  UNL     1      26.185 -15.373  41.182  1.00  0.00    -0.171 N
ATOM      6  H2  UNL     1      25.412 -16.033  41.268  1.00  0.00     0.186 HD
HETATM    7  N4  UNL     1      25.792 -13.694  42.914  1.00  0.00    -0.226 N
ATOM      8  H4  UNL     1      25.186 -13.137  42.312  1.00  0.00     0.177 HD
ENDROOT
BRANCH   5   9
HETATM    9  C2  UNL     1      26.753 -15.174  40.015  1.00  0.00     0.164 A
HETATM   10  N3  UNL     1      28.024 -15.355  39.681  1.00  0.00    -0.344 N
HETATM   11  C3  UNL     1      28.389 -15.095  38.447  1.00  0.00     0.116 A
ATOM     12  H3  UNL     1      28.702 -15.688  40.367  1.00  0.00     0.167 HD
HETATM   13  C4  UNL     1      27.432 -14.652  37.580  1.00  0.00     0.070 A
HETATM   14 BR1  UNL     1      27.639 -14.186  35.719  1.00  0.00    -0.042 Br
HETATM   15  S1  UNL     1      26.040 -14.626  38.570  1.00  0.00    -0.044 SA
ENDBRANCH   5   9
BRANCH   7  16
HETATM   16  C5  UNL     1      25.759 -13.471  44.344  1.00  0.00     0.149 C
BRANCH  16  17
HETATM   17  C6  UNL     1      24.674 -14.288  44.980  1.00  0.00     0.105 C
HETATM   18 BR2  UNL     1      25.327 -16.033  45.491  1.00  0.00    -0.095 Br
ENDBRANCH  16  17
ENDBRANCH   7  16
TORSDOF 3
ENDMDL