MODEL 1
REMARK VINA RESULT: -4.896672903      0.000      0.000
REMARK  4 active torsions:
REMARK  status: ('A' for Active; 'I' for Inactive)
REMARK    1  A    between atoms: C3_5  and  N2_6
REMARK    2  A    between atoms: C4_11  and  N4_12
REMARK    3  A    between atoms: N4_12  and  C5_14
REMARK    4  A    between atoms: C5_14  and  C6_15
ROOT
HETATM    1  C1  UNL     1      29.368 -16.102  34.604  1.00  0.00     0.070 C
HETATM    2  C2  UNL     1      28.590 -15.211  35.506  1.00  0.00     0.043 A
HETATM    3  N1  UNL     1      28.261 -13.947  35.174  1.00  0.00    -0.195 N
ATOM      4  H1  UNL     1      28.551 -13.572  34.270  1.00  0.00     0.184 HD
HETATM    5  C3  UNL     1      27.555 -13.171  36.019  1.00  0.00     0.677 A
HETATM    6  N3  UNL     1      27.155 -13.639  37.224  1.00  0.00    -0.176 N
ATOM      7  H3  UNL     1      26.620 -13.038  37.851  1.00  0.00     0.186 HD
HETATM    8  C4  UNL     1      27.462 -14.904  37.601  1.00  0.00     0.136 A
HETATM    9  C7  UNL     1      28.193 -15.710  36.731  1.00  0.00     0.077 A
HETATM   10 BR2  UNL     1      28.656 -17.503  37.207  1.00  0.00    -0.045 Br
ENDROOT
BRANCH   8  11
HETATM   11  N4  UNL     1      27.112 -15.403  38.730  1.00  0.00    -0.374 N
ATOM     12  H4  UNL     1      27.679 -16.146  39.137  1.00  0.00     0.161 HD
BRANCH  11  13
HETATM   13  C5  UNL     1      25.954 -14.952  39.436  1.00  0.00     0.132 C
BRANCH  13  14
HETATM   14  C6  UNL     1      26.306 -14.958  40.930  1.00  0.00     0.104 C
HETATM   15 BR1  UNL     1      24.820 -14.194  41.904  1.00  0.00    -0.095 Br
ENDBRANCH  13  14
ENDBRANCH  11  13
ENDBRANCH   8  11
BRANCH   5  16
HETATM   16  N2  UNL     1      27.266 -11.958  35.645  1.00  0.00    -0.234 N
ATOM     17  H22 UNL     1      26.298 -11.640  35.602  1.00  0.00     0.174 HD
ATOM     18  H21 UNL     1      28.035 -11.334  35.395  1.00  0.00     0.174 HD
ENDBRANCH   5  16
TORSDOF 4
ENDMDL