MODEL 3
REMARK VINA RESULT: -4.769529064      3.497      4.098
REMARK  3 active torsions:
REMARK  status: ('A' for Active; 'I' for Inactive)
REMARK    1  A    between atoms: N1_2  and  C2_4
REMARK    2  A    between atoms: C5_9  and  C6_10
REMARK    3  A    between atoms: C6_10  and  N3_11
ROOT
HETATM    1  C2  UNL     1      25.888 -15.758  33.319  1.00  0.00     0.120 A
HETATM    2  N2  UNL     1      26.417 -15.696  34.597  1.00  0.00    -0.345 N
ATOM      3  H2  UNL     1      26.360 -16.509  35.210  1.00  0.00     0.167 HD
HETATM    4  C3  UNL     1      26.997 -14.582  35.028  1.00  0.00     0.016 A
HETATM    5  C4  UNL     1      27.552 -14.546  36.398  1.00  0.00     0.069 C
HETATM    6  C5  UNL     1      27.101 -13.454  34.240  1.00  0.00     0.001 A
HETATM    7  C8  UNL     1      26.583 -13.512  32.984  1.00  0.00     0.042 A
HETATM    8 BR1  UNL     1      26.682 -12.014  31.843  1.00  0.00    -0.049 Br
HETATM    9  C9  UNL     1      25.961 -14.677  32.497  1.00  0.00     0.072 A
HETATM   10 BR2  UNL     1      25.271 -14.630  30.709  1.00  0.00    -0.046 Br
ENDROOT
BRANCH   6  11
HETATM   11  C6  UNL     1      27.751 -12.273  34.785  1.00  0.00     0.164 C
BRANCH  11  12
HETATM   12  N3  UNL     1      26.890 -11.317  35.443  1.00  0.00    -0.363 N
HETATM   13  C7  UNL     1      26.971 -10.048  35.168  1.00  0.00     0.197 C
HETATM   14  N4  UNL     1      26.115  -9.155  35.831  1.00  0.00    -0.067 NA
HETATM   15  N5  UNL     1      27.903  -9.569  34.216  1.00  0.00    -0.067 NA
ATOM     16  H3  UNL     1      26.210 -11.642  36.131  1.00  0.00     0.162 HD
ENDBRANCH  11  12
ENDBRANCH   6  11
BRANCH   1  17
HETATM   17  N1  UNL     1      25.353 -16.848  32.980  1.00  0.00    -0.380 N
HETATM   18  C1  UNL     1      25.842 -18.037  32.435  1.00  0.00     0.147 C
ATOM     19  H1  UNL     1      24.346 -16.865  33.139  1.00  0.00     0.160 HD
ENDBRANCH   1  17
TORSDOF 3
ENDMDL