MODEL 4
REMARK VINA RESULT: -7.319207917      1.627      2.233
REMARK  8 active torsions:
REMARK  status: ('A' for Active; 'I' for Inactive)
REMARK    1  A    between atoms: C4_7  and  C5_8
REMARK    2  A    between atoms: C5_8  and  C6_9
REMARK    3  A    between atoms: C7_12  and  N3_13
REMARK    4  A    between atoms: N3_13  and  C8_15
REMARK    5  A    between atoms: C8_15  and  N4_17
REMARK    6  A    between atoms: N4_17  and  C9_18
REMARK    7  A    between atoms: N4_17  and  C11_23
REMARK    8  A    between atoms: C9_18  and  C10_19
ROOT
HETATM    1  C6  UNL     1      -4.186 -15.866  15.064  1.00  0.00     0.076 A
HETATM    2  N2  UNL     1      -2.901 -16.256  14.692  1.00  0.00    -0.189 N
ATOM      3  H2  UNL     1      -2.176 -16.554  15.344  1.00  0.00     0.184 HD
HETATM    4  C7  UNL     1      -2.750 -16.189  13.396  1.00  0.00     0.685 A
HETATM    5  N5  UNL     1      -3.857 -15.778  12.850  1.00  0.00    -0.190 N
ATOM      6  H5  UNL     1      -4.022 -15.633  11.854  1.00  0.00     0.184 HD
HETATM    7  C14 UNL     1      -4.775 -15.575  13.875  1.00  0.00     0.067 A
HETATM    8  C15 UNL     1      -6.034 -15.369  13.558  1.00  0.00     0.046 C
ENDROOT
BRANCH   4   9
HETATM    9  N3  UNL     1      -1.665 -16.482  12.720  1.00  0.00    -0.166 N
ATOM     10  H3  UNL     1      -0.804 -16.745  13.199  1.00  0.00     0.186 HD
BRANCH   9  11
HETATM   11  C8  UNL     1      -1.725 -16.423  11.264  1.00  0.00     0.189 C
HETATM   12  S1  UNL     1      -2.284 -17.774  10.540  1.00  0.00    -0.040 SA
BRANCH  11  13
HETATM   13  N4  UNL     1      -1.282 -15.253  10.646  1.00  0.00    -0.344 N
BRANCH  13  14
HETATM   14  C9  UNL     1       0.178 -15.081  10.544  1.00  0.00     0.243 C
BRANCH  14  15
HETATM   15  C10 UNL     1       0.802 -15.961   9.511  1.00  0.00     0.403 C
HETATM   16  F1  UNL     1       1.959 -15.291   9.087  1.00  0.00    -0.169 F
HETATM   17  F2  UNL     1       1.259 -17.139  10.084  1.00  0.00    -0.169 F
HETATM   18  F3  UNL     1      -0.003 -16.212   8.437  1.00  0.00    -0.169 F
ENDBRANCH  14  15
ENDBRANCH  13  14
BRANCH  13  19
HETATM   19  C11 UNL     1      -2.102 -14.216  10.130  1.00  0.00     0.087 A
HETATM   20  C12 UNL     1      -1.556 -13.191   9.198  1.00  0.00     0.027 A
HETATM   21  C13 UNL     1      -2.607 -14.123   8.710  1.00  0.00     0.027 A
ENDBRANCH  13  19
ENDBRANCH  11  13
ENDBRANCH   9  11
ENDBRANCH   4   9
BRANCH   1  22
HETATM   22  C5  UNL     1      -4.530 -15.983  16.304  1.00  0.00     0.051 C
BRANCH  22  23
HETATM   23  C4  UNL     1      -5.249 -15.334  17.337  1.00  0.00     0.056 A
HETATM   24  C3  UNL     1      -6.641 -15.343  17.707  1.00  0.00     0.259 A
HETATM   25  N1  UNL     1      -7.166 -14.860  18.942  1.00  0.00    -0.309 N
HETATM   26  O1  UNL     1      -7.496 -15.789  16.876  1.00  0.00    -0.267 OA
HETATM   27  C2  UNL     1      -6.254 -14.328  19.866  1.00  0.00     0.098 A
ATOM     28  H1  UNL     1      -8.165 -14.900  19.145  1.00  0.00     0.170 HD
HETATM   29  C1  UNL     1      -6.669 -13.869  21.017  1.00  0.00     0.063 C
HETATM   30  N6  UNL     1      -4.869 -14.286  19.546  1.00  0.00    -0.346 N
HETATM   31  C16 UNL     1      -4.411 -14.779  18.311  1.00  0.00     0.022 A
ATOM     32  H6  UNL     1      -4.205 -13.896  20.214  1.00  0.00     0.167 HD
HETATM   33  C17 UNL     1      -2.956 -14.715  18.043  1.00  0.00     0.069 C
ENDBRANCH  22  23
ENDBRANCH   1  22
TORSDOF 8
ENDMDL