MODEL 4
REMARK VINA RESULT: -5.674882591      3.888      6.332
REMARK  4 active torsions:
REMARK  status: ('A' for Active; 'I' for Inactive)
REMARK    1  A    between atoms: N4_12  and  C5_13
REMARK       I    between atoms: N5_16  and  C7_18
REMARK    2  A    between atoms: C7_18  and  C8_20
REMARK    3  A    between atoms: C8_20  and  O2_21
REMARK    4  A    between atoms: C8_20  and  C9_23
ROOT
HETATM    1  N1  UNL     1      -1.836 -19.856   7.806  1.00  0.00    -0.234 N
ATOM      2  H11 UNL     1      -1.341 -19.802   6.915  1.00  0.00     0.174 HD
ATOM      3  H12 UNL     1      -2.442 -20.675   7.761  1.00  0.00     0.174 HD
HETATM    4  C1  UNL     1      -1.712 -19.032   8.810  1.00  0.00     0.676 A
HETATM    5  N2  UNL     1      -2.362 -19.103   9.982  1.00  0.00    -0.193 N
ATOM      6  H2  UNL     1      -3.042 -19.822  10.229  1.00  0.00     0.184 HD
HETATM    7  C2  UNL     1      -1.993 -18.096  10.778  1.00  0.00     0.058 A
HETATM    8  C3  UNL     1      -1.068 -17.367  10.061  1.00  0.00     0.068 A
HETATM    9  N3  UNL     1      -0.918 -17.959   8.870  1.00  0.00    -0.192 N
ATOM     10  H3  UNL     1      -0.296 -17.642   8.126  1.00  0.00     0.184 HD
HETATM   11  C4  UNL     1      -0.497 -16.167  10.748  1.00  0.00     0.184 C
HETATM   12  N4  UNL     1      -1.635 -15.440  11.273  1.00  0.00    -0.355 N
HETATM   13  C6  UNL     1      -2.501 -16.192  12.154  1.00  0.00     0.088 C
HETATM   14  N5  UNL     1      -3.313 -15.507  12.853  1.00  0.00    -0.314 N
ATOM     15  H5  UNL     1      -3.271 -14.496  12.720  1.00  0.00     0.170 HD
HETATM   16  C7  UNL     1      -4.263 -15.965  13.787  1.00  0.00     0.252 C
HETATM   17  O1  UNL     1      -5.111 -16.816  13.410  1.00  0.00    -0.270 OA
HETATM   18  C10 UNL     1      -2.370 -17.670  12.168  1.00  0.00     0.136 C
ENDROOT
BRANCH  12  19
HETATM   19  C5  UNL     1      -1.880 -14.060  10.934  1.00  0.00     0.209 C
HETATM   20 BR1  UNL     1      -2.243 -13.820   9.050  1.00  0.00    -0.075 Br
ENDBRANCH  12  19
BRANCH  16  21
HETATM   21  C8  UNL     1      -4.307 -15.488  15.197  1.00  0.00     0.220 C
BRANCH  21  22
HETATM   22  O2  UNL     1      -3.086 -15.710  15.818  1.00  0.00    -0.385 OA
ATOM     23  H2  UNL     1      -3.209 -15.828  16.753  1.00  0.00     0.210 HD
ENDBRANCH  21  22
BRANCH  21  24
HETATM   24  C9  UNL     1      -5.462 -16.009  15.984  1.00  0.00     0.126 C
HETATM   25 BR2  UNL     1      -5.624 -15.281  17.746  1.00  0.00    -0.093 Br
ENDBRANCH  21  24
ENDBRANCH  16  21
TORSDOF 4
ENDMDL