MODEL 1
REMARK VINA RESULT: -7.095094875      0.000      0.000
REMARK  4 active torsions:
REMARK  status: ('A' for Active; 'I' for Inactive)
REMARK       I    between atoms: C1_4  and  N2_5
REMARK       I    between atoms: C1_4  and  N5_16
REMARK    1  A    between atoms: N2_5  and  C2_7
REMARK    2  A    between atoms: N5_16  and  C5_18
REMARK    3  A    between atoms: C5_18  and  C6_19
REMARK    4  A    between atoms: C6_19  and  N6_20
ROOT
HETATM    1  N1  UNL     1      -2.572 -16.237  14.050  1.00  0.00    -0.235 N
ATOM      2  H11 UNL     1      -2.845 -16.088  15.021  1.00  0.00     0.174 HD
ATOM      3  H12 UNL     1      -1.602 -16.318  13.742  1.00  0.00     0.174 HD
HETATM    4  C1  UNL     1      -3.509 -16.327  13.168  1.00  0.00     0.673 C
HETATM    5  N2  UNL     1      -3.129 -16.533  11.820  1.00  0.00    -0.174 N
ATOM      6  H2  UNL     1      -3.044 -17.490  11.476  1.00  0.00     0.186 HD
HETATM    7  N5  UNL     1      -4.853 -16.214  13.595  1.00  0.00    -0.225 N
ATOM      8  H5  UNL     1      -5.518 -16.953  13.369  1.00  0.00     0.177 HD
ENDROOT
BRANCH   5   9
HETATM    9  C2  UNL     1      -2.887 -15.556  11.006  1.00  0.00     0.155 A
HETATM   10  N3  UNL     1      -2.781 -14.253  11.336  1.00  0.00    -0.283 N
HETATM   11  N4  UNL     1      -2.529 -13.532  10.256  1.00  0.00    -0.291 N
ATOM     12  H3  UNL     1      -2.882 -13.879  12.279  1.00  0.00     0.188 HD
HETATM   13  C3  UNL     1      -2.456 -14.329   9.163  1.00  0.00     0.115 A
ATOM     14  H4  UNL     1      -2.406 -12.519  10.248  1.00  0.00     0.187 HD
HETATM   15 BR1  UNL     1      -2.114 -13.791   7.359  1.00  0.00    -0.028 Br
HETATM   16  C4  UNL     1      -2.683 -15.605   9.645  1.00  0.00     0.092 A
HETATM   17 BR2  UNL     1      -2.712 -17.182   8.599  1.00  0.00    -0.044 Br
ENDBRANCH   5   9
BRANCH   7  18
HETATM   18  C5  UNL     1      -5.291 -15.064  14.348  1.00  0.00     0.159 C
BRANCH  18  19
HETATM   19  C6  UNL     1      -5.971 -15.482  15.624  1.00  0.00     0.168 C
BRANCH  19  20
HETATM   20  N6  UNL     1      -5.040 -15.483  16.722  1.00  0.00    -0.264 N
HETATM   21  N7  UNL     1      -3.672 -15.208  16.597  1.00  0.00    -0.136 NA
HETATM   22  C7  UNL     1      -3.177 -15.038  17.937  1.00  0.00     0.144 C
HETATM   23  C8  UNL     1      -4.111 -15.825  18.839  1.00  0.00     0.122 C
HETATM   24  C9  UNL     1      -5.383 -15.760  18.071  1.00  0.00     0.236 C
HETATM   25  O1  UNL     1      -6.563 -15.914  18.489  1.00  0.00    -0.272 OA
ENDBRANCH  19  20
ENDBRANCH  18  19
ENDBRANCH   7  18
TORSDOF 4
ENDMDL