MODEL 2
REMARK VINA RESULT: -5.920804378      2.919      3.537
REMARK  5 active torsions:
REMARK  status: ('A' for Active; 'I' for Inactive)
REMARK    1  A    between atoms: C1_4  and  N2_5
REMARK    2  A    between atoms: C1_4  and  O2_21
REMARK       I    between atoms: C2_7  and  N4_9
REMARK    3  A    between atoms: O2_21  and  C6_22
REMARK    4  A    between atoms: C6_22  and  C7_23
REMARK    5  A    between atoms: C6_22  and  C8_25
ROOT
HETATM    1  N2  UNL     1      -1.904 -15.328  11.749  1.00  0.00    -0.296 N
ATOM      2  H2  UNL     1      -1.675 -14.475  12.260  1.00  0.00     0.172 HD
HETATM    3  C2  UNL     1      -2.261 -16.387  12.380  1.00  0.00     0.209 C
HETATM    4  N3  UNL     1      -2.577 -17.563  11.668  1.00  0.00    -0.062 NA
HETATM    5  N4  UNL     1      -2.314 -16.295  13.797  1.00  0.00    -0.163 N
ATOM      6  H4  UNL     1      -1.482 -16.474  14.359  1.00  0.00     0.187 HD
HETATM    7  C3  UNL     1      -3.418 -15.985  14.352  1.00  0.00     0.685 C
HETATM    8  N5  UNL     1      -4.565 -15.739  13.573  1.00  0.00    -0.210 N
ATOM      9  H5  UNL     1      -4.561 -16.017  12.592  1.00  0.00     0.179 HD
HETATM   10  C4  UNL     1      -5.749 -15.106  14.115  1.00  0.00     0.266 C
HETATM   11  N6  UNL     1      -5.830 -15.309  15.548  1.00  0.00    -0.326 N
ATOM     12  H6  UNL     1      -6.749 -15.277  15.989  1.00  0.00     0.165 HD
HETATM   13  C5  UNL     1      -4.706 -15.548  16.364  1.00  0.00     0.335 C
HETATM   14  O1  UNL     1      -4.738 -15.470  17.636  1.00  0.00    -0.246 OA
HETATM   15  N7  UNL     1      -3.476 -15.893  15.763  1.00  0.00    -0.141 N
ATOM     16  H7  UNL     1      -2.649 -16.071  16.332  1.00  0.00     0.189 HD
ENDROOT
BRANCH   1  17
HETATM   17  C1  UNL     1      -1.833 -15.356  10.328  1.00  0.00     0.219 C
HETATM   18  N1  UNL     1      -2.838 -14.993   9.629  1.00  0.00    -0.365 N
ATOM     19  H12 UNL     1      -3.639 -14.699  10.189  1.00  0.00     0.159 HD
ATOM     20  H11 UNL     1      -2.787 -15.014   8.610  1.00  0.00     0.159 HD
BRANCH  17  21
HETATM   21  O2  UNL     1      -0.764 -15.748   9.579  1.00  0.00    -0.315 OA
BRANCH  21  22
HETATM   22  C6  UNL     1       0.557 -15.614   9.952  1.00  0.00     0.151 C
BRANCH  22  23
HETATM   23  C7  UNL     1       1.489 -15.025   8.939  1.00  0.00     0.118 C
HETATM   24 BR1  UNL     1       2.625 -16.212   8.000  1.00  0.00    -0.094 Br
ENDBRANCH  22  23
BRANCH  22  25
HETATM   25  C8  UNL     1       1.144 -16.771  10.709  1.00  0.00     0.118 C
HETATM   26 BR2  UNL     1       2.432 -16.098  12.019  1.00  0.00    -0.094 Br
ENDBRANCH  22  25
ENDBRANCH  21  22
ENDBRANCH  17  21
ENDBRANCH   1  17
TORSDOF 5
ENDMDL