MODEL 3
REMARK VINA RESULT: -6.010631022      3.409      8.023
REMARK  4 active torsions:
REMARK  status: ('A' for Active; 'I' for Inactive)
REMARK       I    between atoms: C2_4  and  N2_5
REMARK       I    between atoms: C2_4  and  N7_21
REMARK    1  A    between atoms: C3_7  and  N3_9
REMARK    2  A    between atoms: N7_21  and  C7_23
REMARK    3  A    between atoms: C7_23  and  C8_24
REMARK    4  A    between atoms: C8_24  and  C9_25
ROOT
HETATM    1  C1  UNL     1      -2.389 -14.147  10.268  1.00  0.00     0.165 C
HETATM    2  N1  UNL     1      -2.755 -14.872  11.448  1.00  0.00    -0.231 N
ATOM      3  H1  UNL     1      -3.734 -14.841  11.731  1.00  0.00     0.177 HD
HETATM    4  C2  UNL     1      -1.952 -15.557  12.177  1.00  0.00     0.676 C
HETATM    5  N2  UNL     1      -0.589 -15.627  11.822  1.00  0.00    -0.150 N
ATOM      6  H2  UNL     1      -0.047 -14.771  11.705  1.00  0.00     0.188 HD
HETATM    7  C3  UNL     1      -0.033 -16.771  11.646  1.00  0.00     0.297 C
HETATM    8  F1  UNL     1      -0.789 -17.883  11.810  1.00  0.00    -0.163 F
HETATM    9  N7  UNL     1      -2.444 -16.225  13.319  1.00  0.00    -0.226 N
ATOM     10  H7  UNL     1      -1.829 -16.859  13.826  1.00  0.00     0.177 HD
ENDROOT
BRANCH   7  11
HETATM   11  N3  UNL     1       1.343 -16.901  11.292  1.00  0.00    -0.235 N
HETATM   12  C4  UNL     1       2.107 -15.844  10.653  1.00  0.00     0.191 C
HETATM   13  C5  UNL     1       2.677 -16.449   9.359  1.00  0.00     0.191 C
HETATM   14 BR1  UNL     1       3.490 -15.117   8.248  1.00  0.00    -0.066 Br
HETATM   15  N4  UNL     1       3.606 -17.481   9.769  1.00  0.00    -0.210 N
HETATM   16  C6  UNL     1       3.200 -18.397  10.776  1.00  0.00     0.687 C
ATOM     17  H4  UNL     1       4.531 -17.549   9.345  1.00  0.00     0.179 HD
HETATM   18  N5  UNL     1       3.860 -19.505  11.006  1.00  0.00    -0.234 N
HETATM   19  N6  UNL     1       2.038 -18.086  11.547  1.00  0.00    -0.127 N
ATOM     20  H52 UNL     1       4.690 -19.727  10.455  1.00  0.00     0.174 HD
ATOM     21  H51 UNL     1       3.569 -20.163  11.729  1.00  0.00     0.174 HD
ATOM     22  H6  UNL     1       1.719 -18.723  12.277  1.00  0.00     0.206 HD
ENDBRANCH   7  11
BRANCH   9  23
HETATM   23  C7  UNL     1      -3.802 -16.032  13.789  1.00  0.00     0.139 C
BRANCH  23  24
HETATM   24  C8  UNL     1      -3.870 -15.830  15.287  1.00  0.00     0.031 C
BRANCH  24  25
HETATM   25  C9  UNL     1      -5.348 -15.669  15.623  1.00  0.00     0.086 C
HETATM   26 BR2  UNL     1      -5.584 -15.351  17.525  1.00  0.00    -0.096 Br
ENDBRANCH  24  25
ENDBRANCH  23  24
ENDBRANCH   9  23
TORSDOF 4
ENDMDL