MODEL 4
REMARK VINA RESULT: -5.278783387      2.136      2.415
REMARK  7 active torsions:
REMARK  status: ('A' for Active; 'I' for Inactive)
REMARK    1  A    between atoms: N2_4  and  C1_6
REMARK    2  A    between atoms: C3_8  and  C4_9
REMARK    3  A    between atoms: C6_13  and  N3_14
REMARK    4  A    between atoms: C7_18  and  C8_19
REMARK    5  A    between atoms: C8_19  and  O1_20
REMARK    6  A    between atoms: C8_19  and  C9_22
REMARK    7  A    between atoms: C9_22  and  O2_23
ROOT
HETATM    1  C1  UNL     1      -2.170 -15.088  10.869  1.00  0.00     0.108 C
HETATM    2  C2  UNL     1      -3.102 -16.192  10.429  1.00  0.00     0.034 C
HETATM    3  C3  UNL     1      -2.671 -16.590   9.057  1.00  0.00     0.020 C
HETATM    4  C5  UNL     1      -1.213 -16.295   9.044  1.00  0.00     0.063 C
HETATM    5 BR2  UNL     1      -0.463 -16.208   7.285  1.00  0.00    -0.082 Br
HETATM    6  C6  UNL     1      -0.416 -17.194   9.968  1.00  0.00     0.235 C
HETATM    7  C7  UNL     1       0.600 -16.278  10.544  1.00  0.00    -0.021 C
HETATM    8  C10 UNL     1       0.192 -15.030  10.432  1.00  0.00    -0.011 C
HETATM    9  C11 UNL     1      -1.122 -14.992   9.780  1.00  0.00     0.055 C
ENDROOT
BRANCH   7  10
HETATM   10  C8  UNL     1       1.908 -16.636  11.170  1.00  0.00     0.172 C
BRANCH  10  11
HETATM   11  O1  UNL     1       2.688 -17.430  10.338  1.00  0.00    -0.389 OA
ATOM     12  H1  UNL     1       2.484 -18.353  10.428  1.00  0.00     0.210 HD
ENDBRANCH  10  11
BRANCH  10  13
HETATM   13  C9  UNL     1       2.686 -15.439  11.599  1.00  0.00     0.200 C
BRANCH  13  14
HETATM   14  O2  UNL     1       2.505 -15.254  12.965  1.00  0.00    -0.398 OA
ATOM     15  H2  UNL     1       1.573 -15.247  13.152  1.00  0.00     0.209 HD
ENDBRANCH  13  14
ENDBRANCH  10  13
ENDBRANCH   7  10
BRANCH   6  16
HETATM   16  N3  UNL     1       0.265 -18.175   9.156  1.00  0.00    -0.070 N
ATOM     17  H33 UNL     1       0.068 -18.069   8.160  1.00  0.00     0.275 HD
ATOM     18  H32 UNL     1       1.272 -18.021   9.113  1.00  0.00     0.275 HD
ATOM     19  H31 UNL     1       0.022 -19.100   9.510  1.00  0.00     0.275 HD
ENDBRANCH   6  16
BRANCH   3  20
HETATM   20  C4  UNL     1      -3.000 -18.047   8.836  1.00  0.00     0.091 C
HETATM   21 BR1  UNL     1      -4.545 -18.077   7.641  1.00  0.00    -0.096 Br
ENDBRANCH   3  20
BRANCH   1  22
HETATM   22  N2  UNL     1      -2.847 -13.842  10.959  1.00  0.00    -0.337 N
HETATM   23  N1  UNL     1      -2.801 -13.066  10.004  1.00  0.00    -0.349 N
ATOM     24  H12 UNL     1      -2.280 -13.329   9.168  1.00  0.00     0.176 HD
ATOM     25  H11 UNL     1      -3.287 -12.172  10.069  1.00  0.00     0.176 HD
ATOM     26  H2  UNL     1      -3.364 -13.593  11.803  1.00  0.00     0.180 HD
ENDBRANCH   1  22
TORSDOF 7
ENDMDL