MODEL 3
REMARK VINA RESULT: -4.515619757      2.186      2.706
REMARK  3 active torsions:
REMARK  status: ('A' for Active; 'I' for Inactive)
REMARK       I    between atoms: C1_4  and  N3_6
REMARK    1  A    between atoms: C8_15  and  C9_16
REMARK    2  A    between atoms: C8_15  and  C10_18
REMARK    3  A    between atoms: C11_20  and  O1_21
ROOT
HETATM    1  N1  UNL     1      -1.653 -16.838  13.104  1.00  0.00    -0.374 N
ATOM      2  H11 UNL     1      -0.638 -16.831  13.199  1.00  0.00     0.158 HD
ATOM      3  H12 UNL     1      -2.258 -17.378  13.722  1.00  0.00     0.158 HD
HETATM    4  C1  UNL     1      -2.209 -16.153  12.181  1.00  0.00     0.186 C
HETATM    5  N2  UNL     1      -3.624 -16.162  12.048  1.00  0.00    -0.064 NA
HETATM    6  N3  UNL     1      -1.368 -15.403  11.322  1.00  0.00    -0.327 N
HETATM    7  C2  UNL     1      -1.758 -14.132  10.810  1.00  0.00     0.158 C
HETATM    8  C3  UNL     1      -2.272 -14.098   9.422  1.00  0.00     0.280 C
HETATM    9  N4  UNL     1      -2.132 -15.215   8.609  1.00  0.00     0.013 N
HETATM   10  C4  UNL     1      -1.870 -14.780   7.225  1.00  0.00     0.262 C
HETATM   11  C5  UNL     1      -3.174 -14.051   6.886  1.00  0.00     0.048 C
HETATM   12  C6  UNL     1      -4.176 -14.859   7.632  1.00  0.00     0.144 C
HETATM   13  N5  UNL     1      -3.422 -15.802   8.380  1.00  0.00    -0.047 NA
HETATM   14  C7  UNL     1      -1.339 -16.300   8.974  1.00  0.00     0.275 C
HETATM   15  C8  UNL     1       0.023 -16.124   9.534  1.00  0.00     0.048 C
HETATM   16  C11 UNL     1      -0.098 -16.060  11.041  1.00  0.00     0.234 C
ENDROOT
BRANCH  16  17
HETATM   17  O1  UNL     1       0.874 -15.239  11.607  1.00  0.00    -0.376 OA
ATOM     18  H1  UNL     1       1.572 -15.198  10.965  1.00  0.00     0.212 HD
ENDBRANCH  16  17
BRANCH  15  19
HETATM   19  C9  UNL     1       0.792 -17.430   9.257  1.00  0.00     0.101 C
HETATM   20 BR1  UNL     1      -0.122 -18.422   7.891  1.00  0.00    -0.095 Br
ENDBRANCH  15  19
BRANCH  15  21
HETATM   21  C10 UNL     1       0.837 -15.050   8.926  1.00  0.00     0.101 C
HETATM   22 BR2  UNL     1       2.610 -15.718   8.540  1.00  0.00    -0.095 Br
ENDBRANCH  15  21
TORSDOF 3
ENDMDL