MODEL 5
REMARK VINA RESULT: -5.905744803      1.808      1.962
REMARK  5 active torsions:
REMARK  status: ('A' for Active; 'I' for Inactive)
REMARK    1  A    between atoms: N1_4  and  C4_5
REMARK    2  A    between atoms: C4_5  and  N2_7
REMARK    3  A    between atoms: N2_7  and  C5_9
REMARK    4  A    between atoms: C5_9  and  C6_10
REMARK    5  A    between atoms: C6_10  and  C7_11
ROOT
HETATM    1  C1  UNL     1      -3.145 -18.650   8.180  1.00  0.00     0.012 C
HETATM    2  C2  UNL     1      -3.328 -17.169   8.549  1.00  0.00     0.016 C
HETATM    3  C3  UNL     1      -3.195 -16.335   7.356  1.00  0.00     0.131 C
HETATM    4  N1  UNL     1      -2.119 -15.400   7.325  1.00  0.00    -0.349 N
HETATM    5  C8  UNL     1      -1.560 -14.958   8.567  1.00  0.00     0.136 C
HETATM    6  C9  UNL     1      -2.585 -14.219   9.419  1.00  0.00     0.260 C
HETATM    7  N3  UNL     1      -2.681 -14.773  10.756  1.00  0.00    -0.067 N
ATOM      8  H31 UNL     1      -3.250 -14.187  11.367  1.00  0.00     0.277 HD
ATOM      9  H32 UNL     1      -1.796 -14.705  11.256  1.00  0.00     0.277 HD
HETATM   10  C10 UNL     1      -3.168 -16.133  10.718  1.00  0.00     0.209 C
HETATM   11  C11 UNL     1      -2.993 -16.900  11.971  1.00  0.00     0.058 C
HETATM   12  C12 UNL     1      -2.343 -18.171  11.626  1.00  0.00    -0.021 C
HETATM   13  C13 UNL     1      -2.011 -18.187  10.377  1.00  0.00    -0.016 C
HETATM   14  C14 UNL     1      -2.399 -16.919   9.716  1.00  0.00     0.034 C
HETATM   15  C15 UNL     1      -1.144 -16.275   9.243  1.00  0.00     0.140 C
HETATM   16  N4  UNL     1      -0.130 -16.067  10.220  1.00  0.00    -0.215 N
HETATM   17  C16 UNL     1       1.097 -15.637   9.551  1.00  0.00     0.169 C
HETATM   18  C17 UNL     1       0.115 -16.125  11.614  1.00  0.00     0.669 C
HETATM   19  N5  UNL     1       1.339 -16.021  11.969  1.00  0.00    -0.235 N
ATOM     20  H51 UNL     1       1.515 -16.062  12.972  1.00  0.00     0.174 HD
ATOM     21  H52 UNL     1       1.956 -15.913  11.163  1.00  0.00     0.174 HD
HETATM   22  N6  UNL     1      -0.740 -16.275  12.730  1.00  0.00    -0.226 N
ATOM     23  H6  UNL     1      -0.250 -16.572  13.573  1.00  0.00     0.177 HD
HETATM   24  C18 UNL     1      -2.156 -16.097  12.930  1.00  0.00     0.148 C
ENDROOT
BRANCH   4  25
HETATM   25  C4  UNL     1      -1.620 -14.923   6.103  1.00  0.00     0.170 C
HETATM   26  S1  UNL     1      -0.169 -15.548   5.556  1.00  0.00    -0.041 SA
BRANCH  25  27
HETATM   27  N2  UNL     1      -2.207 -13.956   5.279  1.00  0.00    -0.367 N
ATOM     28  H2  UNL     1      -2.296 -14.162   4.284  1.00  0.00     0.161 HD
BRANCH  27  29
HETATM   29  C5  UNL     1      -2.687 -12.697   5.752  1.00  0.00     0.127 C
BRANCH  29  30
HETATM   30  C6  UNL     1      -4.129 -12.656   6.145  1.00  0.00     0.090 C
BRANCH  30  31
HETATM   31  C7  UNL     1      -4.988 -13.553   5.276  1.00  0.00     0.354 C
HETATM   32  F1  UNL     1      -5.918 -12.840   4.567  1.00  0.00    -0.214 F
HETATM   33  F2  UNL     1      -5.601 -14.469   6.101  1.00  0.00    -0.214 F
ENDBRANCH  30  31
ENDBRANCH  29  30
ENDBRANCH  27  29
ENDBRANCH  25  27
ENDBRANCH   4  25
TORSDOF 5
ENDMDL