MODEL 3
REMARK VINA RESULT: -6.352594207      2.876      4.728
REMARK  5 active torsions:
REMARK  status: ('A' for Active; 'I' for Inactive)
REMARK    1  A    between atoms: C3_3  and  N1_4
REMARK    2  A    between atoms: N1_4  and  C4_6
REMARK    3  A    between atoms: C5_9  and  C6_10
REMARK    4  A    between atoms: C6_10  and  N3_11
REMARK    5  A    between atoms: C11_21  and  N6_22
ROOT
HETATM    1  C1  UNL     1      -4.226 -15.576  16.850  1.00  0.00     0.014 C
HETATM    2  C2  UNL     1      -4.243 -15.767  15.656  1.00  0.00    -0.097 C
HETATM    3  C3  UNL     1      -4.240 -16.009  14.197  1.00  0.00     0.231 C
ENDROOT
BRANCH   3   4
HETATM    4  N1  UNL     1      -2.902 -16.125  13.691  1.00  0.00    -0.215 N
ATOM      5  H1  UNL     1      -2.158 -16.335  14.356  1.00  0.00     0.178 HD
BRANCH   4   6
HETATM    6  C4  UNL     1      -2.585 -15.984  12.463  1.00  0.00     0.694 A
HETATM    7  N2  UNL     1      -1.337 -15.577  12.107  1.00  0.00    -0.178 N
HETATM    8  C5  UNL     1      -0.988 -15.422  10.794  1.00  0.00     0.135 A
ATOM      9  H2  UNL     1      -0.648 -15.383  12.833  1.00  0.00     0.185 HD
HETATM   10  N5  UNL     1      -1.913 -15.685   9.880  1.00  0.00    -0.174 N
HETATM   11  C10 UNL     1      -1.655 -15.591   8.486  1.00  0.00     0.177 C
HETATM   12  C11 UNL     1      -3.171 -16.095  10.232  1.00  0.00     0.693 A
HETATM   13  N7  UNL     1      -3.507 -16.245  11.522  1.00  0.00    -0.022 N
ATOM     14  H7  UNL     1      -4.445 -16.550  11.783  1.00  0.00     0.203 HD
BRANCH   8  15
HETATM   15  C6  UNL     1       0.371 -15.008  10.436  1.00  0.00     0.227 C
BRANCH  15  16
HETATM   16  N3  UNL     1       1.419 -15.874  10.878  1.00  0.00    -0.277 N
HETATM   17  N4  UNL     1       2.123 -15.678  12.012  1.00  0.00    -0.307 N
HETATM   18  C7  UNL     1       3.044 -16.628  12.174  1.00  0.00     0.129 A
ATOM     19  H4  UNL     1       1.971 -14.905  12.659  1.00  0.00     0.186 HD
HETATM   20  C8  UNL     1       2.928 -17.474  11.102  1.00  0.00     0.063 A
HETATM   21 BR1  UNL     1       3.934 -19.043  10.700  1.00  0.00    -0.046 Br
HETATM   22  C9  UNL     1       1.904 -16.968  10.318  1.00  0.00     0.116 A
HETATM   23 BR2  UNL     1       1.321 -17.778   8.702  1.00  0.00    -0.028 Br
ENDBRANCH  15  16
ENDBRANCH   8  15
BRANCH  12  24
HETATM   24  N6  UNL     1      -4.050 -16.343   9.325  1.00  0.00    -0.234 N
ATOM     25  H62 UNL     1      -3.886 -16.016   8.373  1.00  0.00     0.174 HD
ATOM     26  H61 UNL     1      -4.898 -16.860   9.558  1.00  0.00     0.174 HD
ENDBRANCH  12  24
ENDBRANCH   4   6
ENDBRANCH   3   4
TORSDOF 5
ENDMDL