MODEL 2
REMARK VINA RESULT: -6.127346445      1.580      1.805
REMARK  3 active torsions:
REMARK  status: ('A' for Active; 'I' for Inactive)
REMARK       I    between atoms: C1_2  and  N3_7
REMARK    1  A    between atoms: N2_3  and  C2_5
REMARK    2  A    between atoms: N3_7  and  C3_9
REMARK    3  A    between atoms: C3_9  and  C4_10
ROOT
HETATM    1  C4  UNL     1      -2.266 -16.471  11.785  1.00  0.00     0.075 C
HETATM    2 BR2  UNL     1      -2.146 -18.249  12.447  1.00  0.00    -0.081 Br
HETATM    3  C5  UNL     1      -3.071 -16.378  10.495  1.00  0.00     0.168 C
HETATM    4  N4  UNL     1      -2.309 -15.358   9.750  1.00  0.00    -0.034 NA
HETATM    5  N5  UNL     1      -0.982 -15.865   9.880  1.00  0.00     0.068 N
HETATM    6  C6  UNL     1      -0.062 -14.863   9.412  1.00  0.00     0.230 C
HETATM    7  C7  UNL     1       1.131 -15.228   8.985  1.00  0.00     0.020 C
HETATM    8  C8  UNL     1       1.490 -16.662   8.999  1.00  0.00     0.149 C
HETATM    9  N6  UNL     1       0.349 -17.393   8.532  1.00  0.00    -0.375 N
ATOM     10  H6  UNL     1       0.426 -18.103   7.804  1.00  0.00     0.160 HD
HETATM   11  C9  UNL     1      -0.898 -17.073   9.141  1.00  0.00     0.318 C
HETATM   12  C10 UNL     1      -0.907 -15.997  11.309  1.00  0.00     0.297 C
ENDROOT
BRANCH   1  13
HETATM   13  C3  UNL     1      -2.880 -15.575  12.793  1.00  0.00     0.146 C
BRANCH  13  14
HETATM   14  N3  UNL     1      -3.097 -16.272  14.034  1.00  0.00    -0.363 N
HETATM   15  C1  UNL     1      -3.904 -15.851  15.109  1.00  0.00     0.184 C
HETATM   16  N1  UNL     1      -5.296 -15.667  14.906  1.00  0.00    -0.064 NA
HETATM   17  N2  UNL     1      -3.440 -15.638  16.294  1.00  0.00    -0.355 N
ATOM     18  H2  UNL     1      -2.441 -15.768  16.453  1.00  0.00     0.162 HD
ATOM     19  H3  UNL     1      -2.615 -17.163  14.147  1.00  0.00     0.162 HD
BRANCH  17  20
HETATM   20  C2  UNL     1      -4.258 -15.228  17.397  1.00  0.00     0.207 C
HETATM   21 BR1  UNL     1      -4.309 -16.728  18.640  1.00  0.00    -0.075 Br
ENDBRANCH  17  20
ENDBRANCH  13  14
ENDBRANCH   1  13
TORSDOF 3
ENDMDL