MODEL 5
REMARK VINA RESULT: -4.753091493      2.919      4.782
REMARK  6 active torsions:
REMARK  status: ('A' for Active; 'I' for Inactive)
REMARK    1  A    between atoms: N1_2  and  C3_4
REMARK    2  A    between atoms: C4_5  and  N2_6
REMARK    3  A    between atoms: N2_6  and  C5_8
REMARK    4  A    between atoms: C5_8  and  C6_10
REMARK    5  A    between atoms: C5_8  and  C7_13
REMARK    6  A    between atoms: C6_10  and  O1_11
ROOT
HETATM    1  C3  UNL     1      20.882 -22.715  28.412  1.00  0.00     0.107 A
HETATM    2  C4  UNL     1      20.952 -23.133  29.730  1.00  0.00     0.146 A
HETATM    3  N3  UNL     1      19.998 -23.979  30.152  1.00  0.00    -0.282 N
ATOM      4  H3  UNL     1      20.049 -24.288  31.123  1.00  0.00     0.188 HD
HETATM    5  N4  UNL     1      19.008 -24.441  29.430  1.00  0.00    -0.281 N
ATOM      6  H4  UNL     1      18.331 -25.081  29.844  1.00  0.00     0.188 HD
HETATM    7  C8  UNL     1      18.884 -24.075  28.147  1.00  0.00     0.166 A
HETATM    8  N5  UNL     1      18.240 -24.120  26.958  1.00  0.00    -0.282 N
ATOM      9  H5  UNL     1      17.412 -24.593  26.594  1.00  0.00     0.188 HD
HETATM   10  N6  UNL     1      19.131 -23.300  26.478  1.00  0.00    -0.293 N
ATOM     11  H6  UNL     1      19.264 -22.876  25.560  1.00  0.00     0.187 HD
HETATM   12  C9  UNL     1      19.813 -23.216  27.635  1.00  0.00     0.125 A
ENDROOT
BRANCH   2  13
HETATM   13  N2  UNL     1      21.896 -22.713  30.463  1.00  0.00    -0.352 N
ATOM     14  H2  UNL     1      21.838 -21.721  30.697  1.00  0.00     0.163 HD
BRANCH  13  15
HETATM   15  C5  UNL     1      23.015 -23.379  31.012  1.00  0.00     0.120 C
HETATM   16 BR1  UNL     1      24.469 -22.166  31.505  1.00  0.00    -0.059 Br
BRANCH  15  17
HETATM   17  C6  UNL     1      22.578 -23.979  32.364  1.00  0.00     0.208 C
BRANCH  17  18
HETATM   18  O1  UNL     1      22.088 -25.254  32.248  1.00  0.00    -0.398 OA
ATOM     19  H1  UNL     1      21.460 -25.471  32.926  1.00  0.00     0.209 HD
ENDBRANCH  17  18
ENDBRANCH  15  17
BRANCH  15  20
HETATM   20  C7  UNL     1      23.524 -24.561  30.232  1.00  0.00     0.130 C
HETATM   21 BR2  UNL     1      25.470 -24.513  30.290  1.00  0.00    -0.093 Br
ENDBRANCH  15  20
ENDBRANCH  13  15
ENDBRANCH   2  13
BRANCH   1  22
HETATM   22  N1  UNL     1      21.679 -21.916  27.827  1.00  0.00    -0.385 N
HETATM   23  C1  UNL     1      21.370 -20.502  27.784  1.00  0.00     0.149 C
HETATM   24  C2  UNL     1      22.894 -22.325  27.192  1.00  0.00     0.149 C
ENDBRANCH   1  22
TORSDOF 6
ENDMDL