MODEL 3
REMARK VINA RESULT: -6.153051701      1.374      2.231
REMARK  3 active torsions:
REMARK  status: ('A' for Active; 'I' for Inactive)
REMARK    1  A    between atoms: C4_10  and  C5_11
REMARK    2  A    between atoms: N3_13  and  C7_14
REMARK    3  A    between atoms: C8_16  and  C9_17
ROOT
HETATM    1  N1  UNL     1      25.336 -15.253  45.407  1.00  0.00    -0.234 N
ATOM      2  H11 UNL     1      26.021 -15.741  45.984  1.00  0.00     0.174 HD
ATOM      3  H12 UNL     1      24.547 -14.810  45.876  1.00  0.00     0.174 HD
HETATM    4  C1  UNL     1      25.454 -15.186  44.106  1.00  0.00     0.681 A
HETATM    5  N2  UNL     1      24.504 -14.508  43.305  1.00  0.00    -0.155 N
ATOM      6  H2  UNL     1      23.706 -14.056  43.749  1.00  0.00     0.187 HD
HETATM    7  C2  UNL     1      24.644 -14.448  41.897  1.00  0.00     0.275 A
HETATM    8  O1  UNL     1      23.776 -13.831  41.193  1.00  0.00    -0.267 OA
HETATM    9  C3  UNL     1      25.773 -15.075  41.168  1.00  0.00     0.103 A
HETATM   10  C4  UNL     1      25.824 -14.933  39.875  1.00  0.00     0.053 C
HETATM   11  C10 UNL     1      26.725 -15.758  42.014  1.00  0.00     0.275 A
HETATM   12  O2  UNL     1      27.718 -16.318  41.500  1.00  0.00    -0.267 OA
HETATM   13  N5  UNL     1      26.549 -15.800  43.455  1.00  0.00    -0.155 N
ATOM     14  H5  UNL     1      27.242 -16.292  44.020  1.00  0.00     0.187 HD
ENDROOT
BRANCH  10  15
HETATM   15  C5  UNL     1      26.784 -15.431  38.913  1.00  0.00     0.050 A
HETATM   16  C6  UNL     1      26.667 -16.416  37.960  1.00  0.00     0.122 A
HETATM   17  N3  UNL     1      27.824 -16.560  37.294  1.00  0.00    -0.334 N
HETATM   18  C8  UNL     1      28.702 -15.682  37.795  1.00  0.00     0.094 A
HETATM   19  N4  UNL     1      28.082 -15.000  38.771  1.00  0.00    -0.344 N
ATOM     20  H4  UNL     1      28.513 -14.263  39.329  1.00  0.00     0.167 HD
BRANCH  17  21
HETATM   21  C7  UNL     1      28.072 -17.498  36.224  1.00  0.00     0.214 C
HETATM   22 BR1  UNL     1      27.612 -16.689  34.504  1.00  0.00    -0.074 Br
ENDBRANCH  17  21
BRANCH  18  23
HETATM   23  C9  UNL     1      30.131 -15.477  37.359  1.00  0.00     0.161 C
HETATM   24 BR2  UNL     1      30.167 -14.278  35.849  1.00  0.00    -0.088 Br
ENDBRANCH  18  23
ENDBRANCH  10  15
TORSDOF 3
ENDMDL