MODEL 3
REMARK VINA RESULT: -6.987430898      1.955      2.109
REMARK  6 active torsions:
REMARK  status: ('A' for Active; 'I' for Inactive)
REMARK    1  A    between atoms: C2_2  and  N1_3
REMARK    2  A    between atoms: C2_2  and  N2_7
REMARK    3  A    between atoms: N2_7  and  C3_10
REMARK    4  A    between atoms: C3_10  and  C5_12
REMARK       I    between atoms: C5_12  and  N3_14
REMARK    5  A    between atoms: C6_16  and  N4_17
REMARK    6  A    between atoms: N4_17  and  C7_19
ROOT
HETATM    1  C5  UNL     1      27.573 -15.599  42.398  1.00  0.00     0.253 C
HETATM    2  O1  UNL     1      28.131 -16.662  42.740  1.00  0.00    -0.271 OA
HETATM    3  N3  UNL     1      27.639 -15.142  41.064  1.00  0.00    -0.321 N
ATOM      4  H3  UNL     1      28.418 -14.551  40.774  1.00  0.00     0.169 HD
HETATM    5  C6  UNL     1      26.741 -15.456  40.216  1.00  0.00     0.200 C
ENDROOT
BRANCH   1   6
HETATM    6  C3  UNL     1      26.795 -14.723  43.344  1.00  0.00     0.275 C
HETATM    7  C4  UNL     1      27.756 -13.679  43.850  1.00  0.00     0.050 C
BRANCH   6   8
HETATM    8  N2  UNL     1      26.201 -15.468  44.416  1.00  0.00    -0.034 N
ATOM      9  H22 UNL     1      26.779 -15.463  45.256  1.00  0.00     0.280 HD
ATOM     10  H21 UNL     1      26.208 -16.472  44.241  1.00  0.00     0.280 HD
BRANCH   8  11
HETATM   11  C2  UNL     1      24.877 -14.967  44.662  1.00  0.00     0.377 C
HETATM   12  C1  UNL     1      24.876 -13.666  45.419  1.00  0.00     0.071 C
BRANCH  11  13
HETATM   13  N1  UNL     1      24.101 -14.785  43.448  1.00  0.00    -0.051 N
ATOM     14  H13 UNL     1      23.544 -13.931  43.461  1.00  0.00     0.276 HD
ATOM     15  H12 UNL     1      24.681 -14.558  42.640  1.00  0.00     0.276 HD
ATOM     16  H11 UNL     1      23.535 -15.621  43.304  1.00  0.00     0.276 HD
ENDBRANCH  11  13
ENDBRANCH   8  11
ENDBRANCH   6   8
ENDBRANCH   1   6
BRANCH   5  17
HETATM   17  N4  UNL     1      26.822 -14.989  38.883  1.00  0.00    -0.188 N
ATOM     18  H4  UNL     1      26.188 -14.246  38.589  1.00  0.00     0.185 HD
BRANCH  17  19
HETATM   19  C7  UNL     1      27.658 -15.459  38.025  1.00  0.00     0.685 A
HETATM   20  N5  UNL     1      28.979 -15.224  37.979  1.00  0.00    -0.182 N
HETATM   21  C8  UNL     1      29.494 -15.894  36.936  1.00  0.00     0.130 A
ATOM     22  H5  UNL     1      29.502 -14.634  38.626  1.00  0.00     0.185 HD
HETATM   23 BR1  UNL     1      31.315 -15.919  36.409  1.00  0.00    -0.028 Br
HETATM   24  C9  UNL     1      28.470 -16.570  36.307  1.00  0.00     0.130 A
HETATM   25 BR2  UNL     1      28.615 -17.683  34.773  1.00  0.00    -0.028 Br
HETATM   26  N6  UNL     1      27.365 -16.275  37.007  1.00  0.00    -0.182 N
ATOM     27  H6  UNL     1      26.431 -16.625  36.793  1.00  0.00     0.185 HD
ENDBRANCH  17  19
ENDBRANCH   5  17
TORSDOF 6
ENDMDL