MODEL 2
REMARK VINA RESULT: -5.927474264      2.626      6.623
REMARK  6 active torsions:
REMARK  status: ('A' for Active; 'I' for Inactive)
REMARK    1  A    between atoms: C3_3  and  C4_4
REMARK    2  A    between atoms: C5_8  and  C6_9
REMARK    3  A    between atoms: C6_9  and  C7_10
REMARK    4  A    between atoms: C8_11  and  C9_12
REMARK    5  A    between atoms: C9_12  and  N2_13
REMARK    6  A    between atoms: N5_22  and  N6_23
ROOT
HETATM    1  C6  UNL     1      27.946 -15.595  38.945  1.00  0.00    -0.059 C
ENDROOT
BRANCH   1   2
HETATM    2  C5  UNL     1      28.790 -16.008  37.918  1.00  0.00     0.176 A
HETATM    3  N1  UNL     1      29.799 -15.135  37.739  1.00  0.00    -0.335 N
HETATM    4  C3  UNL     1      30.525 -15.762  36.650  1.00  0.00     0.045 A
ATOM      5  H1  UNL     1      30.000 -14.267  38.236  1.00  0.00     0.168 HD
HETATM    6  C2  UNL     1      29.840 -16.881  36.302  1.00  0.00     0.055 A
HETATM    7  C1  UNL     1      29.965 -17.724  35.083  1.00  0.00     0.072 C
HETATM    8  N5  UNL     1      28.744 -16.933  37.165  1.00  0.00    -0.242 N
BRANCH   4   9
HETATM    9  C4  UNL     1      31.695 -15.206  35.958  1.00  0.00     0.144 C
HETATM   10 BR1  UNL     1      33.411 -15.611  36.768  1.00  0.00    -0.090 Br
ENDBRANCH   4   9
BRANCH   8  11
HETATM   11  N6  UNL     1      27.933 -17.922  36.864  1.00  0.00    -0.336 N
ATOM     12  H62 UNL     1      26.966 -18.198  37.033  1.00  0.00     0.177 HD
ATOM     13  H61 UNL     1      28.366 -18.584  36.219  1.00  0.00     0.177 HD
ENDBRANCH   8  11
ENDBRANCH   1   2
BRANCH   1  14
HETATM   14  C7  UNL     1      27.124 -15.180  39.914  1.00  0.00     0.108 A
HETATM   15  C8  UNL     1      27.136 -15.154  41.216  1.00  0.00     0.067 A
HETATM   16  N3  UNL     1      25.891 -14.781  41.691  1.00  0.00    -0.299 N
HETATM   17  N4  UNL     1      25.059 -14.549  40.700  1.00  0.00    -0.265 N
ATOM     18  H3  UNL     1      25.651 -14.697  42.679  1.00  0.00     0.186 HD
HETATM   19  C10 UNL     1      25.803 -14.762  39.581  1.00  0.00     0.280 A
ATOM     20  H4  UNL     1      24.079 -14.271  40.756  1.00  0.00     0.190 HD
HETATM   21  O1  UNL     1      25.255 -14.581  38.435  1.00  0.00    -0.265 OA
BRANCH  15  22
HETATM   22  C9  UNL     1      28.198 -15.186  42.338  1.00  0.00     0.187 C
BRANCH  22  23
HETATM   23  N2  UNL     1      28.253 -16.412  42.867  1.00  0.00    -0.352 N
HETATM   24 BR2  UNL     1      26.823 -16.415  44.291  1.00  0.00     0.042 Br
ATOM     25  H2  UNL     1      28.878 -17.176  42.609  1.00  0.00     0.167 HD
ENDBRANCH  22  23
ENDBRANCH  15  22
ENDBRANCH   1  14
TORSDOF 6
ENDMDL