MODEL 2
REMARK VINA RESULT: -6.596997795      2.316      2.651
REMARK  6 active torsions:
REMARK  status: ('A' for Active; 'I' for Inactive)
REMARK    1  A    between atoms: C4_6  and  C5_7
REMARK    2  A    between atoms: C5_7  and  C6_8
REMARK    3  A    between atoms: C6_8  and  N2_9
REMARK    4  A    between atoms: C7_11  and  O1_12
REMARK    5  A    between atoms: C7_11  and  N3_14
REMARK    6  A    between atoms: N3_14  and  N4_16
ROOT
HETATM    1  C5  UNL     1      27.348 -15.953  37.707  1.00  0.00     0.049 C
ENDROOT
BRANCH   1   2
HETATM    2  C4  UNL     1      28.759 -15.727  37.709  1.00  0.00     0.006 C
HETATM    3  C3  UNL     1      29.673 -15.783  36.791  1.00  0.00     0.050 A
HETATM    4  N1  UNL     1      31.055 -15.471  37.186  1.00  0.00    -0.342 N
HETATM    5  C8  UNL     1      29.511 -16.130  35.401  1.00  0.00     0.071 A
HETATM    6  C2  UNL     1      32.106 -15.520  36.248  1.00  0.00     0.096 A
ATOM      7  H1  UNL     1      31.255 -15.216  38.153  1.00  0.00     0.167 HD
HETATM    8  C1  UNL     1      33.360 -15.247  36.567  1.00  0.00     0.063 C
HETATM    9  N6  UNL     1      31.872 -15.874  34.878  1.00  0.00    -0.336 N
HETATM   10  C9  UNL     1      30.538 -16.170  34.518  1.00  0.00     0.101 A
ATOM     11  H6  UNL     1      32.630 -15.909  34.197  1.00  0.00     0.168 HD
HETATM   12 BR2  UNL     1      30.122 -16.657  32.698  1.00  0.00    -0.030 Br
HETATM   13 BR1  UNL     1      27.798 -16.591  34.710  1.00  0.00    -0.046 Br
ENDBRANCH   1   2
BRANCH   1  14
HETATM   14  C6  UNL     1      26.640 -15.244  38.890  1.00  0.00     0.127 C
BRANCH  14  15
HETATM   15  N2  UNL     1      27.538 -15.397  40.016  1.00  0.00    -0.355 N
HETATM   16  C7  UNL     1      27.102 -15.249  41.206  1.00  0.00     0.233 C
ATOM     17  H2  UNL     1      28.519 -15.623  39.857  1.00  0.00     0.163 HD
BRANCH  16  18
HETATM   18  O1  UNL     1      25.777 -14.944  41.411  1.00  0.00    -0.332 OA
ATOM     19  H1  UNL     1      25.542 -14.103  41.786  1.00  0.00     0.221 HD
ENDBRANCH  16  18
BRANCH  16  20
HETATM   20  N3  UNL     1      27.994 -15.403  42.291  1.00  0.00    -0.251 N
ATOM     21  H3  UNL     1      28.796 -14.775  42.354  1.00  0.00     0.192 HD
BRANCH  20  22
HETATM   22  N4  UNL     1      27.831 -16.375  43.284  1.00  0.00    -0.246 N
HETATM   23  N5  UNL     1      26.642 -16.673  43.613  1.00  0.00    -0.331 N
ATOM     24  H52 UNL     1      25.849 -16.214  43.163  1.00  0.00     0.178 HD
ATOM     25  H51 UNL     1      26.523 -17.382  44.337  1.00  0.00     0.178 HD
ATOM     26  H4  UNL     1      28.633 -16.826  43.725  1.00  0.00     0.208 HD
ENDBRANCH  20  22
ENDBRANCH  16  20
ENDBRANCH  14  15
ENDBRANCH   1  14
TORSDOF 6
ENDMDL