MODEL 2
REMARK VINA RESULT: -5.782619585      3.128      4.453
REMARK  2 active torsions:
REMARK  status: ('A' for Active; 'I' for Inactive)
REMARK    1  A    between atoms: N1_2  and  C3_4
REMARK       I    between atoms: N1_2  and  C8_13
REMARK    2  A    between atoms: C3_4  and  C4_5
REMARK       I    between atoms: C8_13  and  N3_15
ROOT
HETATM    1  C1  UNL     1      28.527 -15.428  34.432  1.00  0.00     0.285 C
HETATM    2  N1  UNL     1      29.442 -16.032  35.371  1.00  0.00     0.010 N
HETATM    3  C2  UNL     1      30.151 -17.099  34.707  1.00  0.00     0.285 C
HETATM    4  C8  UNL     1      28.723 -16.637  36.469  1.00  0.00     0.421 C
HETATM    5  O1  UNL     1      29.271 -17.598  37.041  1.00  0.00    -0.239 OA
HETATM    6  N3  UNL     1      27.458 -16.130  36.847  1.00  0.00    -0.272 N
ATOM      7  H3  UNL     1      26.683 -16.112  36.184  1.00  0.00     0.173 HD
HETATM    8  C9  UNL     1      27.307 -15.691  38.048  1.00  0.00     0.213 C
HETATM    9  N4  UNL     1      26.116 -15.147  38.608  1.00  0.00    -0.256 N
ATOM     10  H4  UNL     1      25.328 -14.738  38.106  1.00  0.00     0.187 HD
HETATM   11  N5  UNL     1      26.255 -15.294  39.996  1.00  0.00    -0.006 NA
HETATM   12  N6  UNL     1      27.625 -15.216  40.251  1.00  0.00    -0.006 NA
HETATM   13  N7  UNL     1      28.276 -15.640  39.102  1.00  0.00    -0.256 N
ATOM     14  H7  UNL     1      29.266 -15.875  39.022  1.00  0.00     0.187 HD
ENDROOT
BRANCH   2  15
HETATM   15  C3  UNL     1      30.318 -15.074  35.985  1.00  0.00     0.290 C
BRANCH  15  16
HETATM   16  C4  UNL     1      31.411 -14.573  35.144  1.00  0.00     0.004 A
HETATM   17  C5  UNL     1      31.341 -13.803  34.019  1.00  0.00     0.099 A
HETATM   18  N2  UNL     1      32.620 -13.613  33.615  1.00  0.00    -0.358 N
HETATM   19  C6  UNL     1      33.492 -14.224  34.426  1.00  0.00     0.097 A
ATOM     20  H2  UNL     1      32.886 -13.070  32.794  1.00  0.00     0.166 HD
HETATM   21 BR1  UNL     1      35.413 -14.237  34.254  1.00  0.00    -0.030 Br
HETATM   22  C7  UNL     1      32.746 -14.841  35.405  1.00  0.00     0.054 A
HETATM   23 BR2  UNL     1      33.498 -15.863  36.829  1.00  0.00    -0.047 Br
ENDBRANCH  15  16
ENDBRANCH   2  15
TORSDOF 2
ENDMDL