MODEL 2
REMARK VINA RESULT: -7.379909370      1.590      1.893
REMARK  4 active torsions:
REMARK  status: ('A' for Active; 'I' for Inactive)
REMARK    1  A    between atoms: N3_8  and  C4_10
REMARK    2  A    between atoms: C4_10  and  C5_14
REMARK    3  A    between atoms: C5_14  and  C6_15
REMARK    4  A    between atoms: C6_15  and  N5_16
ROOT
HETATM    1  C4  UNL     1      26.686 -15.059  40.985  1.00  0.00     0.078 C
HETATM    2  N4  UNL     1      27.920 -15.342  41.221  1.00  0.00    -0.389 N
ATOM      3  H41 UNL     1      28.415 -15.932  40.553  1.00  0.00     0.157 HD
ATOM      4  H42 UNL     1      28.419 -15.000  42.042  1.00  0.00     0.157 HD
ENDROOT
BRANCH   1   5
HETATM    5  N3  UNL     1      26.003 -14.243  41.908  1.00  0.00    -0.317 N
HETATM    6  C3  UNL     1      25.726 -14.637  43.099  1.00  0.00     0.201 A
HETATM    7  N2  UNL     1      25.055 -13.961  44.149  1.00  0.00    -0.269 N
HETATM    8  N7  UNL     1      26.069 -15.915  43.611  1.00  0.00    -0.312 N
HETATM    9  N1  UNL     1      24.982 -14.778  45.266  1.00  0.00    -0.283 N
ATOM     10  H2  UNL     1      24.681 -13.013  44.091  1.00  0.00     0.190 HD
HETATM   11  C2  UNL     1      25.614 -16.003  44.938  1.00  0.00     0.112 A
ATOM     12  H1  UNL     1      24.552 -14.541  46.159  1.00  0.00     0.188 HD
HETATM   13  C1  UNL     1      25.760 -17.068  45.740  1.00  0.00     0.065 C
ATOM     14  H7  UNL     1      26.562 -16.647  43.101  1.00  0.00     0.170 HD
ATOM     15  H3  UNL     1      25.718 -13.306  41.621  1.00  0.00     0.170 HD
ENDBRANCH   1   5
BRANCH   1  16
HETATM   16  C5  UNL     1      25.958 -15.557  39.788  1.00  0.00     0.098 C
BRANCH  16  17
HETATM   17  C6  UNL     1      26.129 -14.530  38.701  1.00  0.00     0.155 C
BRANCH  17  18
HETATM   18  N5  UNL     1      27.229 -14.871  37.805  1.00  0.00    -0.301 N
HETATM   19  C7  UNL     1      27.659 -16.146  37.673  1.00  0.00     0.129 A
HETATM   20  C8  UNL     1      28.685 -16.512  36.845  1.00  0.00     0.030 A
HETATM   21 BR1  UNL     1      29.307 -18.305  36.645  1.00  0.00    -0.050 Br
HETATM   22  C9  UNL     1      29.323 -15.542  36.103  1.00  0.00     0.059 A
HETATM   23  C10 UNL     1      28.867 -14.244  36.252  1.00  0.00     0.095 A
HETATM   24 BR2  UNL     1      29.749 -12.882  35.221  1.00  0.00    -0.030 Br
HETATM   25  N6  UNL     1      27.855 -13.954  37.082  1.00  0.00    -0.292 N
ATOM     26  H6  UNL     1      27.553 -12.983  37.160  1.00  0.00     0.188 HD
ENDBRANCH  17  18
ENDBRANCH  16  17
ENDBRANCH   1  16
TORSDOF 4
ENDMDL