MODEL 4
REMARK VINA RESULT: -5.141105389     10.426     12.546
REMARK  4 active torsions:
REMARK  status: ('A' for Active; 'I' for Inactive)
REMARK    1  A    between atoms: C4_4  and  S1_5
REMARK    2  A    between atoms: S1_5  and  C5_7
REMARK    3  A    between atoms: C6_8  and  C7_9
REMARK    4  A    between atoms: C7_9  and  N1_10
REMARK       I    between atoms: N1_10  and  C8_12
ROOT
HETATM    1  C1  UNL     1      26.527 -22.217  32.278  1.00  0.00     0.017 C
HETATM    2  C2  UNL     1      25.469 -22.197  31.728  1.00  0.00    -0.089 C
HETATM    3  C3  UNL     1      24.175 -22.151  31.062  1.00  0.00     0.073 C
HETATM    4  C4  UNL     1      23.106 -22.669  31.628  1.00  0.00     0.094 C
ENDROOT
BRANCH   4   5
HETATM    5  S1  UNL     1      21.581 -22.597  30.807  1.00  0.00     0.094 S
HETATM    6  O1  UNL     1      20.398 -22.258  31.975  1.00  0.00    -0.247 OA
BRANCH   5   7
HETATM    7  C5  UNL     1      21.568 -21.383  29.563  1.00  0.00     0.143 A
HETATM    8  C6  UNL     1      21.326 -21.615  28.228  1.00  0.00     0.066 A
HETATM    9  N4  UNL     1      21.396 -20.437  27.549  1.00  0.00    -0.335 N
HETATM   10  C9  UNL     1      21.682 -19.494  28.479  1.00  0.00     0.167 A
ATOM     11  H4  UNL     1      21.262 -20.295  26.549  1.00  0.00     0.168 HD
HETATM   12 BR1  UNL     1      21.903 -17.642  28.120  1.00  0.00    -0.009 Br
HETATM   13  N5  UNL     1      21.785 -20.067  29.689  1.00  0.00    -0.246 N
HETATM   14 BR2  UNL     1      22.172 -19.152  31.300  1.00  0.00     0.058 Br
BRANCH   8  15
HETATM   15  C7  UNL     1      21.046 -22.962  27.676  1.00  0.00     0.182 C
BRANCH  15  16
HETATM   16  N1  UNL     1      19.633 -23.214  27.573  1.00  0.00    -0.359 N
HETATM   17  C8  UNL     1      18.961 -24.257  28.269  1.00  0.00     0.182 C
HETATM   18  N2  UNL     1      17.692 -24.236  28.489  1.00  0.00    -0.374 N
HETATM   19  N3  UNL     1      19.680 -25.385  28.759  1.00  0.00    -0.064 NA
ATOM     20  H22 UNL     1      17.177 -23.429  28.138  1.00  0.00     0.158 HD
ATOM     21  H21 UNL     1      17.211 -24.984  28.988  1.00  0.00     0.158 HD
ATOM     22  H1  UNL     1      19.080 -22.609  26.966  1.00  0.00     0.162 HD
ENDBRANCH  15  16
ENDBRANCH   8  15
ENDBRANCH   5   7
ENDBRANCH   4   5
TORSDOF 4
ENDMDL