MODEL 1
REMARK VINA RESULT: -6.947360951      0.000      0.000
REMARK  6 active torsions:
REMARK  status: ('A' for Active; 'I' for Inactive)
REMARK    1  A    between atoms: C2_3  and  C3_4
REMARK    2  A    between atoms: C3_4  and  N2_5
REMARK    3  A    between atoms: N2_5  and  O1_6
REMARK    4  A    between atoms: N2_5  and  C4_8
REMARK    5  A    between atoms: C4_8  and  C5_9
REMARK    6  A    between atoms: C5_9  and  C6_10
ROOT
HETATM    1  N2  UNL     1      27.264 -15.620  38.871  1.00  0.00    -0.183 NA
ENDROOT
BRANCH   1   2
HETATM    2  C3  UNL     1      27.493 -14.871  37.676  1.00  0.00     0.180 C
BRANCH   2   3
HETATM    3  C2  UNL     1      28.710 -15.357  36.973  1.00  0.00     0.051 A
HETATM    4  C1  UNL     1      28.771 -16.074  35.783  1.00  0.00     0.090 A
HETATM    5  N1  UNL     1      27.665 -16.489  34.994  1.00  0.00    -0.099 NA
HETATM    6  C11 UNL     1      30.092 -16.317  35.492  1.00  0.00     0.071 A
HETATM    7  C10 UNL     1      30.816 -15.743  36.513  1.00  0.00     0.099 A
HETATM    8 BR2  UNL     1      30.847 -17.238  34.026  1.00  0.00    -0.046 Br
HETATM    9  N4  UNL     1      29.974 -15.164  37.405  1.00  0.00    -0.350 N
HETATM   10 BR1  UNL     1      32.709 -15.741  36.680  1.00  0.00    -0.030 Br
ATOM     11  H4  UNL     1      30.248 -14.668  38.253  1.00  0.00     0.166 HD
ENDBRANCH   2   3
ENDBRANCH   1   2
BRANCH   1  12
HETATM   12  O1  UNL     1      28.247 -15.268  39.764  1.00  0.00    -0.312 OA
ATOM     13  H1  UNL     1      27.971 -15.578  40.619  1.00  0.00     0.237 HD
ENDBRANCH   1  12
BRANCH   1  14
HETATM   14  C4  UNL     1      26.009 -15.434  39.447  1.00  0.00     0.206 C
BRANCH  14  15
HETATM   15  C5  UNL     1      26.000 -15.073  40.711  1.00  0.00    -0.126 C
BRANCH  15  16
HETATM   16  C6  UNL     1      25.856 -14.711  41.939  1.00  0.00     0.053 C
HETATM   17  C7  UNL     1      24.591 -14.574  42.626  1.00  0.00     0.072 C
HETATM   18  C8  UNL     1      25.065 -14.529  44.088  1.00  0.00     0.128 C
HETATM   19  N3  UNL     1      26.378 -13.920  44.017  1.00  0.00    -0.356 N
HETATM   20  C9  UNL     1      26.960 -14.394  42.796  1.00  0.00     0.255 C
ATOM     21  H3  UNL     1      26.801 -13.287  44.695  1.00  0.00     0.162 HD
HETATM   22  O2  UNL     1      28.179 -14.500  42.554  1.00  0.00    -0.267 OA
ENDBRANCH  15  16
ENDBRANCH  14  15
ENDBRANCH   1  14
TORSDOF 6
ENDMDL