MODEL 1
REMARK VINA RESULT: -5.208654999      0.000      0.000
REMARK  4 active torsions:
REMARK  status: ('A' for Active; 'I' for Inactive)
REMARK    1  A    between atoms: C5_6  and  C6_7
REMARK    2  A    between atoms: C6_7  and  N1_8
REMARK    3  A    between atoms: C12_17  and  O1_18
REMARK    4  A    between atoms: C12_17  and  C13_20
REMARK       I    between atoms: N3_23  and  C15_25
ROOT
HETATM    1  C1  UNL     1      21.409 -25.317  30.656  1.00  0.00     0.034 C
HETATM    2  C2  UNL     1      21.242 -23.948  31.238  1.00  0.00     0.056 C
HETATM    3 BR1  UNL     1      19.564 -23.885  32.194  1.00  0.00    -0.079 Br
HETATM    4  C3  UNL     1      22.336 -23.706  32.254  1.00  0.00     0.027 C
HETATM    5  C4  UNL     1      23.615 -23.221  31.607  1.00  0.00     0.011 C
HETATM    6  C5  UNL     1      23.452 -21.855  31.069  1.00  0.00     0.054 C
HETATM    7  C12 UNL     1      22.022 -21.602  30.693  1.00  0.00     0.128 C
HETATM    8  C14 UNL     1      21.301 -22.857  30.276  1.00  0.00     0.045 C
HETATM    9  N3  UNL     1      20.782 -22.917  29.141  1.00  0.00    -0.334 N
ATOM     10  H3  UNL     1      20.928 -22.056  28.615  1.00  0.00     0.168 HD
HETATM   11  C15 UNL     1      20.070 -23.835  28.420  1.00  0.00     0.186 C
HETATM   12  N4  UNL     1      18.783 -23.935  28.585  1.00  0.00    -0.374 N
ATOM     13  H41 UNL     1      18.252 -24.620  28.047  1.00  0.00     0.158 HD
ATOM     14  H42 UNL     1      18.408 -23.291  29.281  1.00  0.00     0.158 HD
HETATM   15  N5  UNL     1      20.597 -24.740  27.444  1.00  0.00    -0.064 NA
ENDROOT
BRANCH   6  16
HETATM   16  C6  UNL     1      24.312 -21.469  29.933  1.00  0.00     0.245 C
BRANCH  16  17
HETATM   17  N1  UNL     1      25.380 -20.540  30.201  1.00  0.00    -0.067 N
HETATM   18  C7  UNL     1      25.453 -19.447  29.270  1.00  0.00     0.272 C
HETATM   19  C8  UNL     1      26.593 -21.282  30.334  1.00  0.00     0.264 C
HETATM   20  C9  UNL     1      27.694 -20.563  31.059  1.00  0.00     0.260 C
HETATM   21  N2  UNL     1      27.219 -20.204  32.391  1.00  0.00    -0.072 N
HETATM   22  C10 UNL     1      26.140 -19.233  32.162  1.00  0.00     0.260 C
ATOM     23  H22 UNL     1      26.941 -21.003  32.961  1.00  0.00     0.277 HD
ATOM     24  H21 UNL     1      27.952 -19.866  33.014  1.00  0.00     0.277 HD
HETATM   25  C11 UNL     1      25.025 -19.942  31.487  1.00  0.00     0.264 C
ENDBRANCH  16  17
ENDBRANCH   6  16
BRANCH   7  26
HETATM   26  O1  UNL     1      21.299 -21.135  31.819  1.00  0.00    -0.381 OA
ATOM     27  H1  UNL     1      21.273 -21.807  32.490  1.00  0.00     0.211 HD
ENDBRANCH   7  26
BRANCH   7  28
HETATM   28  C13 UNL     1      21.814 -20.595  29.628  1.00  0.00     0.266 C
HETATM   29  F1  UNL     1      21.814 -19.339  30.206  1.00  0.00    -0.252 F
ENDBRANCH   7  28
TORSDOF 4
ENDMDL