MODEL 1
REMARK VINA RESULT: -7.527617336      0.000      0.000
REMARK  8 active torsions:
REMARK  status: ('A' for Active; 'I' for Inactive)
REMARK    1  A    between atoms: O1_2  and  C2_3
REMARK    2  A    between atoms: C2_3  and  C3_4
REMARK    3  A    between atoms: C5_6  and  O2_7
REMARK    4  A    between atoms: N1_10  and  C7_11
REMARK    5  A    between atoms: C7_11  and  C8_12
REMARK    6  A    between atoms: C8_12  and  N2_13
REMARK       I    between atoms: N2_13  and  C9_15
REMARK       I    between atoms: C9_15  and  N3_17
REMARK    7  A    between atoms: N3_17  and  C10_19
REMARK    8  A    between atoms: C10_19  and  C11_20
ROOT
HETATM    1  N2  UNL     1       2.860  35.571 101.920  1.00  0.00    -0.341 N
ATOM      2  H2  UNL     1       2.910  36.430 101.373  1.00  0.00     0.164 HD
HETATM    3  C9  UNL     1       3.848  34.557 101.783  1.00  0.00     0.316 C
HETATM    4  O3  UNL     1       3.776  33.495 102.465  1.00  0.00    -0.247 OA
HETATM    5  N3  UNL     1       4.898  34.782 100.868  1.00  0.00    -0.340 N
ATOM      6  H3  UNL     1       4.936  35.646 100.328  1.00  0.00     0.164 HD
ENDROOT
BRANCH   1   7
HETATM    7  C8  UNL     1       1.780  35.343 102.860  1.00  0.00     0.154 C
BRANCH   7   8
HETATM    8  C7  UNL     1       0.554  36.108 102.552  1.00  0.00     0.292 C
BRANCH   8   9
HETATM    9  N1  UNL     1       0.415  37.370 103.181  1.00  0.00     0.099 N
HETATM   10  C3  UNL     1      -0.905  37.948 103.056  1.00  0.00     0.249 C
HETATM   11  C4  UNL     1      -0.811  38.681 101.747  1.00  0.00     0.071 C
HETATM   12  C5  UNL     1       0.584  39.255 101.755  1.00  0.00     0.148 C
HETATM   13  C6  UNL     1       1.284  38.403 102.762  1.00  0.00     0.304 C
BRANCH  10  14
HETATM   14  C2  UNL     1      -1.991  36.909 103.062  1.00  0.00     0.203 C
BRANCH  14  15
HETATM   15  O1  UNL     1      -2.840  36.973 101.998  1.00  0.00    -0.394 OA
HETATM   16  C1  UNL     1      -3.212  35.775 101.452  1.00  0.00     0.201 C
ENDBRANCH  14  15
ENDBRANCH  10  14
BRANCH  12  17
HETATM   17  O2  UNL     1       0.555  40.613 102.126  1.00  0.00    -0.394 OA
ATOM     18  H2  UNL     1       1.389  40.873 102.498  1.00  0.00     0.210 HD
ENDBRANCH  12  17
ENDBRANCH   8   9
ENDBRANCH   7   8
ENDBRANCH   1   7
BRANCH   5  19
HETATM   19  C10 UNL     1       5.915  33.778 100.704  1.00  0.00     0.167 C
BRANCH  19  20
HETATM   20  C11 UNL     1       7.028  34.296  99.815  1.00  0.00     0.119 C
HETATM   21  F1  UNL     1       6.892  35.646  99.702  1.00  0.00    -0.241 F
HETATM   22  C12 UNL     1       8.376  33.835 100.261  1.00  0.00     0.045 C
HETATM   23  C13 UNL     1       8.941  33.021  99.107  1.00  0.00     0.004 C
HETATM   24  C14 UNL     1       8.191  33.562  97.908  1.00  0.00     0.004 C
HETATM   25  C15 UNL     1       6.786  33.666  98.436  1.00  0.00     0.045 C
ENDBRANCH  19  20
ENDBRANCH   5  19
TORSDOF 8
ENDMDL