MODEL 1
REMARK VINA RESULT: -7.207299554      0.000      0.000
REMARK  8 active torsions:
REMARK  status: ('A' for Active; 'I' for Inactive)
REMARK    1  A    between atoms: C2_2  and  C3_3
REMARK    2  A    between atoms: C3_3  and  C4_4
REMARK    3  A    between atoms: C4_4  and  C5_5
REMARK    4  A    between atoms: C5_5  and  N1_6
REMARK    5  A    between atoms: C7_11  and  O1_12
REMARK    6  A    between atoms: C8_14  and  C9_15
REMARK    7  A    between atoms: C9_15  and  C10_16
REMARK       I    between atoms: C10_16  and  N3_18
REMARK    8  A    between atoms: N3_18  and  C11_20
ROOT
HETATM    1  N1  UNL     1       0.535  34.189 102.503  1.00  0.00     0.123 N
HETATM    2  C6  UNL     1       1.604  33.910 103.430  1.00  0.00     0.506 C
HETATM    3  N2  UNL     1       2.511  35.031 103.253  1.00  0.00    -0.020 N
ATOM      4  H21 UNL     1       3.456  34.879 103.604  1.00  0.00     0.282 HD
ATOM      5  H22 UNL     1       2.317  35.839 103.844  1.00  0.00     0.282 HD
HETATM    6  C7  UNL     1       2.420  35.277 101.830  1.00  0.00     0.354 C
HETATM    7  C8  UNL     1       1.129  34.742 101.329  1.00  0.00     0.289 C
ENDROOT
BRANCH   7   8
HETATM    8  C9  UNL     1       0.275  35.730 100.599  1.00  0.00     0.143 C
BRANCH   8   9
HETATM    9  C10 UNL     1       0.194  35.447  99.145  1.00  0.00     0.220 C
HETATM   10  O2  UNL     1       0.712  36.260  98.336  1.00  0.00    -0.274 OA
HETATM   11  N3  UNL     1      -0.442  34.302  98.603  1.00  0.00    -0.352 N
ATOM     12  H3  UNL     1      -0.868  33.631  99.243  1.00  0.00     0.163 HD
BRANCH  11  13
HETATM   13  C11 UNL     1      -0.515  34.042  97.184  1.00  0.00     0.032 C
HETATM   14  C12 UNL     1       0.830  33.795  96.559  1.00  0.00     0.038 C
HETATM   15  C13 UNL     1      -1.340  32.791  96.970  1.00  0.00     0.033 C
HETATM   16  C14 UNL     1      -2.295  33.111  95.842  1.00  0.00     0.040 C
HETATM   17  C15 UNL     1      -2.625  34.562  96.134  1.00  0.00     0.172 C
HETATM   18  F1  UNL     1      -3.098  35.235  95.044  1.00  0.00    -0.249 F
HETATM   19  C16 UNL     1      -1.280  35.135  96.497  1.00  0.00     0.067 C
ENDBRANCH  11  13
ENDBRANCH   8   9
ENDBRANCH   7   8
BRANCH   1  20
HETATM   20  C5  UNL     1      -0.582  34.873 103.034  1.00  0.00     0.275 C
BRANCH  20  21
HETATM   21  C4  UNL     1      -1.657  33.878 103.407  1.00  0.00     0.030 C
BRANCH  21  22
HETATM   22  C3  UNL     1      -3.057  34.444 103.275  1.00  0.00     0.001 C
BRANCH  22  23
HETATM   23  C2  UNL     1      -3.174  35.422 102.126  1.00  0.00    -0.005 C
HETATM   24  C1  UNL     1      -4.545  35.335 101.480  1.00  0.00     0.005 C
ENDBRANCH  22  23
ENDBRANCH  21  22
ENDBRANCH  20  21
ENDBRANCH   1  20
BRANCH   6  25
HETATM   25  O1  UNL     1       3.526  34.600 101.264  1.00  0.00    -0.368 OA
ATOM     26  H1  UNL     1       4.252  34.772 101.853  1.00  0.00     0.212 HD
ENDBRANCH   6  25
TORSDOF 8
ENDMDL