MODEL 4
REMARK VINA RESULT: -6.317207069      4.995      6.095
REMARK  9 active torsions:
REMARK  status: ('A' for Active; 'I' for Inactive)
REMARK    1  A    between atoms: C1_2  and  N1_3
REMARK    2  A    between atoms: C1_2  and  N3_14
REMARK    3  A    between atoms: N1_3  and  C2_5
REMARK    4  A    between atoms: C2_5  and  C3_6
REMARK    5  A    between atoms: C3_6  and  N2_7
REMARK    6  A    between atoms: N2_7  and  C4_9
REMARK    7  A    between atoms: N3_14  and  C9_16
REMARK    8  A    between atoms: C9_16  and  C10_17
REMARK    9  A    between atoms: C10_17  and  N4_18
ROOT
HETATM    1  S1  UNL     1       2.772  34.471 102.064  1.00  0.00    -0.041 SA
HETATM    2  C1  UNL     1       1.801  35.026 103.263  1.00  0.00     0.167 C
ENDROOT
BRANCH   2   3
HETATM    3  N1  UNL     1       1.701  36.421 103.539  1.00  0.00    -0.363 N
ATOM      4  H1  UNL     1       1.566  36.741 104.498  1.00  0.00     0.162 HD
BRANCH   3   5
HETATM    5  C2  UNL     1       1.792  37.404 102.443  1.00  0.00     0.166 C
BRANCH   5   6
HETATM    6  C3  UNL     1       0.529  37.288 101.643  1.00  0.00     0.075 C
BRANCH   6   7
HETATM    7  N2  UNL     1       0.635  36.948 100.295  1.00  0.00    -0.396 N
ATOM      8  H2  UNL     1       1.347  37.427  99.744  1.00  0.00     0.159 HD
BRANCH   7   9
HETATM    9  C4  UNL     1      -0.145  36.018  99.649  1.00  0.00     0.080 C
HETATM   10  C5  UNL     1      -1.634  36.275  99.529  1.00  0.00     0.025 C
HETATM   11  C6  UNL     1      -2.071  35.012  98.770  1.00  0.00     0.002 C
HETATM   12  C7  UNL     1      -0.815  34.514  98.036  1.00  0.00     0.002 C
HETATM   13  C8  UNL     1       0.158  35.712  98.187  1.00  0.00     0.025 C
ENDBRANCH   7   9
ENDBRANCH   6   7
ENDBRANCH   5   6
ENDBRANCH   3   5
ENDBRANCH   2   3
BRANCH   2  14
HETATM   14  N3  UNL     1       1.063  34.111 104.057  1.00  0.00    -0.366 N
ATOM     15  H3  UNL     1       1.358  33.970 105.022  1.00  0.00     0.161 HD
BRANCH  14  16
HETATM   16  C9  UNL     1      -0.060  33.381 103.592  1.00  0.00     0.152 C
BRANCH  16  17
HETATM   17  C10 UNL     1      -1.182  34.075 102.924  1.00  0.00     0.292 C
BRANCH  17  18
HETATM   18  N4  UNL     1      -1.780  35.158 103.625  1.00  0.00     0.094 N
HETATM   19  C11 UNL     1      -2.587  34.650 104.773  1.00  0.00     0.298 C
HETATM   20  C12 UNL     1      -3.627  33.728 104.208  1.00  0.00     0.198 C
HETATM   21  O1  UNL     1      -4.453  34.413 103.363  1.00  0.00    -0.388 OA
HETATM   22  C13 UNL     1      -3.881  35.156 102.368  1.00  0.00     0.198 C
HETATM   23  C14 UNL     1      -2.692  35.952 102.817  1.00  0.00     0.298 C
ENDBRANCH  17  18
ENDBRANCH  16  17
ENDBRANCH  14  16
ENDBRANCH   2  14
TORSDOF 9
ENDMDL