MODEL 2
REMARK VINA RESULT: -7.232358100      3.556      5.460
REMARK  7 active torsions:
REMARK  status: ('A' for Active; 'I' for Inactive)
REMARK       I    between atoms: N1_3  and  C3_5
REMARK    1  A    between atoms: C3_5  and  C4_7
REMARK    2  A    between atoms: C4_7  and  O2_8
REMARK    3  A    between atoms: O2_8  and  C5_9
REMARK    4  A    between atoms: C8_12  and  C9_13
REMARK    5  A    between atoms: C9_13  and  N2_14
REMARK    6  A    between atoms: N2_14  and  C10_16
REMARK    7  A    between atoms: C10_16  and  C11_17
ROOT
HETATM    1  C1  UNL     1      -4.039  33.335 104.442  1.00  0.00     0.037 C
HETATM    2  C2  UNL     1      -3.265  34.252 104.537  1.00  0.00     0.002 C
HETATM    3  N1  UNL     1      -2.364  35.360 104.652  1.00  0.00    -0.281 N
ATOM      4  H1  UNL     1      -1.791  35.474 105.489  1.00  0.00     0.179 HD
HETATM    5  C3  UNL     1      -2.276  36.289 103.599  1.00  0.00     0.274 C
HETATM    6  O1  UNL     1      -3.035  36.063 102.577  1.00  0.00    -0.266 OA
ENDROOT
BRANCH   5   7
HETATM    7  C4  UNL     1      -1.431  37.451 103.553  1.00  0.00     0.210 C
BRANCH   7   8
HETATM    8  O2  UNL     1      -0.138  37.426 103.242  1.00  0.00    -0.352 OA
BRANCH   8   9
HETATM    9  C5  UNL     1       0.411  38.154 102.258  1.00  0.00     0.130 C
HETATM   10  C6  UNL     1       1.871  38.384 102.503  1.00  0.00     0.033 C
HETATM   11  C7  UNL     1       2.433  37.047 103.055  1.00  0.00     0.015 C
HETATM   12  C8  UNL     1       2.374  36.093 101.919  1.00  0.00     0.058 C
HETATM   13  C15 UNL     1       0.880  35.877 101.548  1.00  0.00     0.181 C
HETATM   14  F1  UNL     1       0.849  34.933 100.568  1.00  0.00    -0.249 F
HETATM   15  C16 UNL     1       0.387  37.193 101.002  1.00  0.00     0.070 C
BRANCH  12  16
HETATM   16  C9  UNL     1       3.075  34.806 101.985  1.00  0.00     0.063 C
BRANCH  16  17
HETATM   17  N2  UNL     1       4.104  34.547 101.110  1.00  0.00    -0.400 N
ATOM     18  H2  UNL     1       4.014  34.939 100.173  1.00  0.00     0.158 HD
BRANCH  17  19
HETATM   19  C10 UNL     1       5.258  33.805 101.366  1.00  0.00     0.151 C
BRANCH  19  20
HETATM   20  C11 UNL     1       6.229  34.113 100.192  1.00  0.00     0.203 C
HETATM   21  C12 UNL     1       7.570  34.374 100.799  1.00  0.00     0.036 C
HETATM   22  C13 UNL     1       8.571  33.769  99.875  1.00  0.00     0.029 C
HETATM   23  C14 UNL     1       7.772  32.966  98.913  1.00  0.00     0.233 C
HETATM   24  N3  UNL     1       6.380  32.973  99.325  1.00  0.00    -0.069 N
ATOM     25  H32 UNL     1       6.077  32.096  99.750  1.00  0.00     0.277 HD
ATOM     26  H31 UNL     1       5.724  32.965  98.544  1.00  0.00     0.277 HD
ENDBRANCH  19  20
ENDBRANCH  17  19
ENDBRANCH  16  17
ENDBRANCH  12  16
ENDBRANCH   8   9
ENDBRANCH   7   8
ENDBRANCH   5   7
TORSDOF 7
ENDMDL