MODEL 1
REMARK VINA RESULT: -7.340083503      0.000      0.000
REMARK  6 active torsions:
REMARK  status: ('A' for Active; 'I' for Inactive)
REMARK       I    between atoms: C1_2  and  N1_3
REMARK    1  A    between atoms: C1_2  and  C4_8
REMARK    2  A    between atoms: N1_3  and  C2_5
REMARK    3  A    between atoms: C2_5  and  C3_6
REMARK    4  A    between atoms: C10_15  and  N2_16
REMARK    5  A    between atoms: N2_16  and  C11_19
REMARK    6  A    between atoms: C11_19  and  C12_20
ROOT
HETATM    1  C4  UNL     1      -2.014  37.659 102.114  1.00  0.00     0.109 C
HETATM    2  C5  UNL     1      -2.180  36.449 103.005  1.00  0.00     0.023 C
HETATM    3  C6  UNL     1      -2.314  35.287 102.041  1.00  0.00     0.022 C
HETATM    4  C7  UNL     1      -0.977  34.781 101.578  1.00  0.00     0.033 C
HETATM    5  C8  UNL     1      -0.260  35.650 100.628  1.00  0.00     0.168 C
HETATM    6  O2  UNL     1      -0.808  36.837 100.299  1.00  0.00    -0.383 OA
HETATM    7  C9  UNL     1      -2.076  37.124 100.676  1.00  0.00     0.165 C
HETATM    8  C10 UNL     1      -2.977  35.939 100.872  1.00  0.00     0.219 C
ENDROOT
BRANCH   8   9
HETATM    9  N2  UNL     1      -3.202  35.138  99.733  1.00  0.00    -0.068 N
ATOM     10  H22 UNL     1      -2.376  34.611  99.454  1.00  0.00     0.277 HD
ATOM     11  H21 UNL     1      -3.814  34.345  99.927  1.00  0.00     0.277 HD
BRANCH   9  12
HETATM   12  C11 UNL     1      -3.708  35.987  98.671  1.00  0.00     0.237 C
BRANCH  12  13
HETATM   13  C12 UNL     1      -4.715  35.347  97.785  1.00  0.00     0.014 C
HETATM   14  C13 UNL     1      -5.435  36.487  97.051  1.00  0.00     0.034 C
HETATM   15  C14 UNL     1      -6.844  36.068  96.657  1.00  0.00     0.232 C
HETATM   16  N3  UNL     1      -7.608  36.069  97.904  1.00  0.00    -0.075 N
HETATM   17  C15 UNL     1      -6.960  35.326  98.942  1.00  0.00     0.232 C
ATOM     18  H32 UNL     1      -7.815  37.020  98.207  1.00  0.00     0.277 HD
ATOM     19  H31 UNL     1      -8.560  35.734  97.752  1.00  0.00     0.277 HD
HETATM   20  C16 UNL     1      -5.763  34.534  98.466  1.00  0.00     0.034 C
ENDBRANCH  12  13
ENDBRANCH   9  12
ENDBRANCH   8   9
BRANCH   1  21
HETATM   21  C1  UNL     1      -0.771  38.396 102.394  1.00  0.00     0.224 C
HETATM   22  O1  UNL     1      -0.148  38.109 103.439  1.00  0.00    -0.273 OA
HETATM   23  N1  UNL     1      -0.255  39.391 101.558  1.00  0.00    -0.358 N
ATOM     24  H1  UNL     1      -0.764  39.618 100.704  1.00  0.00     0.162 HD
BRANCH  23  25
HETATM   25  C2  UNL     1       0.951  40.108 101.840  1.00  0.00     0.153 C
BRANCH  25  26
HETATM   26  C3  UNL     1       2.191  39.508 101.260  1.00  0.00     0.241 C
HETATM   27  F1  UNL     1       2.817  40.374 100.380  1.00  0.00    -0.254 F
ENDBRANCH  25  26
ENDBRANCH  23  25
ENDBRANCH   1  21
TORSDOF 6
ENDMDL