MODEL 4
REMARK VINA RESULT: -5.769701701      1.590      2.221
REMARK  12 active torsions:
REMARK  status: ('A' for Active; 'I' for Inactive)
REMARK    1  A    between atoms: N2_5  and  C4_6
REMARK    2  A    between atoms: C4_6  and  C5_7
REMARK    3  A    between atoms: C5_7  and  C6_8
REMARK    4  A    between atoms: C6_8  and  N3_9
REMARK    5  A    between atoms: N3_9  and  C7_11
REMARK    6  A    between atoms: C7_11  and  N4_12
REMARK    7  A    between atoms: C7_11  and  S1_21
REMARK    8  A    between atoms: N4_12  and  C8_14
REMARK    9  A    between atoms: C8_14  and  C9_15
REMARK   10  A    between atoms: C9_15  and  C10_16
REMARK   11  A    between atoms: C10_16  and  N5_17
REMARK   12  A    between atoms: S1_21  and  C11_22
ROOT
HETATM    1  C7  UNL     1       0.947  36.760 102.368  1.00  0.00     0.137 C
ENDROOT
BRANCH   1   2
HETATM    2  N3  UNL     1       0.714  36.481 100.950  1.00  0.00    -0.371 N
ATOM      3  H3  UNL     1       1.464  36.025 100.431  1.00  0.00     0.161 HD
BRANCH   2   4
HETATM    4  C6  UNL     1      -0.475  36.795 100.240  1.00  0.00     0.123 C
BRANCH   4   5
HETATM    5  C5  UNL     1      -1.474  35.665 100.188  1.00  0.00     0.039 C
BRANCH   5   6
HETATM    6  C4  UNL     1      -1.419  35.000  98.824  1.00  0.00     0.118 C
BRANCH   6   7
HETATM    7  N2  UNL     1      -2.595  35.155  98.055  1.00  0.00    -0.409 N
HETATM    8  C3  UNL     1      -2.946  34.077  97.208  1.00  0.00     0.136 C
HETATM    9  C2  UNL     1      -4.371  33.689  97.244  1.00  0.00     0.135 C
HETATM   10  N1  UNL     1      -5.311  34.746  97.339  1.00  0.00    -0.414 N
HETATM   11  C1  UNL     1      -6.522  34.368  98.008  1.00  0.00     0.143 C
HETATM   12  C13 UNL     1      -4.789  36.025  97.681  1.00  0.00     0.135 C
HETATM   13  C12 UNL     1      -3.668  35.843  98.680  1.00  0.00     0.136 C
ENDBRANCH   6   7
ENDBRANCH   5   6
ENDBRANCH   4   5
ENDBRANCH   2   4
ENDBRANCH   1   2
BRANCH   1  14
HETATM   14  N4  UNL     1       0.726  35.716 103.260  1.00  0.00    -0.371 N
ATOM     15  H4  UNL     1       0.552  36.021 104.218  1.00  0.00     0.161 HD
BRANCH  14  16
HETATM   16  C8  UNL     1       0.697  34.302 103.089  1.00  0.00     0.123 C
BRANCH  16  17
HETATM   17  C9  UNL     1      -0.625  33.642 103.257  1.00  0.00     0.047 C
BRANCH  17  18
HETATM   18  C10 UNL     1      -1.675  34.601 103.809  1.00  0.00     0.231 C
BRANCH  18  19
HETATM   19  N5  UNL     1      -1.971  34.243 105.179  1.00  0.00    -0.079 N
ATOM     20  H53 UNL     1      -1.277  33.606 105.572  1.00  0.00     0.274 HD
ATOM     21  H52 UNL     1      -1.830  35.022 105.823  1.00  0.00     0.274 HD
ATOM     22  H51 UNL     1      -2.917  33.865 105.230  1.00  0.00     0.274 HD
ENDBRANCH  18  19
ENDBRANCH  17  18
ENDBRANCH  16  17
ENDBRANCH  14  16
ENDBRANCH   1  14
BRANCH   1  23
HETATM   23  S1  UNL     1       1.376  38.259 102.725  1.00  0.00    -0.080 SA
BRANCH  23  24
HETATM   24  C11 UNL     1       1.137  39.796 101.836  1.00  0.00     0.197 C
HETATM   25 CL1  UNL     1       2.535  40.206 100.805  1.00  0.00    -0.119 Cl
ENDBRANCH  23  24
ENDBRANCH   1  23
TORSDOF 12
ENDMDL