MODEL 1
REMARK VINA RESULT: -6.569899841      0.000      0.000
REMARK  10 active torsions:
REMARK  status: ('A' for Active; 'I' for Inactive)
REMARK    1  A    between atoms: C3_4  and  C4_5
REMARK    2  A    between atoms: C4_5  and  O1_6
REMARK    3  A    between atoms: O1_6  and  C5_7
REMARK    4  A    between atoms: C5_7  and  C6_8
REMARK    5  A    between atoms: C6_8  and  N2_9
REMARK    6  A    between atoms: N2_9  and  C7_11
REMARK    7  A    between atoms: C7_11  and  N3_13
REMARK    8  A    between atoms: N3_13  and  C8_15
REMARK    9  A    between atoms: C8_15  and  C9_16
REMARK   10  A    between atoms: C9_16  and  O2_17
ROOT
HETATM    1  C5  UNL     1      -1.696  37.555 102.719  1.00  0.00     0.187 C
ENDROOT
BRANCH   1   2
HETATM    2  O1  UNL     1      -2.742  37.325 101.891  1.00  0.00    -0.389 OA
BRANCH   2   3
HETATM    3  C4  UNL     1      -2.772  36.078 101.332  1.00  0.00     0.173 C
BRANCH   3   4
HETATM    4  C3  UNL     1      -2.804  36.167  99.790  1.00  0.00     0.038 C
HETATM    5  C2  UNL     1      -1.682  35.368  99.221  1.00  0.00     0.278 C
HETATM    6  N1  UNL     1      -2.105  34.564  98.109  1.00  0.00     0.085 N
HETATM    7  C1  UNL     1      -1.041  34.095  97.262  1.00  0.00     0.309 C
HETATM    8  C14 UNL     1      -3.062  35.258  97.268  1.00  0.00     0.280 C
HETATM    9  C11 UNL     1      -4.371  35.338  97.973  1.00  0.00    -0.021 C
HETATM   10  C10 UNL     1      -4.164  35.635  99.414  1.00  0.00     0.019 C
HETATM   11  C12 UNL     1      -5.247  36.421  97.372  1.00  0.00     0.016 C
HETATM   12  C13 UNL     1      -5.155  34.045  97.839  1.00  0.00     0.016 C
ENDBRANCH   3   4
ENDBRANCH   2   3
ENDBRANCH   1   2
BRANCH   1  13
HETATM   13  C6  UNL     1      -0.838  36.357 103.066  1.00  0.00     0.148 C
BRANCH  13  14
HETATM   14  N2  UNL     1       0.511  36.771 103.293  1.00  0.00    -0.365 N
ATOM     15  H2  UNL     1       0.573  37.777 103.451  1.00  0.00     0.161 HD
BRANCH  14  16
HETATM   16  C7  UNL     1       1.740  36.175 103.355  1.00  0.00     0.167 C
HETATM   17  S1  UNL     1       2.929  37.064 102.466  1.00  0.00    -0.041 SA
BRANCH  16  18
HETATM   18  N3  UNL     1       2.196  35.037 103.977  1.00  0.00    -0.365 N
ATOM     19  H3  UNL     1       2.540  35.185 104.926  1.00  0.00     0.161 HD
BRANCH  18  20
HETATM   20  C8  UNL     1       2.272  33.692 103.529  1.00  0.00     0.148 C
BRANCH  20  21
HETATM   21  C9  UNL     1       0.825  33.168 103.459  1.00  0.00     0.183 C
BRANCH  21  22
HETATM   22  O2  UNL     1       0.175  33.373 104.651  1.00  0.00    -0.399 OA
ATOM     23  H2  UNL     1       0.437  32.724 105.293  1.00  0.00     0.209 HD
ENDBRANCH  21  22
ENDBRANCH  20  21
ENDBRANCH  18  20
ENDBRANCH  16  18
ENDBRANCH  14  16
ENDBRANCH  13  14
ENDBRANCH   1  13
TORSDOF 10
ENDMDL