MODEL 4
REMARK VINA RESULT: -7.329512083      2.539      4.666
REMARK  7 active torsions:
REMARK  status: ('A' for Active; 'I' for Inactive)
REMARK    1  A    between atoms: N1_2  and  C2_3
REMARK    2  A    between atoms: N1_2  and  C11_21
REMARK    3  A    between atoms: C2_3  and  C3_4
REMARK    4  A    between atoms: C3_4  and  C4_5
REMARK    5  A    between atoms: C4_5  and  C5_6
REMARK    6  A    between atoms: C5_6  and  N2_7
REMARK    7  A    between atoms: N2_7  and  C6_10
ROOT
HETATM    1  N2  UNL     1      -1.190  35.334 103.567  1.00  0.00    -0.061 N
ATOM      2  H21 UNL     1      -0.503  34.778 104.076  1.00  0.00     0.278 HD
ATOM      3  H22 UNL     1      -1.671  35.757 104.361  1.00  0.00     0.278 HD
ENDROOT
BRANCH   1   4
HETATM    4  C5  UNL     1      -2.066  34.510 102.809  1.00  0.00     0.233 C
BRANCH   4   5
HETATM    5  C4  UNL     1      -3.541  34.831 103.075  1.00  0.00     0.032 C
BRANCH   5   6
HETATM    6  C3  UNL     1      -4.224  35.241 101.825  1.00  0.00     0.046 C
BRANCH   6   7
HETATM    7  C2  UNL     1      -3.399  35.882 100.763  1.00  0.00     0.058 C
BRANCH   7   8
HETATM    8  N1  UNL     1      -3.601  35.438  99.465  1.00  0.00    -0.390 N
HETATM    9  C1  UNL     1      -4.805  35.433  98.787  1.00  0.00     0.149 C
BRANCH   8  10
HETATM   10  C11 UNL     1      -2.406  35.408  98.669  1.00  0.00     0.116 C
HETATM   11  C12 UNL     1      -1.171  34.977  99.376  1.00  0.00     0.028 C
HETATM   12  C13 UNL     1       0.002  35.483  98.570  1.00  0.00     0.002 C
HETATM   13  C14 UNL     1      -0.127  35.492  97.112  1.00  0.00     0.003 C
HETATM   14  C15 UNL     1      -1.449  35.251  96.482  1.00  0.00     0.039 C
HETATM   15  C16 UNL     1      -2.467  34.614  97.408  1.00  0.00     0.193 C
HETATM   16  F1  UNL     1      -2.007  33.313  97.639  1.00  0.00    -0.247 F
ENDBRANCH   8  10
ENDBRANCH   7   8
ENDBRANCH   6   7
ENDBRANCH   5   6
ENDBRANCH   4   5
ENDBRANCH   1   4
BRANCH   1  17
HETATM   17  C6  UNL     1      -0.562  36.320 102.756  1.00  0.00     0.302 C
HETATM   18  C7  UNL     1       0.945  36.368 102.961  1.00  0.00     0.275 C
HETATM   19  N3  UNL     1       1.428  37.650 103.373  1.00  0.00    -0.071 N
HETATM   20  C8  UNL     1       1.787  38.528 102.285  1.00  0.00     0.252 C
ATOM     21  H32 UNL     1       0.753  38.104 103.989  1.00  0.00     0.277 HD
ATOM     22  H31 UNL     1       2.209  37.546 104.020  1.00  0.00     0.277 HD
HETATM   23  C9  UNL     1       0.598  38.982 101.490  1.00  0.00     0.150 C
HETATM   24  N4  UNL     1      -0.575  38.873 102.362  1.00  0.00    -0.358 N
HETATM   25  C10 UNL     1      -1.031  37.721 103.057  1.00  0.00     0.250 C
ATOM     26  H4  UNL     1      -1.128  39.722 102.484  1.00  0.00     0.162 HD
HETATM   27  O1  UNL     1      -1.861  37.908 103.953  1.00  0.00    -0.271 OA
ENDBRANCH   1  17
TORSDOF 7
ENDMDL