MODEL 5
REMARK VINA RESULT: -6.919325779      2.010      2.326
REMARK  10 active torsions:
REMARK  status: ('A' for Active; 'I' for Inactive)
REMARK    1  A    between atoms: C2_2  and  O1_4
REMARK    2  A    between atoms: O1_4  and  C3_5
REMARK    3  A    between atoms: C8_12  and  C9_13
REMARK    4  A    between atoms: C9_13  and  C10_14
REMARK    5  A    between atoms: C10_14  and  C11_15
REMARK    6  A    between atoms: C11_15  and  C12_16
REMARK    7  A    between atoms: C12_16  and  N2_17
REMARK    8  A    between atoms: N2_17  and  C13_19
REMARK    9  A    between atoms: C13_19  and  N3_21
REMARK   10  A    between atoms: N3_21  and  N4_23
ROOT
HETATM    1  C9  UNL     1      -2.901  35.646 102.136  1.00  0.00     0.017 C
ENDROOT
BRANCH   1   2
HETATM    2  C8  UNL     1      -3.546  35.207 100.880  1.00  0.00     0.107 C
HETATM    3  C3  UNL     1      -3.024  36.003  99.661  1.00  0.00     0.139 C
HETATM    4  C4  UNL     1      -3.407  35.113  98.477  1.00  0.00     0.053 C
HETATM    5  C5  UNL     1      -4.885  35.218  98.281  1.00  0.00     0.128 C
HETATM    6  N1  UNL     1      -5.621  35.159  99.501  1.00  0.00    -0.356 N
HETATM    7  C6  UNL     1      -7.039  34.868  99.441  1.00  0.00     0.152 C
HETATM    8  C7  UNL     1      -5.010  35.383 100.791  1.00  0.00     0.226 C
HETATM    9  O2  UNL     1      -5.786  35.706 101.699  1.00  0.00    -0.273 OA
BRANCH   3  10
HETATM   10  O1  UNL     1      -1.679  36.244  99.711  1.00  0.00    -0.351 OA
BRANCH  10  11
HETATM   11  C2  UNL     1      -1.014  35.278  98.965  1.00  0.00     0.303 C
HETATM   12  C1  UNL     1       0.086  35.832  98.093  1.00  0.00     0.076 C
HETATM   13  F1  UNL     1      -0.457  34.418  99.931  1.00  0.00    -0.220 F
ENDBRANCH  10  11
ENDBRANCH   3  10
ENDBRANCH   1   2
BRANCH   1  14
HETATM   14  C10 UNL     1      -2.586  34.503 103.026  1.00  0.00     0.002 C
BRANCH  14  15
HETATM   15  C11 UNL     1      -1.101  34.270 103.229  1.00  0.00     0.020 C
BRANCH  15  16
HETATM   16  C12 UNL     1      -0.260  35.459 102.909  1.00  0.00     0.122 C
BRANCH  16  17
HETATM   17  N2  UNL     1       1.116  35.336 103.287  1.00  0.00    -0.366 N
ATOM     18  H2  UNL     1       1.434  35.916 104.063  1.00  0.00     0.161 HD
BRANCH  17  19
HETATM   19  C13 UNL     1       2.067  34.501 102.696  1.00  0.00     0.185 C
HETATM   20  S1  UNL     1       2.526  33.132 103.440  1.00  0.00    -0.040 SA
BRANCH  19  21
HETATM   21  N3  UNL     1       2.655  34.825 101.457  1.00  0.00    -0.283 N
ATOM     22  H3  UNL     1       2.070  35.218 100.721  1.00  0.00     0.188 HD
BRANCH  21  23
HETATM   23  N4  UNL     1       4.012  34.623 101.203  1.00  0.00    -0.343 N
ATOM     24  H42 UNL     1       4.283  33.782 100.695  1.00  0.00     0.176 HD
ATOM     25  H41 UNL     1       4.725  35.285 101.510  1.00  0.00     0.176 HD
ENDBRANCH  21  23
ENDBRANCH  19  21
ENDBRANCH  17  19
ENDBRANCH  16  17
ENDBRANCH  15  16
ENDBRANCH  14  15
ENDBRANCH   1  14
TORSDOF 10
ENDMDL