MODEL 4
REMARK VINA RESULT: -7.024760822      1.827      3.249
REMARK  7 active torsions:
REMARK  status: ('A' for Active; 'I' for Inactive)
REMARK    1  A    between atoms: N1_2  and  C2_5
REMARK    2  A    between atoms: C2_5  and  C3_6
REMARK    3  A    between atoms: C3_6  and  C4_7
REMARK    4  A    between atoms: C4_7  and  C5_8
REMARK    5  A    between atoms: C5_8  and  C6_9
REMARK       I    between atoms: C6_9  and  N2_11
REMARK    6  A    between atoms: C9_16  and  C10_17
REMARK    7  A    between atoms: C10_17  and  C11_18
ROOT
HETATM    1  C5  UNL     1      -1.285  36.532 101.703  1.00  0.00     0.065 C
HETATM    2  C8  UNL     1      -0.763  36.133 100.380  1.00  0.00     0.187 C
HETATM    3  O2  UNL     1      -1.629  35.082  99.978  1.00  0.00    -0.384 OA
HETATM    4  C9  UNL     1      -2.920  35.556 100.264  1.00  0.00     0.125 C
HETATM    5  C16 UNL     1      -2.753  36.171 101.598  1.00  0.00     0.053 C
ENDROOT
BRANCH   1   6
HETATM    6  C4  UNL     1      -0.616  36.086 102.900  1.00  0.00     0.023 C
BRANCH   6   7
HETATM    7  C3  UNL     1      -0.204  34.727 103.207  1.00  0.00     0.029 C
BRANCH   7   8
HETATM    8  C2  UNL     1      -1.196  33.726 103.630  1.00  0.00     0.231 C
BRANCH   8   9
HETATM    9  N1  UNL     1      -1.996  34.149 104.767  1.00  0.00    -0.079 N
HETATM   10  C1  UNL     1      -3.399  34.033 104.563  1.00  0.00     0.266 C
ATOM     11  H12 UNL     1      -1.751  35.100 105.043  1.00  0.00     0.276 HD
ATOM     12  H11 UNL     1      -1.714  33.648 105.610  1.00  0.00     0.276 HD
ENDBRANCH   8   9
ENDBRANCH   7   8
ENDBRANCH   6   7
ENDBRANCH   1   6
BRANCH   1  13
HETATM   13  C6  UNL     1      -1.291  38.050 101.747  1.00  0.00     0.228 C
HETATM   14  O1  UNL     1      -2.329  38.670 101.966  1.00  0.00    -0.273 OA
HETATM   15  N2  UNL     1      -0.068  38.708 101.528  1.00  0.00    -0.365 N
HETATM   16  C7  UNL     1       0.085  40.148 101.537  1.00  0.00     0.149 C
ATOM     17  H2  UNL     1       0.759  38.138 101.352  1.00  0.00     0.161 HD
ENDBRANCH   1  13
BRANCH   4  18
HETATM   18  C10 UNL     1      -3.453  36.390  99.165  1.00  0.00     0.075 C
BRANCH  18  19
HETATM   19  C11 UNL     1      -4.189  35.719  98.076  1.00  0.00     0.109 C
HETATM   20  F1  UNL     1      -3.494  34.862  97.273  1.00  0.00    -0.243 F
HETATM   21  C12 UNL     1      -5.282  34.849  98.725  1.00  0.00     0.071 C
HETATM   22  C13 UNL     1      -6.487  35.667  99.112  1.00  0.00     0.235 C
HETATM   23  N3  UNL     1      -7.160  36.138  97.930  1.00  0.00    -0.075 N
HETATM   24  C14 UNL     1      -6.261  36.141  96.782  1.00  0.00     0.235 C
ATOM     25  H32 UNL     1      -8.008  35.603  97.743  1.00  0.00     0.277 HD
ATOM     26  H31 UNL     1      -7.584  37.054  98.079  1.00  0.00     0.277 HD
HETATM   27  C15 UNL     1      -4.929  36.719  97.184  1.00  0.00     0.071 C
ENDBRANCH  18  19
ENDBRANCH   4  18
TORSDOF 7
ENDMDL