MODEL 3
REMARK VINA RESULT: -7.679882350      1.061      1.567
REMARK  11 active torsions:
REMARK  status: ('A' for Active; 'I' for Inactive)
REMARK    1  A    between atoms: C2_2  and  O1_6
REMARK    2  A    between atoms: O1_6  and  C3_7
REMARK    3  A    between atoms: C3_7  and  C4_8
REMARK    4  A    between atoms: C3_7  and  C5_11
REMARK    5  A    between atoms: C4_8  and  O2_9
REMARK    6  A    between atoms: C5_11  and  O3_12
REMARK    7  A    between atoms: O3_12  and  N2_13
REMARK    8  A    between atoms: N6_22  and  O4_24
REMARK    9  A    between atoms: C10_27  and  N7_28
REMARK   10  A    between atoms: C10_27  and  N8_32
REMARK   11  A    between atoms: N8_32  and  C11_34
ROOT
HETATM    1  N2  UNL     1       8.891  27.233  17.026  1.00  0.00    -0.117 NA
HETATM    2  C6  UNL     1       7.992  26.708  18.068  1.00  0.00     0.207 C
HETATM    3  N3  UNL     1       6.605  27.104  17.883  1.00  0.00    -0.344 N
ATOM      4  H3  UNL     1       6.207  27.106  16.944  1.00  0.00     0.163 HD
HETATM    5  C7  UNL     1       5.786  27.491  18.996  1.00  0.00     0.191 C
HETATM    6  N4  UNL     1       4.386  27.276  18.981  1.00  0.00    -0.063 NA
HETATM    7  N5  UNL     1       6.359  28.045  20.017  1.00  0.00    -0.318 N
ATOM      8  H5  UNL     1       5.807  28.333  20.825  1.00  0.00     0.169 HD
HETATM    9  C8  UNL     1       7.754  28.244  19.998  1.00  0.00     0.117 C
HETATM   10  N6  UNL     1       8.263  29.096  20.834  1.00  0.00    -0.256 N
ATOM     11  H6  UNL     1       9.272  29.246  20.827  1.00  0.00     0.195 HD
HETATM   12  C9  UNL     1       8.693  27.552  19.092  1.00  0.00     0.170 C
HETATM   13  C10 UNL     1       9.091  28.386  17.872  1.00  0.00     0.305 C
ENDROOT
BRANCH  13  14
HETATM   14  N7  UNL     1       8.130  29.410  17.541  1.00  0.00    -0.035 N
ATOM     15  H73 UNL     1       7.366  29.048  16.970  1.00  0.00     0.279 HD
ATOM     16  H72 UNL     1       7.584  29.700  18.352  1.00  0.00     0.279 HD
ATOM     17  H71 UNL     1       8.602  30.197  17.096  1.00  0.00     0.279 HD
ENDBRANCH  13  14
BRANCH  13  18
HETATM   18  N8  UNL     1      10.417  28.886  17.974  1.00  0.00    -0.176 N
ATOM     19  H8  UNL     1      10.950  28.617  18.800  1.00  0.00     0.181 HD
BRANCH  18  20
HETATM   20  C11 UNL     1      11.066  29.718  17.039  1.00  0.00     0.677 C
HETATM   21  N9  UNL     1      11.649  30.791  17.438  1.00  0.00    -0.225 N
HETATM   22  C12 UNL     1      12.380  31.797  16.646  1.00  0.00     0.157 C
ATOM     23  H9  UNL     1      11.600  30.973  18.440  1.00  0.00     0.177 HD
HETATM   24  C13 UNL     1      11.634  32.217  15.424  1.00  0.00     0.140 C
HETATM   25  N10 UNL     1      11.732  31.200  14.365  1.00  0.00    -0.384 N
HETATM   26  C14 UNL     1      11.461  29.949  14.496  1.00  0.00     0.193 C
ATOM     27  H10 UNL     1      12.042  31.514  13.446  1.00  0.00     0.160 HD
HETATM   28  N11 UNL     1      11.007  29.273  15.692  1.00  0.00    -0.189 N
ATOM     29  H11 UNL     1      10.589  28.354  15.548  1.00  0.00     0.184 HD
ENDBRANCH  18  20
ENDBRANCH  13  18
BRANCH   1  30
HETATM   30  O3  UNL     1       8.153  27.445  15.915  1.00  0.00    -0.295 OA
BRANCH  30  31
HETATM   31  C5  UNL     1       8.371  26.473  14.943  1.00  0.00     0.229 C
BRANCH  31  32
HETATM   32  C3  UNL     1       7.080  26.090  14.282  1.00  0.00     0.179 C
BRANCH  32  33
HETATM   33  O1  UNL     1       6.539  24.874  14.613  1.00  0.00    -0.330 OA
BRANCH  33  34
HETATM   34  C2  UNL     1       5.228  24.591  14.854  1.00  0.00     0.108 C
HETATM   35  C1  UNL     1       4.664  24.642  16.265  1.00  0.00     0.097 C
HETATM   36  N1  UNL     1       4.453  24.280  13.897  1.00  0.00    -0.384 N
ATOM     37  H12 UNL     1       3.471  24.068  14.077  1.00  0.00     0.157 HD
ATOM     38  H11 UNL     1       4.831  24.246  12.950  1.00  0.00     0.157 HD
ENDBRANCH  33  34
ENDBRANCH  32  33
BRANCH  32  39
HETATM   39  C4  UNL     1       6.977  26.502  12.832  1.00  0.00     0.198 C
BRANCH  39  40
HETATM   40  O2  UNL     1       5.694  27.066  12.678  1.00  0.00    -0.398 OA
ATOM     41  H2  UNL     1       5.513  27.056  11.745  1.00  0.00     0.209 HD
ENDBRANCH  39  40
ENDBRANCH  32  39
ENDBRANCH  31  32
ENDBRANCH  30  31
ENDBRANCH   1  30
BRANCH  10  42
HETATM   42  O4  UNL     1       7.505  29.798  21.720  1.00  0.00    -0.288 OA
ATOM     43  H4  UNL     1       7.661  29.780  22.657  1.00  0.00     0.244 HD
ENDBRANCH  10  42
TORSDOF 11
ENDMDL