MODEL 4
REMARK VINA RESULT: -7.414988643      1.137      1.174
REMARK  12 active torsions:
REMARK  status: ('A' for Active; 'I' for Inactive)
REMARK    1  A    between atoms: N1_1  and  C1_4
REMARK    2  A    between atoms: C2_7  and  O1_8
REMARK    3  A    between atoms: C3_10  and  C4_11
REMARK    4  A    between atoms: C4_11  and  C5_12
REMARK    5  A    between atoms: C7_17  and  N5_18
REMARK    6  A    between atoms: N5_18  and  C8_20
REMARK    7  A    between atoms: C8_20  and  S1_21
REMARK    8  A    between atoms: S1_21  and  C9_22
REMARK    9  A    between atoms: C9_22  and  C10_23
REMARK   10  A    between atoms: C10_23  and  N6_24
REMARK   11  A    between atoms: C10_23  and  C11_28
REMARK   12  A    between atoms: C13_38  and  N10_39
ROOT
HETATM    1  C5  UNL     1      11.685  28.684  16.618  1.00  0.00     0.030 A
HETATM    2  C6  UNL     1      12.888  28.092  16.318  1.00  0.00     0.123 A
HETATM    3  N3  UNL     1      13.752  29.070  16.029  1.00  0.00    -0.288 N
ATOM      4  H3  UNL     1      14.728  28.929  15.767  1.00  0.00     0.187 HD
HETATM    5  N4  UNL     1      13.160  30.244  16.131  1.00  0.00    -0.067 N
HETATM    6  C7  UNL     1      13.644  31.503  15.932  1.00  0.00     0.717 A
HETATM    7  N7  UNL     1      12.787  32.506  16.115  1.00  0.00    -0.116 N
ATOM      8  H7  UNL     1      13.123  33.458  15.973  1.00  0.00     0.207 HD
HETATM    9  N8  UNL     1      11.542  32.339  16.468  1.00  0.00    -0.227 N
ATOM     10  H8  UNL     1      10.935  33.148  16.594  1.00  0.00     0.209 HD
HETATM   11  N9  UNL     1      11.068  31.121  16.661  1.00  0.00    -0.268 N
ATOM     12  H9  UNL     1      10.095  30.986  16.935  1.00  0.00     0.190 HD
HETATM   13  C12 UNL     1      11.891  30.043  16.491  1.00  0.00     0.172 A
ENDROOT
BRANCH   1  14
HETATM   14  C4  UNL     1      10.539  28.115  16.963  1.00  0.00     0.036 C
BRANCH  14  15
HETATM   15  C3  UNL     1      10.036  28.161  18.324  1.00  0.00     0.060 A
HETATM   16  C2  UNL     1       9.074  29.074  18.731  1.00  0.00     0.169 A
HETATM   17  N2  UNL     1       8.630  29.087  20.001  1.00  0.00    -0.170 N
HETATM   18  C1  UNL     1       9.108  28.210  20.929  1.00  0.00     0.679 A
ATOM     19  H2  UNL     1       7.922  29.768  20.275  1.00  0.00     0.186 HD
HETATM   20  N11 UNL     1      10.042  27.316  20.558  1.00  0.00    -0.176 N
HETATM   21  C13 UNL     1      10.494  27.290  19.291  1.00  0.00     0.129 A
ATOM     22  H11 UNL     1      10.410  26.653  21.241  1.00  0.00     0.186 HD
BRANCH  16  23
HETATM   23  O1  UNL     1       8.562  29.986  17.810  1.00  0.00    -0.345 OA
ATOM     24  H1  UNL     1       8.987  30.094  16.968  1.00  0.00     0.219 HD
ENDBRANCH  16  23
BRANCH  18  25
HETATM   25  N1  UNL     1       8.695  28.209  22.150  1.00  0.00    -0.234 N
ATOM     26  H12 UNL     1       7.877  28.767  22.395  1.00  0.00     0.174 HD
ATOM     27  H11 UNL     1       9.159  27.668  22.881  1.00  0.00     0.174 HD
ENDBRANCH  18  25
BRANCH  21  28
HETATM   28  N10 UNL     1      11.390  26.414  18.982  1.00  0.00    -0.384 N
ATOM     29 2H10 UNL     1      11.076  25.508  18.633  1.00  0.00     0.157 HD
ATOM     30 1H10 UNL     1      12.377  26.645  19.092  1.00  0.00     0.157 HD
ENDBRANCH  21  28
ENDBRANCH  14  15
ENDBRANCH   1  14
BRANCH   6  31
HETATM   31  N5  UNL     1      14.868  31.632  15.589  1.00  0.00    -0.214 N
ATOM     32  H5  UNL     1      15.583  31.151  16.135  1.00  0.00     0.178 HD
BRANCH  31  33
HETATM   33  C8  UNL     1      15.279  32.431  14.461  1.00  0.00     0.212 C
BRANCH  33  34
HETATM   34  S1  UNL     1      14.555  31.769  12.956  1.00  0.00    -0.146 SA
BRANCH  34  35
HETATM   35  C9  UNL     1      13.592  32.993  12.071  1.00  0.00     0.119 C
BRANCH  35  36
HETATM   36  C10 UNL     1      12.396  33.476  12.894  1.00  0.00     0.292 C
BRANCH  36  37
HETATM   37  N6  UNL     1      12.037  34.787  12.384  1.00  0.00    -0.065 N
ATOM     38  H63 UNL     1      11.169  35.148  12.780  1.00  0.00     0.275 HD
ATOM     39  H62 UNL     1      12.651  35.529  12.719  1.00  0.00     0.275 HD
ATOM     40  H61 UNL     1      12.015  34.712  11.367  1.00  0.00     0.275 HD
ENDBRANCH  36  37
BRANCH  36  41
HETATM   41  C11 UNL     1      11.269  32.525  12.793  1.00  0.00     0.205 C
HETATM   42  O2  UNL     1      11.008  31.998  11.687  1.00  0.00    -0.646 OA
HETATM   43  O3  UNL     1      10.494  32.202  13.893  1.00  0.00    -0.646 OA
ENDBRANCH  36  41
ENDBRANCH  35  36
ENDBRANCH  34  35
ENDBRANCH  33  34
ENDBRANCH  31  33
ENDBRANCH   6  31
TORSDOF 12
ENDMDL