MODEL 3
REMARK VINA RESULT: -7.883057206      2.317      4.794
REMARK  11 active torsions:
REMARK  status: ('A' for Active; 'I' for Inactive)
REMARK    1  A    between atoms: N1_1  and  C1_4
REMARK    2  A    between atoms: C2_7  and  N3_8
REMARK    3  A    between atoms: N3_8  and  C3_9
REMARK    4  A    between atoms: N3_8  and  C4_12
REMARK    5  A    between atoms: C3_9  and  O1_10
REMARK    6  A    between atoms: C4_12  and  C5_13
REMARK    7  A    between atoms: C5_13  and  C6_14
REMARK    8  A    between atoms: C10_20  and  N5_21
REMARK    9  A    between atoms: C11_23  and  O2_25
REMARK   10  A    between atoms: C14_32  and  N9_33
REMARK   11  A    between atoms: N10_36  and  C15_37
ROOT
HETATM    1  N3  UNL     1       9.543  25.334  15.189  1.00  0.00    -0.195 N
ENDROOT
BRANCH   1   2
HETATM    2  C2  UNL     1       9.924  24.551  16.316  1.00  0.00     0.711 A
HETATM    3  N2  UNL     1       9.822  23.224  16.334  1.00  0.00    -0.021 N
HETATM    4  C1  UNL     1      10.183  22.523  17.422  1.00  0.00     0.710 A
ATOM      5  H2  UNL     1       9.465  22.734  15.513  1.00  0.00     0.203 HD
HETATM    6  N10 UNL     1      10.658  23.083  18.538  1.00  0.00     0.032 N
HETATM    7  C14 UNL     1      10.763  24.439  18.516  1.00  0.00     0.710 A
HETATM    8  N8  UNL     1      10.401  25.143  17.425  1.00  0.00    -0.021 N
ATOM      9  H8  UNL     1      10.491  26.159  17.442  1.00  0.00     0.203 HD
BRANCH   4  10
HETATM   10  N1  UNL     1      10.082  21.238  17.356  1.00  0.00    -0.233 N
ATOM     11  H12 UNL     1       9.274  20.780  17.779  1.00  0.00     0.174 HD
ATOM     12  H11 UNL     1      10.838  20.734  16.893  1.00  0.00     0.174 HD
ENDBRANCH   4  10
BRANCH   6  13
HETATM   13  C15 UNL     1      11.025  22.348  19.698  1.00  0.00     0.404 C
HETATM   14  N11 UNL     1      10.094  21.292  20.132  1.00  0.00    -0.063 NA
HETATM   15  N12 UNL     1      11.247  20.466  20.416  1.00  0.00     0.019 NA
HETATM   16  O3  UNL     1      11.831  21.211  19.421  1.00  0.00    -0.223 OA
ENDBRANCH   6  13
BRANCH   7  17
HETATM   17  N9  UNL     1      11.232  25.102  19.523  1.00  0.00    -0.233 N
ATOM     18  H92 UNL     1      11.300  26.119  19.511  1.00  0.00     0.174 HD
ATOM     19  H91 UNL     1      11.518  24.568  20.344  1.00  0.00     0.174 HD
ENDBRANCH   7  17
ENDBRANCH   1   2
BRANCH   1  20
HETATM   20  C3  UNL     1      10.534  26.228  14.620  1.00  0.00     0.308 C
BRANCH  20  21
HETATM   21  O1  UNL     1      11.833  25.716  14.836  1.00  0.00    -0.381 OA
ATOM     22  H1  UNL     1      12.143  25.964  15.699  1.00  0.00     0.211 HD
ENDBRANCH  20  21
ENDBRANCH   1  20
BRANCH   1  23
HETATM   23  C4  UNL     1       8.269  25.335  14.549  1.00  0.00     0.149 C
BRANCH  23  24
HETATM   24  C5  UNL     1       7.462  26.573  14.601  1.00  0.00     0.079 C
BRANCH  24  25
HETATM   25  C6  UNL     1       6.782  26.573  15.951  1.00  0.00     0.035 A
HETATM   26  C7  UNL     1       5.593  25.972  16.298  1.00  0.00     0.115 A
HETATM   27  N4  UNL     1       5.346  26.208  17.582  1.00  0.00    -0.350 N
HETATM   28  C8  UNL     1       6.353  26.949  18.071  1.00  0.00     0.113 A
ATOM     29  H4  UNL     1       4.533  25.882  18.104  1.00  0.00     0.166 HD
HETATM   30  C9  UNL     1       6.558  27.448  19.345  1.00  0.00     0.078 A
HETATM   31  N7  UNL     1       7.233  27.173  17.080  1.00  0.00    -0.311 N
HETATM   32  C10 UNL     1       7.694  28.188  19.575  1.00  0.00     0.039 A
HETATM   33  C12 UNL     1       8.589  28.413  18.552  1.00  0.00     0.047 A
HETATM   34  C13 UNL     1       8.339  27.895  17.306  1.00  0.00     0.101 A
BRANCH  32  35
HETATM   35  N5  UNL     1       7.937  28.715  20.866  1.00  0.00    -0.325 N
HETATM   36  C11 UNL     1       8.688  28.132  21.720  1.00  0.00     0.229 C
HETATM   37  N6  UNL     1       8.895  28.702  22.994  1.00  0.00    -0.056 NA
ATOM     38  H5  UNL     1       7.493  29.595  21.126  1.00  0.00     0.169 HD
BRANCH  36  39
HETATM   39  O2  UNL     1       9.298  26.941  21.397  1.00  0.00    -0.335 OA
ATOM     40  H2  UNL     1       8.782  26.146  21.337  1.00  0.00     0.220 HD
ENDBRANCH  36  39
ENDBRANCH  32  35
ENDBRANCH  24  25
ENDBRANCH  23  24
ENDBRANCH   1  23
TORSDOF 11
ENDMDL