MODEL 1
REMARK VINA RESULT: -7.874858669      0.000      0.000
REMARK  13 active torsions:
REMARK  status: ('A' for Active; 'I' for Inactive)
REMARK    1  A    between atoms: N2_3  and  C2_5
REMARK    2  A    between atoms: C2_5  and  N3_6
REMARK    3  A    between atoms: C2_5  and  C4_11
REMARK       I    between atoms: N3_6  and  C3_8
REMARK    4  A    between atoms: C5_12  and  N5_13
REMARK    5  A    between atoms: C6_18  and  C7_19
REMARK    6  A    between atoms: C7_19  and  N8_20
REMARK    7  A    between atoms: C7_19  and  C8_24
REMARK    8  A    between atoms: C8_24  and  O2_25
REMARK    9  A    between atoms: C8_24  and  C9_27
REMARK   10  A    between atoms: C9_27  and  O3_28
REMARK   11  A    between atoms: C10_30  and  O4_31
REMARK   12  A    between atoms: C12_36  and  C13_37
REMARK   13  A    between atoms: C14_40  and  O7_41
ROOT
HETATM    1  C1  UNL     1       5.645  27.944  19.028  1.00  0.00     0.258 C
HETATM    2  N1  UNL     1       6.688  27.928  18.574  1.00  0.00    -0.348 NA
HETATM    3  N2  UNL     1       7.920  27.924  18.061  1.00  0.00    -0.219 N
ATOM      4  H2  UNL     1       8.050  27.410  17.189  1.00  0.00     0.203 HD
ENDROOT
BRANCH   3   5
HETATM    5  C2  UNL     1       8.960  28.499  18.550  1.00  0.00     0.150 C
BRANCH   5   6
HETATM    6  N3  UNL     1       8.972  28.850  19.915  1.00  0.00    -0.295 N
HETATM    7  C3  UNL     1       8.938  27.975  21.015  1.00  0.00     0.334 C
HETATM    8  N4  UNL     1       8.947  28.483  22.338  1.00  0.00    -0.040 NA
HETATM    9  O1  UNL     1       8.900  26.735  20.855  1.00  0.00    -0.251 OA
ATOM     10  H3  UNL     1       9.009  29.847  20.127  1.00  0.00     0.172 HD
ENDBRANCH   5   6
BRANCH   5  11
HETATM   11  C4  UNL     1      10.087  28.767  17.698  1.00  0.00     0.076 A
HETATM   12  C5  UNL     1      11.140  27.909  17.632  1.00  0.00     0.092 A
HETATM   13  C11 UNL     1      12.212  28.197  16.801  1.00  0.00     0.121 A
HETATM   14  N9  UNL     1      12.228  29.300  16.067  1.00  0.00    -0.356 N
HETATM   15  C12 UNL     1      11.191  30.186  16.106  1.00  0.00     0.144 A
ATOM     16  H9  UNL     1      13.029  29.490  15.464  1.00  0.00     0.165 HD
HETATM   17  C14 UNL     1      10.101  29.948  16.916  1.00  0.00     0.115 A
BRANCH  12  18
HETATM   18  N5  UNL     1      11.160  26.720  18.397  1.00  0.00    -0.216 N
HETATM   19  N6  UNL     1      11.705  26.400  19.527  1.00  0.00    -0.233 N
HETATM   20  N7  UNL     1      11.454  25.149  19.872  1.00  0.00    -0.283 N
ATOM     21  H6  UNL     1      12.265  27.042  20.089  1.00  0.00     0.209 HD
HETATM   22  C6  UNL     1      10.704  24.602  18.927  1.00  0.00     0.113 A
ATOM     23  H7  UNL     1      11.781  24.684  20.719  1.00  0.00     0.188 HD
HETATM   24  C10 UNL     1      10.510  25.588  17.987  1.00  0.00     0.190 A
BRANCH  22  25
HETATM   25  C7  UNL     1      10.150  23.235  18.820  1.00  0.00     0.269 C
BRANCH  25  26
HETATM   26  N8  UNL     1      10.377  22.759  17.439  1.00  0.00    -0.067 N
ATOM     27  H83 UNL     1       9.825  23.269  16.750  1.00  0.00     0.275 HD
ATOM     28  H82 UNL     1      11.301  23.006  17.084  1.00  0.00     0.275 HD
ATOM     29  H81 UNL     1      10.202  21.754  17.421  1.00  0.00     0.275 HD
ENDBRANCH  25  26
BRANCH  25  30
HETATM   30  C8  UNL     1      10.879  22.253  19.692  1.00  0.00     0.178 C
BRANCH  30  31
HETATM   31  O2  UNL     1      12.231  22.303  19.260  1.00  0.00    -0.391 OA
ATOM     32  H2  UNL     1      12.671  22.866  19.887  1.00  0.00     0.210 HD
ENDBRANCH  30  31
BRANCH  30  33
HETATM   33  C9  UNL     1      10.432  20.819  19.495  1.00  0.00     0.198 C
BRANCH  33  34
HETATM   34  O3  UNL     1      11.246  20.304  18.458  1.00  0.00    -0.398 OA
ATOM     35  H3  UNL     1      11.766  19.616  18.857  1.00  0.00     0.209 HD
ENDBRANCH  33  34
ENDBRANCH  30  33
ENDBRANCH  25  30
ENDBRANCH  22  25
BRANCH  24  36
HETATM   36  O4  UNL     1       9.775  25.443  16.819  1.00  0.00    -0.343 OA
ATOM     37  H4  UNL     1       9.086  24.807  16.664  1.00  0.00     0.219 HD
ENDBRANCH  24  36
ENDBRANCH  12  18
BRANCH  15  38
HETATM   38  C13 UNL     1      11.302  31.360  15.269  1.00  0.00     0.229 C
HETATM   39  O5  UNL     1      10.321  31.965  14.836  1.00  0.00    -0.643 OA
HETATM   40  O6  UNL     1      12.590  31.822  14.940  1.00  0.00    -0.643 OA
ENDBRANCH  15  38
BRANCH  17  41
HETATM   41  O7  UNL     1       9.005  30.754  17.042  1.00  0.00    -0.357 OA
ATOM     42  H7  UNL     1       8.531  30.933  16.238  1.00  0.00     0.217 HD
ENDBRANCH  17  41
ENDBRANCH   5  11
ENDBRANCH   3   5
TORSDOF 13
ENDMDL