MODEL 1
REMARK VINA RESULT: -8.180737134      0.000      0.000
REMARK  11 active torsions:
REMARK  status: ('A' for Active; 'I' for Inactive)
REMARK    1  A    between atoms: C3_3  and  C4_4
REMARK    2  A    between atoms: N2_6  and  N3_8
REMARK    3  A    between atoms: N8_19  and  C8_20
REMARK    4  A    between atoms: C8_20  and  C9_21
REMARK    5  A    between atoms: C8_20  and  N9_24
REMARK    6  A    between atoms: C9_21  and  O1_22
REMARK    7  A    between atoms: N9_24  and  N10_26
REMARK    8  A    between atoms: N10_26  and  C10_28
REMARK    9  A    between atoms: C11_31  and  C12_32
REMARK   10  A    between atoms: C12_32  and  O2_33
REMARK   11  A    between atoms: C12_32  and  O3_35
ROOT
HETATM    1  C8  UNL     1      15.136  29.718  14.931  1.00  0.00     0.243 C
ENDROOT
BRANCH   1   2
HETATM    2  N8  UNL     1      14.070  30.301  15.723  1.00  0.00    -0.251 N
HETATM    3  C2  UNL     1      12.865  29.735  15.923  1.00  0.00     0.056 A
HETATM    4  C1  UNL     1      12.402  28.419  15.376  1.00  0.00     0.072 C
HETATM    5  C3  UNL     1      12.087  30.554  16.724  1.00  0.00     0.112 A
HETATM    6  N6  UNL     1      12.873  31.615  16.985  1.00  0.00    -0.279 N
HETATM    7  N7  UNL     1      14.041  31.447  16.386  1.00  0.00    -0.017 NA
ATOM      8  H6  UNL     1      12.611  32.420  17.555  1.00  0.00     0.184 HD
BRANCH   5   9
HETATM    9  C4  UNL     1      10.724  30.295  17.165  1.00  0.00     0.161 C
HETATM   10  N1  UNL     1       9.645  31.017  16.602  1.00  0.00    -0.079 NA
HETATM   11  N2  UNL     1      10.465  29.416  18.065  1.00  0.00    -0.272 N
ATOM     12  H2  UNL     1      11.257  28.908  18.457  1.00  0.00     0.189 HD
BRANCH  11  13
HETATM   13  N3  UNL     1       9.217  29.099  18.548  1.00  0.00    -0.234 N
HETATM   14  C5  UNL     1       8.353  28.259  17.780  1.00  0.00     0.192 C
HETATM   15  C6  UNL     1       7.661  27.290  18.686  1.00  0.00     0.256 C
HETATM   16  N4  UNL     1       7.298  27.812  19.969  1.00  0.00    -0.059 N
HETATM   17  C7  UNL     1       8.443  28.466  20.618  1.00  0.00     0.368 C
ATOM     18  H42 UNL     1       6.495  28.437  19.905  1.00  0.00     0.278 HD
ATOM     19  H41 UNL     1       6.890  27.092  20.565  1.00  0.00     0.278 HD
HETATM   20  N5  UNL     1       8.780  29.595  19.796  1.00  0.00    -0.096 NA
ENDBRANCH  11  13
ENDBRANCH   5   9
ENDBRANCH   1   2
BRANCH   1  21
HETATM   21  C9  UNL     1      16.225  29.158  15.860  1.00  0.00     0.213 C
BRANCH  21  22
HETATM   22  O1  UNL     1      15.656  28.787  17.077  1.00  0.00    -0.397 OA
ATOM     23  H1  UNL     1      16.225  29.056  17.789  1.00  0.00     0.209 HD
ENDBRANCH  21  22
ENDBRANCH   1  21
BRANCH   1  24
HETATM   24  N9  UNL     1      15.792  30.705  14.105  1.00  0.00    -0.295 N
ATOM     25  H9  UNL     1      16.567  31.224  14.520  1.00  0.00     0.183 HD
BRANCH  24  26
HETATM   26  N10 UNL     1      15.459  31.001  12.813  1.00  0.00    -0.134 N
ATOM     27  H10 UNL     1      16.015  30.602  12.056  1.00  0.00     0.205 HD
BRANCH  26  28
HETATM   28  C10 UNL     1      14.434  31.791  12.513  1.00  0.00     0.703 A
HETATM   29  N11 UNL     1      13.957  32.598  13.424  1.00  0.00    -0.181 N
HETATM   30  C11 UNL     1      12.939  33.380  13.120  1.00  0.00     0.139 A
ATOM     31  H11 UNL     1      14.366  32.623  14.358  1.00  0.00     0.185 HD
HETATM   32  S1  UNL     1      12.649  32.960  11.494  1.00  0.00     0.021 SA
HETATM   33  N12 UNL     1      13.857  31.803  11.307  1.00  0.00    -0.157 N
ATOM     34  H12 UNL     1      14.089  31.250  10.482  1.00  0.00     0.193 HD
BRANCH  30  35
HETATM   35  C12 UNL     1      12.260  34.369  14.034  1.00  0.00     0.314 C
BRANCH  35  36
HETATM   36  O2  UNL     1      11.892  33.741  15.204  1.00  0.00    -0.365 OA
ATOM     37  H2  UNL     1      12.547  33.903  15.872  1.00  0.00     0.213 HD
ENDBRANCH  35  36
BRANCH  35  38
HETATM   38  O3  UNL     1      11.139  34.909  13.437  1.00  0.00    -0.365 OA
ATOM     39  H3  UNL     1      11.217  35.852  13.350  1.00  0.00     0.213 HD
ENDBRANCH  35  38
ENDBRANCH  30  35
ENDBRANCH  26  28
ENDBRANCH  24  26
ENDBRANCH   1  24
TORSDOF 11
ENDMDL