MODEL 1
REMARK VINA RESULT: -7.877829838      0.000      0.000
REMARK  12 active torsions:
REMARK  status: ('A' for Active; 'I' for Inactive)
REMARK    1  A    between atoms: C2_2  and  N1_4
REMARK    2  A    between atoms: C2_2  and  N3_8
REMARK    3  A    between atoms: N1_4  and  N2_5
REMARK    4  A    between atoms: N3_8  and  C4_9
REMARK    5  A    between atoms: N3_8  and  N12_32
REMARK    6  A    between atoms: C4_9  and  O1_10
REMARK    7  A    between atoms: C5_12  and  N4_13
REMARK    8  A    between atoms: C7_19  and  N8_20
REMARK    9  A    between atoms: C8_25  and  N10_26
REMARK   10  A    between atoms: C12_36  and  C13_37
REMARK   11  A    between atoms: C13_37  and  C14_38
REMARK   12  A    between atoms: C14_38  and  N13_39
ROOT
HETATM    1  C4  UNL     1      11.956  30.858  16.405  1.00  0.00     0.172 C
HETATM    2  C5  UNL     1      11.073  29.731  16.271  1.00  0.00     0.175 C
ENDROOT
BRANCH   1   3
HETATM    3  N3  UNL     1      12.943  31.336  15.547  1.00  0.00    -0.260 N
BRANCH   3   4
HETATM    4  C2  UNL     1      14.351  31.156  15.761  1.00  0.00     0.133 C
HETATM    5  C1  UNL     1      14.886  29.940  14.937  1.00  0.00     0.061 C
HETATM    6  C3  UNL     1      15.025  32.321  14.997  1.00  0.00     0.061 C
BRANCH   4   7
HETATM    7  N1  UNL     1      14.831  30.985  17.070  1.00  0.00    -0.115 NA
BRANCH   7   8
HETATM    8  N2  UNL     1      15.137  29.674  17.338  1.00  0.00    -0.346 N
ATOM      9  H22 UNL     1      14.431  28.966  17.541  1.00  0.00     0.172 HD
ATOM     10  H21 UNL     1      16.143  29.502  17.310  1.00  0.00     0.172 HD
ENDBRANCH   7   8
ENDBRANCH   4   7
ENDBRANCH   3   4
BRANCH   3  11
HETATM   11  N12 UNL     1      12.639  32.051  14.386  1.00  0.00    -0.194 NA
HETATM   12  C10 UNL     1      11.975  33.308  14.574  1.00  0.00     0.143 C
HETATM   13  C11 UNL     1      11.735  33.690  13.105  1.00  0.00     0.186 C
HETATM   14  O2  UNL     1      11.878  32.500  12.400  1.00  0.00    -0.368 OA
HETATM   15  C12 UNL     1      11.849  31.477  13.382  1.00  0.00     0.216 C
BRANCH  15  16
HETATM   16  C13 UNL     1      12.220  30.150  12.845  1.00  0.00     0.077 C
BRANCH  16  17
HETATM   17  C14 UNL     1      12.905  30.230  11.490  1.00  0.00     0.233 C
BRANCH  17  18
HETATM   18  N13 UNL     1      14.123  30.983  11.675  1.00  0.00    -0.079 N
ATOM     19 3H13 UNL     1      14.866  30.440  12.115  1.00  0.00     0.274 HD
ATOM     20 2H13 UNL     1      14.607  31.182  10.799  1.00  0.00     0.274 HD
ATOM     21 1H13 UNL     1      13.879  31.825  12.197  1.00  0.00     0.274 HD
ENDBRANCH  17  18
ENDBRANCH  16  17
ENDBRANCH  15  16
ENDBRANCH   3  11
ENDBRANCH   1   3
BRANCH   1  22
HETATM   22  O1  UNL     1      11.770  31.532  17.517  1.00  0.00    -0.344 OA
ATOM     23  H1  UNL     1      11.686  31.020  18.313  1.00  0.00     0.219 HD
ENDBRANCH   1  22
BRANCH   2  24
HETATM   24  N4  UNL     1      11.272  28.588  17.109  1.00  0.00    -0.121 N
HETATM   25  C6  UNL     1      12.235  27.635  16.912  1.00  0.00     0.230 A
HETATM   26  N5  UNL     1      13.143  27.551  15.828  1.00  0.00    -0.061 NA
HETATM   27  N6  UNL     1      12.177  26.772  17.936  1.00  0.00    -0.236 N
HETATM   28  N7  UNL     1      11.223  27.154  18.754  1.00  0.00     0.094 N
ATOM     29  H6  UNL     1      12.775  25.954  18.059  1.00  0.00     0.191 HD
HETATM   30  C7  UNL     1      10.785  26.649  19.916  1.00  0.00     0.727 A
HETATM   31  C9  UNL     1      10.665  28.271  18.248  1.00  0.00     0.742 A
HETATM   32  N9  UNL     1       9.793  27.234  20.603  1.00  0.00    -0.020 N
HETATM   33  C8  UNL     1       9.207  28.350  20.141  1.00  0.00     0.705 A
ATOM     34  H9  UNL     1       9.481  26.827  21.485  1.00  0.00     0.203 HD
HETATM   35  N11 UNL     1       9.669  28.821  18.981  1.00  0.00    -0.019 N
ATOM     36  H11 UNL     1       9.235  29.668  18.615  1.00  0.00     0.203 HD
BRANCH  30  37
HETATM   37  N8  UNL     1      11.306  25.574  20.420  1.00  0.00    -0.232 N
ATOM     38  H82 UNL     1      12.240  25.651  20.823  1.00  0.00     0.174 HD
ATOM     39  H81 UNL     1      10.800  24.688  20.413  1.00  0.00     0.174 HD
ENDBRANCH  30  37
BRANCH  33  40
HETATM   40  N10 UNL     1       8.243  28.943  20.778  1.00  0.00    -0.234 N
ATOM     41 2H10 UNL     1       7.764  28.494  21.558  1.00  0.00     0.174 HD
ATOM     42 1H10 UNL     1       7.922  29.880  20.533  1.00  0.00     0.174 HD
ENDBRANCH  33  40
ENDBRANCH   2  24
TORSDOF 12
ENDMDL