MODEL 3
REMARK VINA RESULT: -8.919601880      2.133      3.225
REMARK  11 active torsions:
REMARK  status: ('A' for Active; 'I' for Inactive)
REMARK    1  A    between atoms: N1_1  and  C1_5
REMARK    2  A    between atoms: C1_5  and  C2_6
REMARK    3  A    between atoms: C2_6  and  O2_8
REMARK    4  A    between atoms: O2_8  and  C3_9
REMARK    5  A    between atoms: C4_10  and  C5_11
REMARK    6  A    between atoms: N2_12  and  N3_14
REMARK       I    between atoms: N3_14  and  C6_16
REMARK    7  A    between atoms: N5_18  and  N6_20
REMARK    8  A    between atoms: N6_20  and  C7_22
REMARK    9  A    between atoms: N10_29  and  C8_30
REMARK   10  A    between atoms: C13_39  and  O3_40
REMARK   11  A    between atoms: C14_42  and  O4_43
ROOT
HETATM    1  N3  UNL     1      10.031  28.940  16.295  1.00  0.00    -0.273 N
ATOM      2  H3  UNL     1       9.212  29.385  15.881  1.00  0.00     0.189 HD
HETATM    3  C6  UNL     1      11.120  29.724  16.746  1.00  0.00     0.222 C
HETATM    4  N4  UNL     1      10.884  30.945  17.410  1.00  0.00    -0.061 NA
HETATM    5  N5  UNL     1      12.312  29.318  16.548  1.00  0.00    -0.258 N
ATOM      6  H5  UNL     1      12.467  28.432  16.067  1.00  0.00     0.190 HD
ENDROOT
BRANCH   1   7
HETATM    7  N2  UNL     1      10.087  27.599  16.420  1.00  0.00    -0.309 N
HETATM    8  C5  UNL     1       9.328  26.678  16.813  1.00  0.00     0.121 C
ATOM      9  H2  UNL     1      10.988  27.233  16.113  1.00  0.00     0.186 HD
BRANCH   8  10
HETATM   10  C4  UNL     1       7.979  26.763  17.323  1.00  0.00     0.018 A
HETATM   11  C3  UNL     1       7.764  27.577  18.436  1.00  0.00     0.126 A
HETATM   12  C14 UNL     1       6.486  27.668  18.932  1.00  0.00     0.134 A
HETATM   13  C13 UNL     1       5.422  26.993  18.376  1.00  0.00     0.101 A
HETATM   14  C12 UNL     1       5.674  26.191  17.268  1.00  0.00     0.040 A
HETATM   15  C11 UNL     1       6.955  26.072  16.734  1.00  0.00     0.018 A
BRANCH  11  16
HETATM   16  O2  UNL     1       8.813  28.276  19.028  1.00  0.00    -0.274 OA
BRANCH  16  17
HETATM   17  C2  UNL     1       9.631  27.657  19.956  1.00  0.00     0.289 C
HETATM   18  O1  UNL     1      10.796  27.337  19.605  1.00  0.00    -0.263 OA
BRANCH  17  19
HETATM   19  C1  UNL     1       9.186  27.359  21.346  1.00  0.00     0.340 C
BRANCH  19  20
HETATM   20  N1  UNL     1       8.620  28.548  21.947  1.00  0.00    -0.070 N
ATOM     21  H13 UNL     1       7.830  28.330  22.555  1.00  0.00     0.274 HD
ATOM     22  H12 UNL     1       9.240  28.954  22.648  1.00  0.00     0.274 HD
ATOM     23  H11 UNL     1       8.371  29.219  21.222  1.00  0.00     0.274 HD
ENDBRANCH  19  20
ENDBRANCH  17  19
ENDBRANCH  16  17
ENDBRANCH  11  16
BRANCH  12  24
HETATM   24  O4  UNL     1       6.252  28.469  20.033  1.00  0.00    -0.356 OA
ATOM     25  H4  UNL     1       5.390  28.460  20.433  1.00  0.00     0.218 HD
ENDBRANCH  12  24
BRANCH  13  26
HETATM   26  O3  UNL     1       4.136  27.099  18.894  1.00  0.00    -0.358 OA
ATOM     27  H3  UNL     1       3.760  26.391  19.404  1.00  0.00     0.217 HD
ENDBRANCH  13  26
ENDBRANCH   8  10
ENDBRANCH   1   7
BRANCH   5  28
HETATM   28  N6  UNL     1      13.398  30.060  16.976  1.00  0.00    -0.126 N
ATOM     29  H6  UNL     1      13.267  30.787  17.680  1.00  0.00     0.206 HD
BRANCH  28  30
HETATM   30  C7  UNL     1      14.563  29.845  16.498  1.00  0.00     0.750 A
HETATM   31  N7  UNL     1      15.482  28.988  16.977  1.00  0.00    -0.113 N
HETATM   32  N8  UNL     1      16.548  29.061  16.207  1.00  0.00    -0.212 N
ATOM     33  H7  UNL     1      15.373  28.387  17.794  1.00  0.00     0.207 HD
HETATM   34  N9  UNL     1      16.294  29.949  15.265  1.00  0.00    -0.191 N
ATOM     35  H8  UNL     1      17.410  28.528  16.319  1.00  0.00     0.210 HD
HETATM   36  N10 UNL     1      15.082  30.455  15.411  1.00  0.00     0.109 N
ATOM     37  H9  UNL     1      16.946  30.210  14.525  1.00  0.00     0.211 HD
BRANCH  36  38
HETATM   38  C8  UNL     1      14.408  31.436  14.622  1.00  0.00     0.719 A
HETATM   39  N11 UNL     1      14.420  32.776  14.813  1.00  0.00    -0.198 N
HETATM   40  C9  UNL     1      13.680  33.382  13.882  1.00  0.00     0.123 A
ATOM     41  H11 UNL     1      14.923  33.254  15.560  1.00  0.00     0.183 HD
HETATM   42  C10 UNL     1      13.169  32.411  13.063  1.00  0.00     0.123 A
HETATM   43  N12 UNL     1      13.637  31.235  13.547  1.00  0.00    -0.198 N
ATOM     44  H12 UNL     1      13.429  30.320  13.147  1.00  0.00     0.183 HD
ENDBRANCH  36  38
ENDBRANCH  28  30
ENDBRANCH   5  28
TORSDOF 11
ENDMDL