MODEL 1
REMARK VINA RESULT: -8.314997616      0.000      0.000
REMARK  10 active torsions:
REMARK  status: ('A' for Active; 'I' for Inactive)
REMARK    1  A    between atoms: O1_2  and  N1_3
REMARK    2  A    between atoms: N1_3  and  N2_4
REMARK       I    between atoms: N2_4  and  C2_6
REMARK       I    between atoms: C2_6  and  N3_8
REMARK    3  A    between atoms: N3_8  and  S1_10
REMARK    4  A    between atoms: S1_10  and  C3_12
REMARK    5  A    between atoms: N4_14  and  O4_16
REMARK    6  A    between atoms: C5_20  and  C6_21
REMARK    7  A    between atoms: C6_21  and  O6_23
REMARK    8  A    between atoms: O6_23  and  C7_24
REMARK    9  A    between atoms: C8_29  and  N8_30
REMARK   10  A    between atoms: C9_35  and  N11_36
ROOT
HETATM    1  C3  UNL     1      13.584  29.203  15.528  1.00  0.00     0.199 C
HETATM    2  C4  UNL     1      14.223  29.954  16.632  1.00  0.00     0.118 C
HETATM    3  N4  UNL     1      15.320  29.640  17.282  1.00  0.00    -0.256 N
ATOM      4  H4  UNL     1      15.691  30.218  18.036  1.00  0.00     0.195 HD
HETATM    5  N5  UNL     1      13.402  31.120  16.844  1.00  0.00    -0.361 N
ATOM      6  H5  UNL     1      13.245  31.593  17.733  1.00  0.00     0.161 HD
HETATM    7  C5  UNL     1      12.854  31.490  15.588  1.00  0.00     0.211 C
HETATM    8  C8  UNL     1      12.864  30.259  14.724  1.00  0.00     0.186 C
ENDROOT
BRANCH   1   9
HETATM    9  S1  UNL     1      12.495  27.952  16.131  1.00  0.00     0.132 S
HETATM   10  O3  UNL     1      13.021  26.560  15.953  1.00  0.00    -0.234 OA
BRANCH   9  11
HETATM   11  N3  UNL     1      11.797  28.283  17.666  1.00  0.00    -0.256 N
HETATM   12  C2  UNL     1      10.533  28.833  17.877  1.00  0.00     0.345 C
HETATM   13  N2  UNL     1      10.035  29.066  19.177  1.00  0.00    -0.229 N
HETATM   14  O2  UNL     1       9.822  29.122  16.879  1.00  0.00    -0.245 OA
ATOM     15  H2  UNL     1      10.635  28.825  19.966  1.00  0.00     0.189 HD
ATOM     16  H3  UNL     1      12.353  28.059  18.491  1.00  0.00     0.181 HD
BRANCH  13  17
HETATM   17  N1  UNL     1       8.786  29.599  19.456  1.00  0.00     0.025 NA
BRANCH  17  18
HETATM   18  O1  UNL     1       8.336  29.213  20.642  1.00  0.00    -0.272 OA
HETATM   19  C1  UNL     1       8.905  28.079  21.165  1.00  0.00     0.234 C
ENDBRANCH  17  18
ENDBRANCH  13  17
ENDBRANCH   9  11
ENDBRANCH   1   9
BRANCH   8  20
HETATM   20  N8  UNL     1      13.548  30.533  13.472  1.00  0.00    -0.196 N
HETATM   21  N9  UNL     1      14.546  31.381  13.309  1.00  0.00    -0.211 N
HETATM   22  N10 UNL     1      14.932  31.390  12.052  1.00  0.00    -0.115 N
ATOM     23  H9  UNL     1      14.957  31.946  14.050  1.00  0.00     0.210 HD
HETATM   24  C9  UNL     1      14.153  30.519  11.396  1.00  0.00     0.707 A
ATOM     25  H10 UNL     1      15.682  31.954  11.653  1.00  0.00     0.207 HD
HETATM   26  N12 UNL     1      13.307  30.002  12.290  1.00  0.00    -0.113 N
ATOM     27  H12 UNL     1      12.589  29.305  12.090  1.00  0.00     0.207 HD
BRANCH  24  28
HETATM   28  N11 UNL     1      14.216  30.232  10.111  1.00  0.00    -0.232 N
ATOM     29 2H11 UNL     1      14.997  30.418   9.481  1.00  0.00     0.174 HD
ATOM     30 1H11 UNL     1      13.488  29.781   9.557  1.00  0.00     0.174 HD
ENDBRANCH  24  28
ENDBRANCH   8  20
BRANCH   3  31
HETATM   31  O4  UNL     1      15.943  28.468  16.875  1.00  0.00    -0.288 OA
ATOM     32  H4  UNL     1      15.430  27.675  16.976  1.00  0.00     0.244 HD
ENDBRANCH   3  31
BRANCH   7  33
HETATM   33  C6  UNL     1      11.492  32.071  15.633  1.00  0.00     0.291 C
HETATM   34  O5  UNL     1      10.869  32.156  16.701  1.00  0.00    -0.262 OA
BRANCH  33  35
HETATM   35  O6  UNL     1      10.928  32.513  14.451  1.00  0.00    -0.247 OA
BRANCH  35  36
HETATM   36  C7  UNL     1      11.528  33.460  13.618  1.00  0.00     0.232 C
HETATM   37  N6  UNL     1      11.742  34.626  13.927  1.00  0.00    -0.367 N
ATOM     38  H62 UNL     1      11.459  34.918  14.862  1.00  0.00     0.159 HD
ATOM     39  H61 UNL     1      12.180  35.319  13.318  1.00  0.00     0.159 HD
HETATM   40  N7  UNL     1      11.932  33.045  12.283  1.00  0.00    -0.056 NA
ENDBRANCH  35  36
ENDBRANCH  33  35
ENDBRANCH   7  33
TORSDOF 10
ENDMDL