MODEL 1
REMARK VINA RESULT: -9.208248576      0.000      0.000
REMARK  11 active torsions:
REMARK  status: ('A' for Active; 'I' for Inactive)
REMARK    1  A    between atoms: N1_1  and  C1_5
REMARK    2  A    between atoms: C1_5  and  C2_6
REMARK    3  A    between atoms: C1_5  and  C4_10
REMARK    4  A    between atoms: C2_6  and  C3_7
REMARK    5  A    between atoms: C3_7  and  O1_8
REMARK    6  A    between atoms: C4_10  and  O2_11
REMARK    7  A    between atoms: C4_10  and  C5_13
REMARK    8  A    between atoms: C7_17  and  C8_18
REMARK    9  A    between atoms: C9_23  and  C10_24
REMARK   10  A    between atoms: C12_26  and  O3_27
REMARK   11  A    between atoms: N5_30  and  N6_31
ROOT
HETATM    1  C8  UNL     1      11.931  28.601  16.966  1.00  0.00     0.209 A
HETATM    2  N3  UNL     1      12.322  27.624  17.797  1.00  0.00    -0.275 N
ATOM      3  H3  UNL     1      13.224  27.148  17.766  1.00  0.00     0.189 HD
HETATM    4  N4  UNL     1      11.340  27.372  18.675  1.00  0.00    -0.276 N
ATOM      5  H4  UNL     1      11.350  26.681  19.425  1.00  0.00     0.189 HD
HETATM    6  C9  UNL     1      10.343  28.211  18.368  1.00  0.00     0.194 A
HETATM    7  O5  UNL     1      10.730  28.928  17.344  1.00  0.00    -0.268 OA
ENDROOT
BRANCH   1   8
HETATM    8  C7  UNL     1      12.677  29.206  15.847  1.00  0.00     0.159 A
HETATM    9  N2  UNL     1      13.016  28.622  14.694  1.00  0.00    -0.347 N
HETATM   10  C6  UNL     1      13.682  29.518  13.960  1.00  0.00     0.117 A
ATOM     11  H2  UNL     1      12.805  27.662  14.422  1.00  0.00     0.167 HD
HETATM   12  C5  UNL     1      13.777  30.707  14.652  1.00  0.00     0.057 A
HETATM   13  N10 UNL     1      13.143  30.466  15.809  1.00  0.00    -0.339 N
ATOM     14  H10 UNL     1      13.030  31.147  16.559  1.00  0.00     0.167 HD
BRANCH  12  15
HETATM   15  C4  UNL     1      14.436  31.956  14.198  1.00  0.00     0.199 C
BRANCH  15  16
HETATM   16  C1  UNL     1      13.723  32.498  12.979  1.00  0.00     0.220 C
BRANCH  16  17
HETATM   17  N1  UNL     1      14.289  33.776  12.601  1.00  0.00    -0.072 N
ATOM     18  H13 UNL     1      13.578  34.449  12.312  1.00  0.00     0.274 HD
ATOM     19  H12 UNL     1      14.654  34.294  13.401  1.00  0.00     0.274 HD
ATOM     20  H11 UNL     1      14.994  33.619  11.882  1.00  0.00     0.274 HD
ENDBRANCH  16  17
BRANCH  16  21
HETATM   21  C2  UNL     1      12.259  32.674  13.200  1.00  0.00     0.062 C
BRANCH  21  22
HETATM   22  C3  UNL     1      11.872  34.120  13.435  1.00  0.00     0.166 C
BRANCH  22  23
HETATM   23  O1  UNL     1      11.956  34.456  14.784  1.00  0.00    -0.401 OA
ATOM     24  H1  UNL     1      11.331  35.134  15.012  1.00  0.00     0.209 HD
ENDBRANCH  22  23
ENDBRANCH  21  22
ENDBRANCH  16  21
ENDBRANCH  15  16
BRANCH  15  25
HETATM   25  O2  UNL     1      14.426  32.848  15.253  1.00  0.00    -0.387 OA
ATOM     26  H2  UNL     1      15.210  32.786  15.786  1.00  0.00     0.210 HD
ENDBRANCH  15  25
ENDBRANCH  12  15
ENDBRANCH   1   8
BRANCH   6  27
HETATM   27  C10 UNL     1       9.056  28.340  19.027  1.00  0.00     0.117 A
HETATM   28  C11 UNL     1       7.947  27.739  18.661  1.00  0.00     0.065 A
HETATM   29  C12 UNL     1       7.912  26.906  17.578  1.00  0.00     0.098 A
HETATM   30  C15 UNL     1       6.765  27.918  19.346  1.00  0.00     0.135 A
HETATM   31  C13 UNL     1       6.713  26.300  17.238  1.00  0.00     0.157 A
HETATM   32  N5  UNL     1       5.567  26.471  17.900  1.00  0.00    -0.234 N
HETATM   33  C14 UNL     1       5.590  27.290  18.969  1.00  0.00     0.294 A
HETATM   34  O4  UNL     1       4.506  27.449  19.592  1.00  0.00    -0.264 OA
HETATM   35  N7  UNL     1       6.680  28.687  20.392  1.00  0.00    -0.280 N
HETATM   36  N8  UNL     1       7.784  29.363  20.860  1.00  0.00    -0.242 N
ATOM     37  H7  UNL     1       5.785  28.790  20.870  1.00  0.00     0.188 HD
HETATM   38  N9  UNL     1       8.989  29.200  20.186  1.00  0.00    -0.281 N
ATOM     39  H8  UNL     1       7.721  29.967  21.681  1.00  0.00     0.208 HD
ATOM     40  H9  UNL     1       9.825  29.688  20.508  1.00  0.00     0.188 HD
BRANCH  29  41
HETATM   41  O3  UNL     1       9.040  26.661  16.826  1.00  0.00    -0.358 OA
ATOM     42  H3  UNL     1       9.625  25.942  17.032  1.00  0.00     0.217 HD
ENDBRANCH  29  41
BRANCH  32  43
HETATM   43  N6  UNL     1       4.373  25.839  17.523  1.00  0.00    -0.336 N
ATOM     44  H62 UNL     1       4.315  25.343  16.634  1.00  0.00     0.177 HD
ATOM     45  H61 UNL     1       3.536  25.849  18.107  1.00  0.00     0.177 HD
ENDBRANCH  32  43
ENDBRANCH   6  27
TORSDOF 11
ENDMDL