MODEL 1
REMARK VINA RESULT: -7.668901038      0.000      0.000
REMARK  10 active torsions:
REMARK  status: ('A' for Active; 'I' for Inactive)
REMARK    1  A    between atoms: C4_7  and  N4_8
REMARK    2  A    between atoms: C5_14  and  N7_15
REMARK    3  A    between atoms: N7_15  and  C6_16
REMARK    4  A    between atoms: N7_15  and  N12_33
REMARK    5  A    between atoms: C6_16  and  C7_17
REMARK       I    between atoms: C7_17  and  N8_19
REMARK    6  A    between atoms: N8_19  and  C8_21
REMARK    7  A    between atoms: C8_21  and  C9_22
REMARK    8  A    between atoms: C9_22  and  N9_23
REMARK    9  A    between atoms: N9_23  and  C10_25
REMARK   10  A    between atoms: N12_33  and  N13_34
ROOT
HETATM    1  N7  UNL     1      12.337  27.237  16.721  1.00  0.00    -0.097 N
ENDROOT
BRANCH   1   2
HETATM    2  C5  UNL     1      12.546  28.550  16.227  1.00  0.00     0.728 A
HETATM    3  N6  UNL     1      11.658  29.564  16.139  1.00  0.00    -0.107 N
HETATM    4  N5  UNL     1      12.194  30.647  15.614  1.00  0.00    -0.053 N
ATOM      5  H6  UNL     1      10.688  29.498  16.443  1.00  0.00     0.207 HD
HETATM    6  C4  UNL     1      11.733  31.888  15.323  1.00  0.00     0.167 A
HETATM    7  C14 UNL     1      13.472  30.315  15.356  1.00  0.00     0.723 A
HETATM    8  C3  UNL     1      12.542  32.850  14.759  1.00  0.00     0.134 A
HETATM    9  C2  UNL     1      13.848  32.495  14.501  1.00  0.00     0.162 A
HETATM   10  N3  UNL     1      12.050  34.164  14.452  1.00  0.00    -0.095 NA
HETATM   11  N1  UNL     1      14.281  31.259  14.798  1.00  0.00    -0.170 N
HETATM   12  N2  UNL     1      14.696  33.477  13.918  1.00  0.00    -0.080 NA
HETATM   13  C1  UNL     1      15.656  30.887  14.525  1.00  0.00     0.177 C
HETATM   14  N14 UNL     1      13.698  29.042  15.724  1.00  0.00    -0.018 N
ATOM     15  H14 UNL     1      14.581  28.539  15.640  1.00  0.00     0.203 HD
BRANCH   6  16
HETATM   16  N4  UNL     1      10.496  32.188  15.579  1.00  0.00    -0.382 N
ATOM     17  H42 UNL     1      10.193  33.160  15.527  1.00  0.00     0.157 HD
ATOM     18  H41 UNL     1       9.853  31.436  15.829  1.00  0.00     0.157 HD
ENDBRANCH   6  16
ENDBRANCH   1   2
BRANCH   1  19
HETATM   19  C6  UNL     1      12.253  26.997  18.127  1.00  0.00     0.268 C
BRANCH  19  20
HETATM   20  C7  UNL     1      10.901  27.031  18.709  1.00  0.00     0.237 C
HETATM   21  O1  UNL     1       9.922  27.292  17.914  1.00  0.00    -0.272 OA
HETATM   22  N8  UNL     1      10.642  26.797  20.077  1.00  0.00    -0.358 N
ATOM     23  H8  UNL     1      11.432  26.596  20.690  1.00  0.00     0.162 HD
BRANCH  22  24
HETATM   24  C8  UNL     1       9.314  26.825  20.656  1.00  0.00     0.143 C
BRANCH  24  25
HETATM   25  C9  UNL     1       8.922  28.173  21.203  1.00  0.00     0.157 C
BRANCH  25  26
HETATM   26  N9  UNL     1       8.269  28.939  20.157  1.00  0.00    -0.225 N
ATOM     27  H9  UNL     1       8.608  29.875  19.935  1.00  0.00     0.177 HD
BRANCH  26  28
HETATM   28  C10 UNL     1       7.158  28.403  19.435  1.00  0.00     0.669 C
HETATM   29  N10 UNL     1       6.075  28.184  20.057  1.00  0.00    -0.227 N
HETATM   30  C11 UNL     1       4.902  27.651  19.439  1.00  0.00     0.139 C
ATOM     31  H10 UNL     1       6.040  28.400  21.053  1.00  0.00     0.177 HD
HETATM   32  C12 UNL     1       4.924  27.686  17.927  1.00  0.00     0.040 C
HETATM   33  C13 UNL     1       6.287  27.207  17.457  1.00  0.00     0.139 C
HETATM   34  N11 UNL     1       7.250  28.117  18.048  1.00  0.00    -0.227 N
ATOM     35  H11 UNL     1       7.980  28.544  17.477  1.00  0.00     0.177 HD
ENDBRANCH  26  28
ENDBRANCH  25  26
ENDBRANCH  24  25
ENDBRANCH  22  24
ENDBRANCH  19  20
ENDBRANCH   1  19
BRANCH   1  36
HETATM   36  N12 UNL     1      12.214  26.188  15.821  1.00  0.00    -0.012 NA
BRANCH  36  37
HETATM   37  N13 UNL     1      11.043  26.221  15.075  1.00  0.00    -0.328 N
ATOM     38 2H13 UNL     1      11.049  26.275  14.057  1.00  0.00     0.174 HD
ATOM     39 1H13 UNL     1      10.194  26.186  15.639  1.00  0.00     0.174 HD
ENDBRANCH  36  37
ENDBRANCH   1  36
TORSDOF 10
ENDMDL