MODEL 1
REMARK VINA RESULT: -5.919485259      0.000      0.000
REMARK  3 active torsions:
REMARK  status: ('A' for Active; 'I' for Inactive)
REMARK    1  A    between atoms: N1_1  and  C1_5
REMARK    2  A    between atoms: N2_10  and  C6_11
REMARK    3  A    between atoms: C6_11  and  C7_12
ROOT
HETATM    1  C1  UNL     1       3.683 -14.824 -20.869  1.00  0.00     0.417 C
HETATM    2  C2  UNL     1       2.710 -13.696 -21.039  1.00  0.00     0.065 C
HETATM    3  C3  UNL     1       2.954 -12.838 -22.232  1.00  0.00     0.005 C
HETATM    4  C4  UNL     1       4.384 -12.702 -22.632  1.00  0.00     0.030 C
HETATM    5  C5  UNL     1       5.199 -13.946 -22.350  1.00  0.00     0.275 C
HETATM    6  N2  UNL     1       5.017 -14.267 -20.961  1.00  0.00     0.119 N
ENDROOT
BRANCH   1   7
HETATM    7  N1  UNL     1       3.421 -15.581 -19.703  1.00  0.00    -0.048 N
ATOM      8  H13 UNL     1       4.131 -15.418 -18.989  1.00  0.00     0.276 HD
ATOM      9  H12 UNL     1       2.606 -15.223 -19.205  1.00  0.00     0.276 HD
ATOM     10  H11 UNL     1       3.323 -16.576 -19.906  1.00  0.00     0.276 HD
ENDBRANCH   1   7
BRANCH   6  11
HETATM   11  C6  UNL     1       5.961 -15.220 -20.451  1.00  0.00     0.279 C
BRANCH  11  12
HETATM   12  C7  UNL     1       7.385 -14.885 -20.702  1.00  0.00     0.014 A
HETATM   13  C8  UNL     1       8.355 -15.942 -20.163  1.00  0.00     0.007 A
HETATM   14  C9  UNL     1       8.305 -14.569 -19.514  1.00  0.00     0.007 A
ENDBRANCH  11  12
ENDBRANCH   6  11
TORSDOF 3
ENDMDL