MODEL 5
REMARK VINA RESULT: -4.105540653      1.352      4.321
REMARK  2 active torsions:
REMARK  status: ('A' for Active; 'I' for Inactive)
REMARK    1  A    between atoms: C2_3  and  N2_4
REMARK    2  A    between atoms: N2_4  and  C3_7
ROOT
HETATM    1  N1  UNL     1       3.733 -12.128 -24.061  1.00  0.00    -0.195 NA
HETATM    2  C1  UNL     1       4.016 -12.729 -23.124  1.00  0.00     0.099 C
HETATM    3  C2  UNL     1       4.358 -13.498 -21.930  1.00  0.00     0.213 C
HETATM    4  C6  UNL     1       3.789 -12.810 -20.688  1.00  0.00     0.055 C
HETATM    5  C7  UNL     1       2.303 -13.045 -20.891  1.00  0.00     0.004 C
HETATM    6  C8  UNL     1       2.195 -14.335 -21.683  1.00  0.00     0.004 C
HETATM    7  C9  UNL     1       3.630 -14.816 -21.883  1.00  0.00     0.055 C
ENDROOT
BRANCH   3   8
HETATM    8  N2  UNL     1       5.792 -13.620 -21.835  1.00  0.00    -0.049 N
ATOM      9  H22 UNL     1       6.265 -13.464 -22.725  1.00  0.00     0.279 HD
ATOM     10  H21 UNL     1       6.223 -12.853 -21.319  1.00  0.00     0.279 HD
BRANCH   8  11
HETATM   11  C3  UNL     1       6.084 -14.916 -21.262  1.00  0.00     0.188 A
HETATM   12  C4  UNL     1       7.254 -15.121 -20.386  1.00  0.00     0.035 A
HETATM   13  C5  UNL     1       7.344 -15.556 -21.808  1.00  0.00     0.035 A
ENDBRANCH   8  11
ENDBRANCH   3   8
TORSDOF 2
ENDMDL