MODEL 1
REMARK VINA RESULT: -6.617838876      0.000      0.000
REMARK  2 active torsions:
REMARK  status: ('A' for Active; 'I' for Inactive)
REMARK    1  A    between atoms: N1_1  and  C1_5
REMARK    2  A    between atoms: C1_5  and  C2_6
ROOT
HETATM    1  C2  UNL     1       6.404 -15.315 -21.342  1.00  0.00     0.147 C
HETATM    2  C3  UNL     1       5.496 -16.038 -20.432  1.00  0.00     0.034 C
HETATM    3  C4  UNL     1       4.110 -15.494 -20.296  1.00  0.00     0.010 C
HETATM    4  C5  UNL     1       3.900 -14.136 -20.832  1.00  0.00     0.015 C
HETATM    5  C6  UNL     1       2.561 -13.854 -21.408  1.00  0.00     0.007 C
HETATM    6  C7  UNL     1       2.821 -12.780 -22.444  1.00  0.00     0.003 C
HETATM    7  C8  UNL     1       4.315 -12.725 -22.650  1.00  0.00     0.032 C
HETATM    8  C9  UNL     1       4.800 -13.988 -22.068  1.00  0.00     0.126 C
HETATM    9  O1  UNL     1       6.074 -13.977 -21.555  1.00  0.00    -0.379 OA
ENDROOT
BRANCH   1  10
HETATM   10  C1  UNL     1       7.870 -15.445 -20.915  1.00  0.00     0.261 C
BRANCH  10  11
HETATM   11  N1  UNL     1       8.055 -14.717 -19.676  1.00  0.00    -0.077 N
ATOM     12  H13 UNL     1       7.421 -15.029 -18.941  1.00  0.00     0.274 HD
ATOM     13  H12 UNL     1       8.932 -14.951 -19.212  1.00  0.00     0.274 HD
ATOM     14  H11 UNL     1       7.967 -13.719 -19.871  1.00  0.00     0.274 HD
ENDBRANCH  10  11
ENDBRANCH   1  10
TORSDOF 2
ENDMDL