MODEL 4
REMARK VINA RESULT: -4.191848981      1.993      3.420
REMARK  2 active torsions:
REMARK  status: ('A' for Active; 'I' for Inactive)
REMARK    1  A    between atoms: N1_1  and  C1_5
REMARK    2  A    between atoms: C1_5  and  C2_6
ROOT
HETATM    1  C2  UNL     1       3.913 -14.428 -20.828  1.00  0.00     0.085 C
HETATM    2  C3  UNL     1       2.632 -15.058 -21.252  1.00  0.00     0.040 C
HETATM    3  C4  UNL     1       2.165 -14.380 -22.526  1.00  0.00     0.006 C
HETATM    4  C5  UNL     1       2.077 -12.901 -22.223  1.00  0.00     0.032 C
HETATM    5  C6  UNL     1       3.366 -12.472 -21.598  1.00  0.00     0.122 C
HETATM    6  C7  UNL     1       4.492 -12.894 -22.551  1.00  0.00     0.035 C
HETATM    7  C8  UNL     1       4.897 -14.212 -21.939  1.00  0.00     0.042 C
HETATM    8  O1  UNL     1       3.643 -13.131 -20.401  1.00  0.00    -0.373 OA
ENDROOT
BRANCH   1   9
HETATM    9  C1  UNL     1       4.560 -15.266 -19.761  1.00  0.00     0.267 C
BRANCH   9  10
HETATM   10  N1  UNL     1       3.807 -15.049 -18.540  1.00  0.00    -0.076 N
ATOM     11  H13 UNL     1       3.183 -14.243 -18.590  1.00  0.00     0.274 HD
ATOM     12  H12 UNL     1       3.090 -15.756 -18.379  1.00  0.00     0.274 HD
ATOM     13  H11 UNL     1       4.485 -14.985 -17.781  1.00  0.00     0.274 HD
ENDBRANCH   9  10
ENDBRANCH   1   9
TORSDOF 2
ENDMDL