MODEL 1
REMARK VINA RESULT: -4.545933976      0.000      0.000
REMARK  3 active torsions:
REMARK  status: ('A' for Active; 'I' for Inactive)
REMARK    1  A    between atoms: C2_2  and  C3_3
REMARK    2  A    between atoms: C3_3  and  N1_4
REMARK    3  A    between atoms: C9_10  and  N2_11
ROOT
HETATM    1  N1  UNL     1       4.923 -14.053 -20.731  1.00  0.00     0.122 N
HETATM    2  C4  UNL     1       5.139 -13.992 -22.199  1.00  0.00     0.275 C
HETATM    3  C5  UNL     1       4.452 -12.755 -22.737  1.00  0.00     0.030 C
HETATM    4  C6  UNL     1       2.945 -12.867 -22.668  1.00  0.00     0.002 C
HETATM    5  C7  UNL     1       2.437 -13.338 -21.342  1.00  0.00     0.004 C
HETATM    6  C8  UNL     1       2.631 -14.816 -21.109  1.00  0.00     0.065 C
HETATM    7  C9  UNL     1       3.988 -15.157 -20.585  1.00  0.00     0.417 C
ENDROOT
BRANCH   7   8
HETATM    8  N2  UNL     1       3.889 -15.717 -19.287  1.00  0.00    -0.048 N
ATOM      9  H23 UNL     1       3.713 -16.720 -19.354  1.00  0.00     0.276 HD
ATOM     10  H22 UNL     1       4.806 -15.722 -18.840  1.00  0.00     0.276 HD
ATOM     11  H21 UNL     1       3.203 -15.287 -18.667  1.00  0.00     0.276 HD
ENDBRANCH   7   8
BRANCH   1  12
HETATM   12  C3  UNL     1       6.231 -14.351 -20.167  1.00  0.00     0.301 C
BRANCH  12  13
HETATM   13  C2  UNL     1       7.065 -15.229 -20.990  1.00  0.00    -0.007 C
HETATM   14  C1  UNL     1       8.128 -15.897 -20.636  1.00  0.00     0.008 C
ENDBRANCH  12  13
ENDBRANCH   1  12
TORSDOF 3
ENDMDL