MODEL 5
REMARK VINA RESULT: -4.151268782      1.134      1.767
REMARK  2 active torsions:
REMARK  status: ('A' for Active; 'I' for Inactive)
REMARK    1  A    between atoms: C3_3  and  S1_4
REMARK    2  A    between atoms: S1_4  and  C4_5
ROOT
HETATM    1  C1  UNL     1       8.862 -16.236 -19.342  1.00  0.00     0.013 C
HETATM    2  C2  UNL     1       8.210 -15.906 -20.301  1.00  0.00    -0.107 C
HETATM    3  C3  UNL     1       7.414 -15.533 -21.468  1.00  0.00     0.167 C
ENDROOT
BRANCH   3   4
HETATM    4  S1  UNL     1       6.358 -14.096 -21.164  1.00  0.00    -0.152 SA
BRANCH   4   5
HETATM    5  C4  UNL     1       4.728 -14.252 -21.951  1.00  0.00     0.051 C
HETATM    6  C5  UNL     1       4.234 -12.982 -22.519  1.00  0.00     0.043 C
HETATM    7  C6  UNL     1       2.782 -12.690 -22.409  1.00  0.00     0.233 C
HETATM    8  N1  UNL     1       2.004 -13.626 -21.650  1.00  0.00    -0.075 N
HETATM    9  C7  UNL     1       2.800 -13.963 -20.471  1.00  0.00     0.233 C
ATOM     10  H12 UNL     1       1.069 -13.287 -21.423  1.00  0.00     0.277 HD
ATOM     11  H11 UNL     1       1.715 -14.443 -22.189  1.00  0.00     0.277 HD
HETATM   12  C8  UNL     1       3.827 -14.953 -20.981  1.00  0.00     0.043 C
ENDBRANCH   4   5
ENDBRANCH   3   4
TORSDOF 2
ENDMDL