MODEL 2
REMARK VINA RESULT: -4.427605751      1.097      1.746
REMARK  3 active torsions:
REMARK  status: ('A' for Active; 'I' for Inactive)
REMARK    1  A    between atoms: C1_2  and  N1_3
REMARK    2  A    between atoms: N1_3  and  C2_5
REMARK    3  A    between atoms: C2_5  and  C3_6
ROOT
HETATM    1  C3  UNL     1       4.589 -14.049 -22.131  1.00  0.00     0.029 C
HETATM    2  C4  UNL     1       3.589 -14.639 -21.183  1.00  0.00     0.009 C
HETATM    3  C5  UNL     1       2.578 -13.626 -20.695  1.00  0.00     0.028 C
HETATM    4  C6  UNL     1       1.942 -12.843 -21.792  1.00  0.00     0.232 C
HETATM    5  N2  UNL     1       2.744 -12.717 -22.976  1.00  0.00    -0.075 N
ATOM      6  H21 UNL     1       2.474 -11.921 -23.554  1.00  0.00     0.277 HD
ATOM      7  H22 UNL     1       2.557 -13.451 -23.660  1.00  0.00     0.277 HD
HETATM    8  C7  UNL     1       4.132 -12.669 -22.568  1.00  0.00     0.238 C
ENDROOT
BRANCH   1   9
HETATM    9  C2  UNL     1       5.965 -13.893 -21.521  1.00  0.00     0.126 C
BRANCH   9  10
HETATM   10  N1  UNL     1       6.780 -15.071 -21.680  1.00  0.00    -0.390 N
ATOM     11  H1  UNL     1       6.662 -15.637 -22.521  1.00  0.00     0.159 HD
BRANCH  10  12
HETATM   12  C1  UNL     1       7.648 -15.439 -20.807  1.00  0.00     0.165 C
HETATM   13  S1  UNL     1       8.481 -15.251 -19.414  1.00  0.00    -0.075 SA
ENDBRANCH  10  12
ENDBRANCH   9  10
ENDBRANCH   1   9
TORSDOF 3
ENDMDL