MODEL 4
REMARK VINA RESULT: -5.637368047      1.254      1.587
REMARK  2 active torsions:
REMARK  status: ('A' for Active; 'I' for Inactive)
REMARK    1  A    between atoms: C3_3  and  N1_4
REMARK    2  A    between atoms: N1_4  and  C4_7
ROOT
HETATM    1  N1  UNL     1       4.772 -14.726 -20.234  1.00  0.00    -0.067 N
ATOM      2  H11 UNL     1       5.042 -13.948 -19.632  1.00  0.00     0.278 HD
ATOM      3  H12 UNL     1       4.127 -15.183 -19.589  1.00  0.00     0.278 HD
ENDROOT
BRANCH   1   4
HETATM    4  C3  UNL     1       5.901 -15.575 -20.591  1.00  0.00     0.186 C
HETATM    5  C2  UNL     1       7.214 -15.154 -19.940  1.00  0.00     0.033 C
HETATM    6  C1  UNL     1       7.888 -15.531 -21.253  1.00  0.00     0.004 C
HETATM    7  C9  UNL     1       6.547 -15.244 -21.921  1.00  0.00     0.033 C
ENDBRANCH   1   4
BRANCH   1   8
HETATM    8  C4  UNL     1       4.126 -14.290 -21.444  1.00  0.00     0.190 C
HETATM    9  C5  UNL     1       4.514 -12.836 -21.668  1.00  0.00     0.059 C
HETATM   10  C6  UNL     1       3.895 -12.439 -22.977  1.00  0.00     0.169 C
HETATM   11  O1  UNL     1       2.527 -12.545 -23.019  1.00  0.00    -0.391 OA
HETATM   12  C7  UNL     1       1.935 -13.162 -21.952  1.00  0.00     0.169 C
HETATM   13  C8  UNL     1       2.640 -14.364 -21.415  1.00  0.00     0.059 C
ENDBRANCH   1   8
TORSDOF 2
ENDMDL