MODEL 5
REMARK VINA RESULT: -3.346491784      1.092      2.548
REMARK  2 active torsions:
REMARK  status: ('A' for Active; 'I' for Inactive)
REMARK    1  A    between atoms: C2_2  and  C3_3
REMARK    2  A    between atoms: C3_3  and  C4_4
ROOT
HETATM    1  C4  UNL     1       6.448 -15.432 -21.493  1.00  0.00     0.137 C
HETATM    2  C5  UNL     1       7.490 -14.918 -20.624  1.00  0.00     0.060 C
HETATM    3  N1  UNL     1       8.320 -14.495 -19.917  1.00  0.00    -0.197 NA
ENDROOT
BRANCH   1   4
HETATM    4  C3  UNL     1       5.129 -14.741 -21.120  1.00  0.00    -0.008 C
HETATM    5  C6  UNL     1       5.066 -14.531 -19.626  1.00  0.00     0.042 C
HETATM    6  C7  UNL     1       3.750 -15.027 -19.089  1.00  0.00     0.233 C
HETATM    7  N2  UNL     1       2.700 -14.467 -19.919  1.00  0.00    -0.075 N
HETATM    8  C8  UNL     1       2.665 -15.204 -21.167  1.00  0.00     0.233 C
ATOM      9  H22 UNL     1       1.795 -14.447 -19.447  1.00  0.00     0.277 HD
ATOM     10  H21 UNL     1       2.803 -13.461 -20.059  1.00  0.00     0.277 HD
HETATM   11  C9  UNL     1       4.033 -15.590 -21.645  1.00  0.00     0.042 C
BRANCH   4  12
HETATM   12  C2  UNL     1       5.190 -13.398 -21.747  1.00  0.00    -0.026 C
HETATM   13  C1  UNL     1       4.407 -12.944 -22.685  1.00  0.00     0.008 C
ENDBRANCH   4  12
ENDBRANCH   1   4
TORSDOF 2
ENDMDL