MODEL 5
REMARK VINA RESULT: -4.624846350      1.324      1.876
REMARK  2 active torsions:
REMARK  status: ('A' for Active; 'I' for Inactive)
REMARK    1  A    between atoms: C4_4  and  N1_5
REMARK    2  A    between atoms: N1_5  and  C5_8
ROOT
HETATM    1  N1  UNL     1       5.198 -14.744 -20.026  1.00  0.00    -0.045 N
ATOM      2  H11 UNL     1       4.675 -15.101 -19.226  1.00  0.00     0.280 HD
ATOM      3  H12 UNL     1       5.524 -13.871 -19.614  1.00  0.00     0.280 HD
ENDROOT
BRANCH   1   4
HETATM    4  C4  UNL     1       4.348 -14.519 -21.169  1.00  0.00     0.321 C
HETATM    5  C3  UNL     1       4.769 -13.266 -21.892  1.00  0.00     0.061 C
HETATM    6  C2  UNL     1       3.562 -12.348 -21.973  1.00  0.00     0.006 C
HETATM    7  C1  UNL     1       2.484 -13.136 -22.705  1.00  0.00     0.026 C
HETATM    8  C9  UNL     1       2.150 -14.316 -21.831  1.00  0.00     0.170 C
HETATM    9  O1  UNL     1       3.012 -14.479 -20.764  1.00  0.00    -0.359 OA
ENDBRANCH   1   4
BRANCH   1  10
HETATM   10  C5  UNL     1       6.286 -15.607 -20.386  1.00  0.00     0.189 C
HETATM   11  C6  UNL     1       6.820 -15.442 -21.800  1.00  0.00     0.033 C
HETATM   12  C7  UNL     1       8.186 -15.774 -21.208  1.00  0.00     0.004 C
HETATM   13  C8  UNL     1       7.663 -15.141 -19.923  1.00  0.00     0.033 C
ENDBRANCH   1  10
TORSDOF 2
ENDMDL