MODEL 4
REMARK VINA RESULT: -7.012150480      1.642      2.166
REMARK  3 active torsions:
REMARK  status: ('A' for Active; 'I' for Inactive)
REMARK       I    between atoms: C1_4  and  N3_6
REMARK    1  A    between atoms: N3_6  and  C2_8
REMARK    2  A    between atoms: C3_13  and  C4_14
REMARK    3  A    between atoms: C5_15  and  C6_16
ROOT
HETATM    1  C2  UNL     1      58.199  -4.044  18.589  1.00  0.00     0.702 A
HETATM    2  N4  UNL     1      58.224  -4.935  19.602  1.00  0.00    -0.131 N
ATOM      3  H4  UNL     1      58.646  -5.857  19.486  1.00  0.00     0.205 HD
HETATM    4  N5  UNL     1      57.689  -4.574  20.734  1.00  0.00    -0.281 N
ATOM      5  H5  UNL     1      57.718  -5.261  21.487  1.00  0.00     0.187 HD
HETATM    6  C3  UNL     1      57.109  -3.407  21.019  1.00  0.00     0.117 A
HETATM    7  C7  UNL     1      57.111  -2.511  19.922  1.00  0.00     0.287 A
HETATM    8  O2  UNL     1      56.601  -1.385  20.047  1.00  0.00    -0.265 OA
HETATM    9  N7  UNL     1      57.647  -2.832  18.737  1.00  0.00    -0.153 N
ATOM     10  H7  UNL     1      57.636  -2.167  17.963  1.00  0.00     0.187 HD
ENDROOT
BRANCH   1  11
HETATM   11  N3  UNL     1      58.714  -4.353  17.452  1.00  0.00    -0.162 N
HETATM   12  C1  UNL     1      59.022  -5.672  17.056  1.00  0.00     0.200 C
HETATM   13  N1  UNL     1      60.202  -6.142  17.164  1.00  0.00    -0.373 N
HETATM   14  N2  UNL     1      58.000  -6.494  16.526  1.00  0.00    -0.063 NA
ATOM     15  H12 UNL     1      60.425  -7.095  16.877  1.00  0.00     0.158 HD
ATOM     16  H11 UNL     1      60.939  -5.549  17.546  1.00  0.00     0.158 HD
ATOM     17  H3  UNL     1      58.912  -3.598  16.796  1.00  0.00     0.187 HD
ENDBRANCH   1  11
BRANCH   6  18
HETATM   18  C4  UNL     1      56.518  -3.007  22.269  1.00  0.00     0.042 C
HETATM   19  C5  UNL     1      55.870  -3.642  23.174  1.00  0.00     0.073 C
BRANCH  19  20
HETATM   20  C6  UNL     1      55.501  -5.009  23.254  1.00  0.00     0.254 C
HETATM   21  N6  UNL     1      56.544  -6.031  23.415  1.00  0.00    -0.058 NA
HETATM   22  O1  UNL     1      54.364  -5.512  23.207  1.00  0.00    -0.272 OA
ENDBRANCH  19  20
ENDBRANCH   6  18
TORSDOF 3
ENDMDL