MODEL 1
REMARK VINA RESULT: -6.203610137      0.000      0.000
REMARK  2 active torsions:
REMARK  status: ('A' for Active; 'I' for Inactive)
REMARK    1  A    between atoms: N3_4  and  N4_6
REMARK    2  A    between atoms: C2_8  and  C3_9
ROOT
HETATM    1  C3  UNL     1      58.905  -6.060  18.814  1.00  0.00     0.090 A
HETATM    2  C4  UNL     1      58.862  -5.650  17.497  1.00  0.00     0.137 A
HETATM    3  N5  UNL     1      59.248  -6.573  16.494  1.00  0.00    -0.081 NA
HETATM    4  N6  UNL     1      58.459  -4.402  17.242  1.00  0.00    -0.296 N
ATOM      5  H6  UNL     1      58.418  -4.072  16.278  1.00  0.00     0.171 HD
HETATM    6  C5  UNL     1      58.106  -3.578  18.245  1.00  0.00     0.328 A
HETATM    7  O1  UNL     1      57.725  -2.390  17.966  1.00  0.00    -0.247 OA
HETATM    8  N7  UNL     1      58.134  -3.941  19.541  1.00  0.00    -0.275 N
ATOM      9  H7  UNL     1      57.862  -3.293  20.281  1.00  0.00     0.173 HD
HETATM   10  C6  UNL     1      58.539  -5.195  19.818  1.00  0.00     0.264 A
HETATM   11  O2  UNL     1      58.575  -5.562  21.021  1.00  0.00    -0.267 OA
ENDROOT
BRANCH   1  12
HETATM   12  C2  UNL     1      59.338  -7.412  19.139  1.00  0.00     0.127 C
HETATM   13  N4  UNL     1      58.529  -8.392  19.225  1.00  0.00    -0.309 N
ATOM     14  H4  UNL     1      57.536  -8.227  19.061  1.00  0.00     0.186 HD
BRANCH  13  15
HETATM   15  N3  UNL     1      58.955  -9.683  19.536  1.00  0.00    -0.276 N
HETATM   16  C1  UNL     1      58.240 -10.731  19.345  1.00  0.00     0.215 C
HETATM   17  N1  UNL     1      56.933 -10.679  18.790  1.00  0.00    -0.065 NA
HETATM   18  N2  UNL     1      58.810 -11.990  19.713  1.00  0.00    -0.065 NA
ATOM     19  H3  UNL     1      59.885  -9.801  19.938  1.00  0.00     0.189 HD
ENDBRANCH  13  15
ENDBRANCH   1  12
TORSDOF 2
ENDMDL