MODEL 1
REMARK VINA RESULT: -6.993666558      0.000      0.000
REMARK  2 active torsions:
REMARK  status: ('A' for Active; 'I' for Inactive)
REMARK    1  A    between atoms: C6_12  and  O3_13
REMARK    2  A    between atoms: C6_12  and  N3_15
ROOT
HETATM    1  C1  UNL     1      58.842  -5.836  20.242  1.00  0.00     0.045 C
HETATM    2  C2  UNL     1      58.403  -4.831  19.530  1.00  0.00     0.057 A
HETATM    3  N1  UNL     1      57.903  -3.741  20.184  1.00  0.00    -0.317 N
ATOM      4  H1  UNL     1      57.888  -3.744  21.204  1.00  0.00     0.169 HD
HETATM    5  C3  UNL     1      57.437  -2.679  19.542  1.00  0.00     0.314 A
HETATM    6  O1  UNL     1      56.968  -1.656  20.141  1.00  0.00    -0.262 OA
HETATM    7  C4  UNL     1      57.462  -2.690  18.167  1.00  0.00     0.314 A
HETATM    8  O2  UNL     1      57.015  -1.674  17.567  1.00  0.00    -0.262 OA
HETATM    9  N2  UNL     1      57.947  -3.749  17.531  1.00  0.00    -0.313 N
ATOM     10  H2  UNL     1      57.954  -3.731  16.511  1.00  0.00     0.169 HD
HETATM   11  C5  UNL     1      58.443  -4.875  18.161  1.00  0.00     0.113 A
HETATM   12  C6  UNL     1      58.886  -5.838  17.417  1.00  0.00     0.172 C
ENDROOT
BRANCH  12  13
HETATM   13  O3  UNL     1      58.829  -5.664  16.007  1.00  0.00    -0.344 OA
ATOM     14  H3  UNL     1      59.352  -6.248  15.469  1.00  0.00     0.219 HD
ENDBRANCH  12  13
BRANCH  12  15
HETATM   15  N3  UNL     1      59.420  -7.041  17.829  1.00  0.00    -0.312 N
HETATM   16  C7  UNL     1      60.609  -7.473  17.585  1.00  0.00     0.203 C
HETATM   17  N4  UNL     1      60.956  -8.749  18.108  1.00  0.00    -0.066 NA
HETATM   18  N5  UNL     1      61.524  -6.712  16.831  1.00  0.00    -0.066 NA
ATOM     19  H3  UNL     1      58.814  -7.649  18.379  1.00  0.00     0.170 HD
ENDBRANCH  12  15
TORSDOF 2
ENDMDL