MODEL 1
REMARK VINA RESULT: -6.447919122      0.000      0.000
REMARK  3 active torsions:
REMARK  status: ('A' for Active; 'I' for Inactive)
REMARK    1  A    between atoms: C5_12  and  N4_13
REMARK    2  A    between atoms: N4_13  and  O3_14
REMARK    3  A    between atoms: N4_13  and  N5_16
ROOT
HETATM    1  N1  UNL     1      57.585  -2.520  17.645  1.00  0.00    -0.190 NA
HETATM    2  C1  UNL     1      57.914  -3.480  18.239  1.00  0.00     0.120 C
HETATM    3  C2  UNL     1      58.300  -4.646  18.982  1.00  0.00     0.149 A
HETATM    4  N2  UNL     1      58.137  -4.714  20.333  1.00  0.00    -0.298 N
ATOM      5  H2  UNL     1      57.732  -3.916  20.822  1.00  0.00     0.171 HD
HETATM    6  C3  UNL     1      58.494  -5.801  21.043  1.00  0.00     0.328 A
HETATM    7  O1  UNL     1      58.315  -5.791  22.274  1.00  0.00    -0.247 OA
HETATM    8  N3  UNL     1      59.038  -6.884  20.422  1.00  0.00    -0.274 N
ATOM      9  H3  UNL     1      59.306  -7.704  20.966  1.00  0.00     0.173 HD
HETATM   10  C4  UNL     1      59.221  -6.870  19.097  1.00  0.00     0.278 A
HETATM   11  O2  UNL     1      59.718  -7.840  18.467  1.00  0.00    -0.266 OA
HETATM   12  C5  UNL     1      58.853  -5.750  18.360  1.00  0.00     0.166 A
ENDROOT
BRANCH  12  13
HETATM   13  N4  UNL     1      59.041  -5.728  16.970  1.00  0.00    -0.048 NA
BRANCH  13  14
HETATM   14  O3  UNL     1      58.327  -6.622  16.289  1.00  0.00    -0.288 OA
ATOM     15  H3  UNL     1      58.313  -7.495  16.665  1.00  0.00     0.239 HD
ENDBRANCH  13  14
BRANCH  13  16
HETATM   16  N5  UNL     1      60.375  -5.850  16.616  1.00  0.00    -0.240 N
HETATM   17  N6  UNL     1      60.764  -6.860  16.006  1.00  0.00    -0.333 N
ATOM     18  H62 UNL     1      60.090  -7.589  15.773  1.00  0.00     0.178 HD
ATOM     19  H61 UNL     1      61.746  -6.949  15.746  1.00  0.00     0.178 HD
ATOM     20  H5  UNL     1      61.037  -5.112  16.857  1.00  0.00     0.204 HD
ENDBRANCH  13  16
ENDBRANCH  12  13
TORSDOF 3
ENDMDL