MODEL 2
REMARK VINA RESULT: -6.626010279      1.261      1.571
REMARK  3 active torsions:
REMARK  status: ('A' for Active; 'I' for Inactive)
REMARK    1  A    between atoms: N1_1  and  C1_4
REMARK    2  A    between atoms: N5_14  and  N6_16
REMARK    3  A    between atoms: N6_16  and  S1_18
ROOT
HETATM    1  C1  UNL     1      57.413  -2.889  19.698  1.00  0.00     0.150 A
HETATM    2  N2  UNL     1      56.765  -2.561  20.830  1.00  0.00    -0.291 N
ATOM      3  H2  UNL     1      56.301  -1.654  20.878  1.00  0.00     0.172 HD
HETATM    4  C2  UNL     1      56.701  -3.373  21.900  1.00  0.00     0.340 A
HETATM    5  O1  UNL     1      56.095  -3.068  22.958  1.00  0.00    -0.245 OA
HETATM    6  N3  UNL     1      57.323  -4.578  21.824  1.00  0.00    -0.250 N
ATOM      7  H3  UNL     1      57.297  -5.221  22.616  1.00  0.00     0.192 HD
HETATM    8  N4  UNL     1      57.964  -4.912  20.715  1.00  0.00    -0.277 N
ATOM      9  H4  UNL     1      58.425  -5.821  20.675  1.00  0.00     0.189 HD
HETATM   10  C3  UNL     1      58.034  -4.112  19.645  1.00  0.00     0.180 A
HETATM   11  N5  UNL     1      58.658  -4.444  18.574  1.00  0.00    -0.271 N
ATOM     12  H5  UNL     1      58.661  -3.773  17.805  1.00  0.00     0.189 HD
ENDROOT
BRANCH   1  13
HETATM   13  N1  UNL     1      57.433  -2.051  18.700  1.00  0.00    -0.382 N
ATOM     14  H12 UNL     1      56.878  -2.193  17.856  1.00  0.00     0.157 HD
ATOM     15  H11 UNL     1      58.022  -1.220  18.749  1.00  0.00     0.157 HD
ENDBRANCH   1  13
BRANCH  11  16
HETATM   16  N6  UNL     1      59.326  -5.638  18.379  1.00  0.00    -0.211 N
ATOM     17  H6  UNL     1      59.992  -5.946  19.087  1.00  0.00     0.201 HD
BRANCH  16  18
HETATM   18  S1  UNL     1      59.081  -6.623  16.992  1.00  0.00     0.373 S
HETATM   19  O2  UNL     1      58.415  -5.848  15.876  1.00  0.00    -0.186 OA
HETATM   20  O3  UNL     1      60.409  -7.093  16.447  1.00  0.00    -0.186 OA
ENDBRANCH  16  18
ENDBRANCH  11  16
TORSDOF 3
ENDMDL