MODEL 1
REMARK VINA RESULT: -6.303873400      0.000      0.000
REMARK  2 active torsions:
REMARK  status: ('A' for Active; 'I' for Inactive)
REMARK    1  A    between atoms: C5_10  and  N3_11
REMARK    2  A    between atoms: N3_11  and  N4_13
ROOT
HETATM    1  C1  UNL     1      59.841  -7.679  19.018  1.00  0.00     0.047 C
HETATM    2  C2  UNL     1      59.202  -6.696  18.407  1.00  0.00     0.079 A
HETATM    3  N1  UNL     1      59.004  -6.792  17.073  1.00  0.00    -0.306 N
ATOM      4  H1  UNL     1      59.341  -7.605  16.558  1.00  0.00     0.171 HD
HETATM    5  C3  UNL     1      58.360  -5.805  16.438  1.00  0.00     0.325 A
HETATM    6  O1  UNL     1      58.153  -5.851  15.202  1.00  0.00    -0.247 OA
HETATM    7  N2  UNL     1      57.913  -4.734  17.112  1.00  0.00    -0.304 N
ATOM      8  H2  UNL     1      57.426  -4.002  16.594  1.00  0.00     0.171 HD
HETATM    9  C4  UNL     1      58.078  -4.580  18.435  1.00  0.00     0.106 A
HETATM   10  C5  UNL     1      57.619  -3.504  19.053  1.00  0.00     0.141 C
HETATM   11  C7  UNL     1      58.741  -5.592  19.096  1.00  0.00     0.225 A
HETATM   12  O2  UNL     1      58.920  -5.494  20.336  1.00  0.00    -0.283 OA
ENDROOT
BRANCH  10  13
HETATM   13  N3  UNL     1      57.758  -3.282  20.436  1.00  0.00    -0.307 N
ATOM     14  H3  UNL     1      58.690  -3.310  20.850  1.00  0.00     0.186 HD
BRANCH  13  15
HETATM   15  N4  UNL     1      56.671  -3.026  21.253  1.00  0.00    -0.276 N
HETATM   16  C6  UNL     1      56.481  -3.579  22.398  1.00  0.00     0.215 C
HETATM   17  N5  UNL     1      57.392  -4.536  22.961  1.00  0.00    -0.065 NA
HETATM   18  N6  UNL     1      55.322  -3.230  23.142  1.00  0.00    -0.065 NA
ATOM     19  H4  UNL     1      55.975  -2.355  20.926  1.00  0.00     0.189 HD
ENDBRANCH  13  15
ENDBRANCH  10  13
TORSDOF 2
ENDMDL