MODEL 2
REMARK VINA RESULT: -5.822523412      2.668      3.656
REMARK  1 active torsions:
REMARK  status: ('A' for Active; 'I' for Inactive)
REMARK    1  A    between atoms: N2_3  and  N3_5
ROOT
HETATM    1  N3  UNL     1      59.055  -5.082  19.803  1.00  0.00    -0.286 N
ATOM      2  H3  UNL     1      59.808  -5.556  19.305  1.00  0.00     0.188 HD
HETATM    3  C2  UNL     1      58.515  -5.611  20.855  1.00  0.00     0.124 C
HETATM    4  C3  UNL     1      59.023  -6.927  21.314  1.00  0.00     0.203 C
HETATM    5  N4  UNL     1      59.613  -6.910  22.606  1.00  0.00    -0.335 N
ATOM      6  H4  UNL     1      60.404  -7.547  22.700  1.00  0.00     0.164 HD
HETATM    7  C4  UNL     1      59.323  -6.181  23.805  1.00  0.00     0.331 C
HETATM    8  O1  UNL     1      60.242  -6.154  24.671  1.00  0.00    -0.246 OA
HETATM    9  N5  UNL     1      58.139  -5.495  24.122  1.00  0.00    -0.219 N
ATOM     10  H5  UNL     1      58.043  -5.199  25.094  1.00  0.00     0.185 HD
HETATM   11  S1  UNL     1      56.824  -5.089  23.080  1.00  0.00     0.328 S
HETATM   12  O2  UNL     1      56.111  -3.863  23.556  1.00  0.00    -0.182 OA
HETATM   13  O3  UNL     1      55.898  -6.272  23.023  1.00  0.00    -0.182 OA
HETATM   14  N6  UNL     1      57.470  -4.884  21.492  1.00  0.00    -0.254 N
ATOM     15  H6  UNL     1      57.047  -4.141  20.936  1.00  0.00     0.181 HD
ENDROOT
BRANCH   1  16
HETATM   16  N2  UNL     1      58.578  -3.851  19.376  1.00  0.00    -0.297 N
HETATM   17  C1  UNL     1      57.951  -3.643  18.288  1.00  0.00     0.206 C
HETATM   18  N1  UNL     1      57.527  -2.318  17.994  1.00  0.00    -0.095 NA
ATOM     19  H2  UNL     1      58.744  -3.047  19.984  1.00  0.00     0.187 HD
ENDBRANCH   1  16
TORSDOF 1
ENDMDL