MODEL 1
REMARK VINA RESULT: -6.899694614      0.000      0.000
REMARK  4 active torsions:
REMARK  status: ('A' for Active; 'I' for Inactive)
REMARK    1  A    between atoms: C1_2  and  C2_4
REMARK    2  A    between atoms: C2_4  and  N2_5
REMARK    3  A    between atoms: C2_4  and  C3_9
REMARK       I    between atoms: C3_9  and  N3_11
REMARK    4  A    between atoms: N3_11  and  C4_13
ROOT
HETATM    1  C3  UNL     1      58.574  -6.090  17.458  1.00  0.00     0.275 C
HETATM    2  O2  UNL     1      57.699  -6.614  16.724  1.00  0.00    -0.270 OA
HETATM    3  N3  UNL     1      58.714  -4.694  17.453  1.00  0.00    -0.156 N
ATOM      4  H3  UNL     1      59.231  -4.245  16.696  1.00  0.00     0.187 HD
ENDROOT
BRANCH   3   5
HETATM    5  C4  UNL     1      58.194  -3.956  18.401  1.00  0.00     0.703 A
HETATM    6  N4  UNL     1      57.895  -4.358  19.646  1.00  0.00    -0.128 N
HETATM    7  N5  UNL     1      57.383  -3.368  20.358  1.00  0.00    -0.237 N
ATOM      8  H4  UNL     1      58.044  -5.304  19.997  1.00  0.00     0.205 HD
HETATM    9  C5  UNL     1      57.360  -2.302  19.523  1.00  0.00     0.353 A
ATOM     10  H5  UNL     1      57.071  -3.400  21.329  1.00  0.00     0.192 HD
HETATM   11  O3  UNL     1      56.922  -1.162  19.881  1.00  0.00    -0.245 OA
HETATM   12  N6  UNL     1      57.855  -2.657  18.325  1.00  0.00    -0.139 N
ATOM     13  H6  UNL     1      57.955  -2.053  17.510  1.00  0.00     0.189 HD
ENDBRANCH   3   5
BRANCH   1  14
HETATM   14  C2  UNL     1      59.412  -6.972  18.291  1.00  0.00     0.363 C
BRANCH  14  15
HETATM   15  C1  UNL     1      60.645  -7.407  17.624  1.00  0.00     0.271 C
HETATM   16  N1  UNL     1      61.295  -6.700  16.592  1.00  0.00    -0.060 NA
HETATM   17  O1  UNL     1      61.174  -8.507  18.004  1.00  0.00    -0.274 OA
ENDBRANCH  14  15
BRANCH  14  18
HETATM   18  N2  UNL     1      58.668  -8.145  18.700  1.00  0.00    -0.058 N
ATOM     19  H23 UNL     1      57.975  -8.428  18.009  1.00  0.00     0.275 HD
ATOM     20  H22 UNL     1      59.236  -8.992  18.685  1.00  0.00     0.275 HD
ATOM     21  H21 UNL     1      58.256  -7.967  19.616  1.00  0.00     0.275 HD
ENDBRANCH  14  18
ENDBRANCH   1  14
TORSDOF 4
ENDMDL