MODEL 3
REMARK VINA RESULT: -6.211019557      1.766      6.084
REMARK  4 active torsions:
REMARK  status: ('A' for Active; 'I' for Inactive)
REMARK    1  A    between atoms: N1_1  and  N2_4
REMARK    2  A    between atoms: N2_4  and  C1_6
REMARK    3  A    between atoms: N3_7  and  N4_9
REMARK    4  A    between atoms: N7_21  and  C7_22
ROOT
HETATM    1  N4  UNL     1      57.697  -4.513  20.987  1.00  0.00    -0.286 N
ATOM      2  H4  UNL     1      57.801  -5.046  21.850  1.00  0.00     0.188 HD
HETATM    3  C2  UNL     1      58.222  -4.996  19.945  1.00  0.00     0.130 C
HETATM    4  C3  UNL     1      58.082  -4.230  18.656  1.00  0.00     0.203 C
HETATM    5  N5  UNL     1      58.004  -5.014  17.481  1.00  0.00    -0.336 N
ATOM      6  H5  UNL     1      57.080  -4.905  17.065  1.00  0.00     0.164 HD
HETATM    7  C4  UNL     1      58.774  -5.903  16.683  1.00  0.00     0.317 C
HETATM    8  O1  UNL     1      58.535  -5.853  15.448  1.00  0.00    -0.247 OA
HETATM    9  N6  UNL     1      59.793  -6.880  16.922  1.00  0.00    -0.332 N
ATOM     10  H6  UNL     1      60.415  -7.027  16.127  1.00  0.00     0.165 HD
HETATM   11  C5  UNL     1      60.128  -7.735  18.119  1.00  0.00     0.230 C
HETATM   12  C6  UNL     1      59.580  -7.131  19.263  1.00  0.00    -0.040 C
HETATM   13  N7  UNL     1      58.924  -6.271  20.105  1.00  0.00    -0.242 N
ENDROOT
BRANCH   1  14
HETATM   14  N3  UNL     1      56.998  -3.335  21.062  1.00  0.00    -0.294 N
HETATM   15  C1  UNL     1      56.509  -2.918  22.177  1.00  0.00     0.213 C
ATOM     16  H3  UNL     1      56.864  -2.779  20.218  1.00  0.00     0.187 HD
BRANCH  15  17
HETATM   17  N2  UNL     1      56.667  -3.655  23.378  1.00  0.00    -0.301 N
ATOM     18  H2  UNL     1      56.767  -4.669  23.358  1.00  0.00     0.187 HD
BRANCH  17  19
HETATM   19  N1  UNL     1      56.683  -2.958  24.596  1.00  0.00    -0.344 N
ATOM     20  H12 UNL     1      57.574  -2.710  25.026  1.00  0.00     0.176 HD
ATOM     21  H11 UNL     1      55.793  -2.711  25.029  1.00  0.00     0.176 HD
ENDBRANCH  17  19
ENDBRANCH  15  17
ENDBRANCH   1  14
BRANCH  13  22
HETATM   22  C7  UNL     1      58.906  -6.694  21.466  1.00  0.00     0.368 C
HETATM   23  O2  UNL     1      59.587  -6.072  22.337  1.00  0.00    -0.282 OA
ENDBRANCH  13  22
TORSDOF 4
ENDMDL