MODEL 4
REMARK VINA RESULT: -6.498175396      2.745      4.644
REMARK  4 active torsions:
REMARK  status: ('A' for Active; 'I' for Inactive)
REMARK    1  A    between atoms: C1_4  and  C2_5
REMARK    2  A    between atoms: C1_4  and  N5_11
REMARK    3  A    between atoms: C2_5  and  N2_6
REMARK    4  A    between atoms: N5_11  and  C4_13
ROOT
HETATM    1  N5  UNL     1      59.073  -5.170  19.903  1.00  0.00    -0.179 N
ATOM      2  H5  UNL     1      59.533  -4.277  20.077  1.00  0.00     0.185 HD
ENDROOT
BRANCH   1   3
HETATM    3  C1  UNL     1      58.611  -5.906  21.028  1.00  0.00     0.108 C
HETATM    4  N1  UNL     1      57.677  -5.360  21.731  1.00  0.00    -0.387 N
ATOM      5  H12 UNL     1      57.346  -5.889  22.539  1.00  0.00     0.157 HD
ATOM      6  H11 UNL     1      57.258  -4.452  21.535  1.00  0.00     0.157 HD
BRANCH   3   7
HETATM    7  C2  UNL     1      59.213  -7.209  21.310  1.00  0.00     0.198 C
BRANCH   7   8
HETATM    8  N2  UNL     1      58.418  -8.329  20.919  1.00  0.00    -0.360 N
HETATM    9  C3  UNL     1      58.879  -9.168  20.064  1.00  0.00     0.197 C
HETATM   10  N3  UNL     1      58.139 -10.307  19.631  1.00  0.00    -0.067 NA
HETATM   11  N4  UNL     1      60.174  -8.967  19.522  1.00  0.00    -0.067 NA
ATOM     12  H2  UNL     1      57.489  -8.461  21.318  1.00  0.00     0.162 HD
ENDBRANCH   7   8
ENDBRANCH   3   7
ENDBRANCH   1   3
BRANCH   1  13
HETATM   13  C4  UNL     1      58.952  -5.548  18.697  1.00  0.00     0.691 A
HETATM   14  N6  UNL     1      59.928  -6.234  18.080  1.00  0.00    -0.141 N
HETATM   15  C5  UNL     1      59.746  -6.608  16.800  1.00  0.00     0.342 A
ATOM     16  H6  UNL     1      60.791  -6.468  18.572  1.00  0.00     0.189 HD
HETATM   17  O1  UNL     1      60.636  -7.261  16.161  1.00  0.00    -0.246 OA
HETATM   18  N7  UNL     1      58.590  -6.290  16.152  1.00  0.00    -0.260 N
HETATM   19  C6  UNL     1      57.603  -5.599  16.764  1.00  0.00     0.342 A
ATOM     20  H7  UNL     1      58.467  -6.581  15.182  1.00  0.00     0.175 HD
HETATM   21  O2  UNL     1      56.538  -5.311  16.156  1.00  0.00    -0.246 OA
HETATM   22  N8  UNL     1      57.819  -5.243  18.041  1.00  0.00    -0.141 N
ATOM     23  H8  UNL     1      57.094  -4.720  18.532  1.00  0.00     0.189 HD
ENDBRANCH   1  13
TORSDOF 4
ENDMDL