MODEL 2
REMARK VINA RESULT: -6.127682967      1.492      2.906
REMARK  2 active torsions:
REMARK  status: ('A' for Active; 'I' for Inactive)
REMARK    1  A    between atoms: N1_1  and  C1_4
REMARK    2  A    between atoms: N5_16  and  N6_18
ROOT
HETATM    1  C1  UNL     1      58.459  -5.293  20.063  1.00  0.00     0.149 C
HETATM    2  N2  UNL     1      58.035  -4.031  19.799  1.00  0.00    -0.292 N
ATOM      3  H2  UNL     1      57.708  -3.492  20.601  1.00  0.00     0.172 HD
HETATM    4  C2  UNL     1      57.991  -3.406  18.616  1.00  0.00     0.329 C
HETATM    5  O1  UNL     1      57.483  -2.263  18.552  1.00  0.00    -0.246 OA
HETATM    6  N3  UNL     1      58.435  -3.842  17.416  1.00  0.00    -0.260 N
ATOM      7  H3  UNL     1      58.444  -3.144  16.671  1.00  0.00     0.175 HD
HETATM    8  C3  UNL     1      58.867  -5.073  17.063  1.00  0.00     0.329 C
HETATM    9  O2  UNL     1      58.962  -5.312  15.832  1.00  0.00    -0.246 OA
HETATM   10  N4  UNL     1      59.211  -6.075  17.885  1.00  0.00    -0.290 N
ATOM     11  H4  UNL     1      59.688  -6.853  17.429  1.00  0.00     0.172 HD
HETATM   12  C4  UNL     1      59.029  -6.229  19.224  1.00  0.00     0.168 C
HETATM   13  N5  UNL     1      59.401  -7.306  19.784  1.00  0.00    -0.289 N
ATOM     14  H5  UNL     1      59.245  -7.378  20.790  1.00  0.00     0.188 HD
ENDROOT
BRANCH   1  15
HETATM   15  N1  UNL     1      58.287  -5.629  21.287  1.00  0.00    -0.382 N
ATOM     16  H12 UNL     1      58.345  -4.890  21.988  1.00  0.00     0.157 HD
ATOM     17  H11 UNL     1      58.108  -6.626  21.402  1.00  0.00     0.157 HD
ENDBRANCH   1  15
BRANCH  13  18
HETATM   18  N6  UNL     1      59.994  -8.385  19.171  1.00  0.00    -0.344 N
ATOM     19  H62 UNL     1      59.914  -9.273  19.666  1.00  0.00     0.176 HD
ATOM     20  H61 UNL     1      60.496  -8.378  18.283  1.00  0.00     0.176 HD
ENDBRANCH  13  18
TORSDOF 2
ENDMDL