MODEL 1
REMARK VINA RESULT: -7.426509944      0.000      0.000
REMARK  2 active torsions:
REMARK  status: ('A' for Active; 'I' for Inactive)
REMARK       I    between atoms: C1_2  and  N2_4
REMARK    1  A    between atoms: N2_4  and  N3_6
REMARK    2  A    between atoms: N3_6  and  C2_8
ROOT
HETATM    1  C2  UNL     1      58.505  -5.126  19.523  1.00  0.00     0.714 A
HETATM    2  N4  UNL     1      57.963  -4.749  20.676  1.00  0.00    -0.128 N
ATOM      3  H4  UNL     1      58.014  -5.385  21.471  1.00  0.00     0.205 HD
HETATM    4  N5  UNL     1      57.361  -3.582  20.838  1.00  0.00    -0.247 N
ATOM      5  H5  UNL     1      56.962  -3.344  21.746  1.00  0.00     0.191 HD
HETATM    6  C3  UNL     1      57.265  -2.706  19.824  1.00  0.00     0.329 A
HETATM    7  O2  UNL     1      56.714  -1.594  19.903  1.00  0.00    -0.261 OA
HETATM    8  C4  UNL     1      57.821  -3.080  18.618  1.00  0.00     0.329 A
HETATM    9  O3  UNL     1      57.791  -2.334  17.596  1.00  0.00    -0.261 OA
HETATM   10  N6  UNL     1      58.432  -4.279  18.480  1.00  0.00    -0.149 N
ATOM     11  H6  UNL     1      58.839  -4.542  17.582  1.00  0.00     0.188 HD
ENDROOT
BRANCH   1  12
HETATM   12  N3  UNL     1      59.073  -6.281  19.453  1.00  0.00    -0.127 N
ATOM     13  H3  UNL     1      58.749  -7.026  20.069  1.00  0.00     0.206 HD
BRANCH  12  14
HETATM   14  N2  UNL     1      60.112  -6.546  18.567  1.00  0.00    -0.240 N
HETATM   15  C1  UNL     1      59.845  -6.963  17.236  1.00  0.00     0.347 C
HETATM   16  N1  UNL     1      60.902  -7.232  16.337  1.00  0.00    -0.038 NA
HETATM   17  O1  UNL     1      58.665  -7.102  16.829  1.00  0.00    -0.249 OA
ATOM     18  H2  UNL     1      61.078  -6.439  18.877  1.00  0.00     0.192 HD
ENDBRANCH  12  14
ENDBRANCH   1  12
TORSDOF 2
ENDMDL