MODEL 2
REMARK VINA RESULT: -7.013909891      3.140      4.989
REMARK  1 active torsions:
REMARK  status: ('A' for Active; 'I' for Inactive)
REMARK       I    between atoms: N1_1  and  C1_4
REMARK       I    between atoms: C1_4  and  N3_6
REMARK    1  A    between atoms: N3_6  and  C2_8
ROOT
HETATM    1  C2  UNL     1      57.977  -4.055  19.420  1.00  0.00     0.192 A
HETATM    2  N4  UNL     1      58.064  -4.934  20.430  1.00  0.00    -0.277 N
ATOM      3  H4  UNL     1      58.517  -5.840  20.305  1.00  0.00     0.189 HD
HETATM    4  N5  UNL     1      57.539  -4.583  21.592  1.00  0.00    -0.250 N
ATOM      5  H5  UNL     1      57.600  -5.242  22.368  1.00  0.00     0.192 HD
HETATM    6  C3  UNL     1      56.934  -3.408  21.804  1.00  0.00     0.341 A
HETATM    7  O1  UNL     1      56.432  -3.076  22.919  1.00  0.00    -0.245 OA
HETATM    8  N6  UNL     1      56.829  -2.501  20.807  1.00  0.00    -0.271 N
ATOM      9  H6  UNL     1      56.370  -1.600  20.952  1.00  0.00     0.174 HD
HETATM   10  C4  UNL     1      57.359  -2.840  19.614  1.00  0.00     0.295 A
HETATM   11  O2  UNL     1      57.258  -1.981  18.681  1.00  0.00    -0.264 OA
ENDROOT
BRANCH   1  12
HETATM   12  N3  UNL     1      58.468  -4.335  18.267  1.00  0.00    -0.311 N
HETATM   13  C1  UNL     1      58.008  -5.367  17.434  1.00  0.00     0.187 C
HETATM   14  N1  UNL     1      58.260  -6.607  17.728  1.00  0.00    -0.373 N
HETATM   15  N2  UNL     1      57.256  -5.136  16.245  1.00  0.00    -0.064 NA
ATOM     16  H12 UNL     1      57.926  -7.357  17.123  1.00  0.00     0.158 HD
ATOM     17  H11 UNL     1      58.799  -6.773  18.579  1.00  0.00     0.158 HD
ATOM     18  H3  UNL     1      59.247  -3.768  17.933  1.00  0.00     0.170 HD
ENDBRANCH   1  12
TORSDOF 1
ENDMDL