MODEL 3
REMARK VINA RESULT: -6.344763161      1.914      2.420
REMARK  1 active torsions:
REMARK  status: ('A' for Active; 'I' for Inactive)
REMARK       I    between atoms: C1_4  and  N3_6
REMARK    1  A    between atoms: N3_6  and  C2_8
ROOT
HETATM    1  C2  UNL     1      58.457  -4.754  19.365  1.00  0.00     0.692 A
HETATM    2  N4  UNL     1      58.146  -5.109  20.626  1.00  0.00    -0.141 N
ATOM      3  H4  UNL     1      58.480  -6.001  20.991  1.00  0.00     0.189 HD
HETATM    4  C3  UNL     1      57.406  -4.311  21.411  1.00  0.00     0.342 A
HETATM    5  O1  UNL     1      57.107  -4.625  22.587  1.00  0.00    -0.246 OA
HETATM    6  N5  UNL     1      56.960  -3.135  20.948  1.00  0.00    -0.260 N
ATOM      7  H5  UNL     1      56.397  -2.518  21.533  1.00  0.00     0.175 HD
HETATM    8  C4  UNL     1      57.279  -2.799  19.693  1.00  0.00     0.342 A
HETATM    9  O2  UNL     1      56.878  -1.694  19.208  1.00  0.00    -0.246 OA
HETATM   10  N6  UNL     1      58.014  -3.573  18.887  1.00  0.00    -0.141 N
ATOM     11  H6  UNL     1      58.234  -3.278  17.936  1.00  0.00     0.189 HD
ENDROOT
BRANCH   1  12
HETATM   12  N3  UNL     1      59.167  -5.539  18.636  1.00  0.00    -0.163 N
HETATM   13  C1  UNL     1      58.690  -5.903  17.352  1.00  0.00     0.200 C
HETATM   14  N1  UNL     1      57.847  -6.856  17.258  1.00  0.00    -0.373 N
HETATM   15  N2  UNL     1      59.163  -5.200  16.224  1.00  0.00    -0.063 NA
ATOM     16  H12 UNL     1      57.504  -7.118  16.333  1.00  0.00     0.158 HD
ATOM     17  H11 UNL     1      57.504  -7.365  18.073  1.00  0.00     0.158 HD
ATOM     18  H3  UNL     1      60.061  -5.896  18.978  1.00  0.00     0.187 HD
ENDBRANCH   1  12
TORSDOF 1
ENDMDL