MODEL 1
REMARK VINA RESULT: -6.017518052      0.000      0.000
REMARK  3 active torsions:
REMARK  status: ('A' for Active; 'I' for Inactive)
REMARK    1  A    between atoms: N1_1  and  C1_4
REMARK    2  A    between atoms: C3_9  and  C4_10
REMARK    3  A    between atoms: N4_13  and  O3_14
ROOT
HETATM    1  C1  UNL     1      60.860  -7.492  17.325  1.00  0.00     0.695 A
HETATM    2  N2  UNL     1      60.357  -7.037  18.486  1.00  0.00    -0.153 N
ATOM      3  H2  UNL     1      60.802  -7.329  19.357  1.00  0.00     0.187 HD
HETATM    4  C2  UNL     1      59.289  -6.209  18.551  1.00  0.00     0.295 A
HETATM    5  O1  UNL     1      58.846  -5.804  19.647  1.00  0.00    -0.265 OA
HETATM    6  C3  UNL     1      58.691  -5.815  17.374  1.00  0.00     0.214 A
HETATM    7  N4  UNL     1      59.198  -6.273  16.215  1.00  0.00    -0.138 N
HETATM    8  N5  UNL     1      60.252  -7.087  16.198  1.00  0.00    -0.105 N
ATOM      9  H5  UNL     1      60.609  -7.413  15.299  1.00  0.00     0.208 HD
ENDROOT
BRANCH   1  10
HETATM   10  N1  UNL     1      61.894  -8.293  17.293  1.00  0.00    -0.233 N
ATOM     11  H12 UNL     1      62.587  -8.298  18.041  1.00  0.00     0.174 HD
ATOM     12  H11 UNL     1      62.044  -8.941  16.520  1.00  0.00     0.174 HD
ENDBRANCH   1  10
BRANCH   7  13
HETATM   13  O3  UNL     1      58.585  -5.865  15.060  1.00  0.00    -0.267 OA
ATOM     14  H3  UNL     1      59.112  -5.381  14.436  1.00  0.00     0.247 HD
ENDBRANCH   7  13
BRANCH   6  15
HETATM   15  C4  UNL     1      57.542  -4.927  17.378  1.00  0.00     0.291 C
HETATM   16  N3  UNL     1      57.620  -3.606  17.895  1.00  0.00    -0.056 NA
HETATM   17  O2  UNL     1      56.428  -5.293  16.925  1.00  0.00    -0.269 OA
ENDBRANCH   6  15
TORSDOF 3
ENDMDL