MODEL 3
REMARK VINA RESULT: -6.486105407      1.979      4.608
REMARK  1 active torsions:
REMARK  status: ('A' for Active; 'I' for Inactive)
REMARK       I    between atoms: C1_2  and  N2_4
REMARK    1  A    between atoms: N2_4  and  C2_6
ROOT
HETATM    1  C2  UNL     1      58.594  -4.999  19.319  1.00  0.00     0.694 A
HETATM    2  N3  UNL     1      58.199  -3.830  18.820  1.00  0.00    -0.141 N
ATOM      3  H3  UNL     1      58.437  -3.574  17.862  1.00  0.00     0.189 HD
HETATM    4  C3  UNL     1      57.491  -2.999  19.580  1.00  0.00     0.342 A
HETATM    5  O2  UNL     1      57.103  -1.877  19.124  1.00  0.00    -0.246 OA
HETATM    6  N4  UNL     1      57.157  -3.298  20.845  1.00  0.00    -0.260 N
ATOM      7  H4  UNL     1      56.614  -2.650  21.415  1.00  0.00     0.175 HD
HETATM    8  C4  UNL     1      57.564  -4.485  21.339  1.00  0.00     0.342 A
HETATM    9  O3  UNL     1      57.267  -4.797  22.524  1.00  0.00    -0.246 OA
HETATM   10  N5  UNL     1      58.278  -5.323  20.570  1.00  0.00    -0.141 N
ATOM     11  H5  UNL     1      58.581  -6.220  20.951  1.00  0.00     0.189 HD
ENDROOT
BRANCH   1  12
HETATM   12  N2  UNL     1      59.280  -5.815  18.594  1.00  0.00    -0.143 N
HETATM   13  C1  UNL     1      58.845  -6.105  17.284  1.00  0.00     0.346 C
HETATM   14  N1  UNL     1      59.129  -5.266  16.181  1.00  0.00    -0.039 NA
HETATM   15  O1  UNL     1      58.179  -7.144  17.082  1.00  0.00    -0.250 OA
ATOM     16  H2  UNL     1      60.128  -6.246  18.964  1.00  0.00     0.188 HD
ENDBRANCH   1  12
TORSDOF 1
ENDMDL