MODEL 3
REMARK VINA RESULT: -5.814248285      1.927      4.279
REMARK  4 active torsions:
REMARK  status: ('A' for Active; 'I' for Inactive)
REMARK    1  A    between atoms: N1_1  and  C1_4
REMARK    2  A    between atoms: C2_7  and  N3_8
REMARK    3  A    between atoms: N3_8  and  N4_10
REMARK    4  A    between atoms: C3_17  and  C4_18
ROOT
HETATM    1  C1  UNL     1      58.563  -5.298  19.537  1.00  0.00     0.148 A
HETATM    2  N2  UNL     1      59.209  -6.225  18.811  1.00  0.00    -0.172 N
ATOM      3  H2  UNL     1      59.481  -7.099  19.261  1.00  0.00     0.186 HD
HETATM    4  C2  UNL     1      59.509  -6.045  17.516  1.00  0.00     0.712 A
HETATM    5  N5  UNL     1      59.166  -4.911  16.895  1.00  0.00    -0.130 N
ATOM      6  H5  UNL     1      59.389  -4.764  15.910  1.00  0.00     0.205 HD
HETATM    7  N6  UNL     1      58.527  -3.983  17.598  1.00  0.00    -0.278 N
ATOM      8  H6  UNL     1      58.261  -3.115  17.133  1.00  0.00     0.188 HD
HETATM    9  C3  UNL     1      58.218  -4.138  18.887  1.00  0.00     0.158 A
ENDROOT
BRANCH   4  10
HETATM   10  N3  UNL     1      60.131  -6.956  16.844  1.00  0.00    -0.137 N
ATOM     11  H3  UNL     1      59.607  -7.730  16.436  1.00  0.00     0.205 HD
BRANCH  10  12
HETATM   12  N4  UNL     1      61.503  -6.890  16.673  1.00  0.00    -0.331 N
ATOM     13  H42 UNL     1      62.055  -7.739  16.800  1.00  0.00     0.177 HD
ATOM     14  H41 UNL     1      61.952  -6.009  16.425  1.00  0.00     0.177 HD
ENDBRANCH  10  12
ENDBRANCH   4  10
BRANCH   1  15
HETATM   15  N1  UNL     1      58.279  -5.490  20.799  1.00  0.00    -0.383 N
ATOM     16  H12 UNL     1      57.651  -6.235  21.101  1.00  0.00     0.157 HD
ATOM     17  H11 UNL     1      58.675  -4.902  21.533  1.00  0.00     0.157 HD
ENDBRANCH   1  15
BRANCH   9  18
HETATM   18  C4  UNL     1      57.524  -3.098  19.599  1.00  0.00     0.286 C
HETATM   19  N7  UNL     1      57.024  -1.966  18.910  1.00  0.00    -0.056 NA
HETATM   20  O1  UNL     1      57.363  -3.197  20.834  1.00  0.00    -0.269 OA
ENDBRANCH   9  18
TORSDOF 4
ENDMDL