MODEL 5
REMARK VINA RESULT: -5.462051240      1.192      3.458
REMARK  2 active torsions:
REMARK  status: ('A' for Active; 'I' for Inactive)
REMARK    1  A    between atoms: C1_2  and  C2_4
REMARK    2  A    between atoms: C2_4  and  N2_5
ROOT
HETATM    1  C2  UNL     1      58.996  -6.602  18.721  1.00  0.00     0.359 C
HETATM    2  N3  UNL     1      60.338  -6.684  18.167  1.00  0.00    -0.285 N
ATOM      3  H3  UNL     1      61.147  -6.798  18.778  1.00  0.00     0.169 HD
HETATM    4  C3  UNL     1      60.500  -6.600  16.754  1.00  0.00     0.327 C
HETATM    5  O2  UNL     1      61.632  -6.790  16.200  1.00  0.00    -0.247 OA
HETATM    6  N4  UNL     1      59.421  -6.299  15.893  1.00  0.00    -0.261 N
ATOM      7  H4  UNL     1      59.572  -6.236  14.886  1.00  0.00     0.175 HD
HETATM    8  C4  UNL     1      58.118  -6.081  16.434  1.00  0.00     0.327 C
HETATM    9  O3  UNL     1      57.149  -5.871  15.691  1.00  0.00    -0.247 OA
HETATM   10  N5  UNL     1      57.997  -6.163  17.853  1.00  0.00    -0.285 N
ATOM     11  H5  UNL     1      57.109  -5.877  18.266  1.00  0.00     0.169 HD
ENDROOT
BRANCH   1  12
HETATM   12  C1  UNL     1      59.001  -5.888  20.023  1.00  0.00     0.310 C
HETATM   13  N1  UNL     1      59.416  -6.580  21.191  1.00  0.00    -0.056 NA
HETATM   14  O1  UNL     1      58.631  -4.703  20.090  1.00  0.00    -0.270 OA
ENDBRANCH   1  12
BRANCH   1  15
HETATM   15  N2  UNL     1      58.729  -8.071  19.054  1.00  0.00    -0.024 N
ATOM     16  H23 UNL     1      59.303  -8.427  19.818  1.00  0.00     0.280 HD
ATOM     17  H22 UNL     1      57.824  -8.232  19.496  1.00  0.00     0.280 HD
ATOM     18  H21 UNL     1      58.853  -8.580  18.179  1.00  0.00     0.280 HD
ENDBRANCH   1  15
TORSDOF 2
ENDMDL