MODEL 2
REMARK VINA RESULT: -6.673738211      1.765      2.243
REMARK  1 active torsions:
REMARK  status: ('A' for Active; 'I' for Inactive)
REMARK    1  A    between atoms: N3_4  and  C2_6
ROOT
HETATM    1  C2  UNL     1      58.536  -4.806  18.778  1.00  0.00     0.192 A
HETATM    2  N4  UNL     1      58.626  -4.684  17.442  1.00  0.00    -0.277 N
ATOM      3  H4  UNL     1      58.160  -3.900  16.986  1.00  0.00     0.189 HD
HETATM    4  N5  UNL     1      59.299  -5.549  16.698  1.00  0.00    -0.250 N
ATOM      5  H5  UNL     1      59.339  -5.416  15.687  1.00  0.00     0.192 HD
HETATM    6  C3  UNL     1      59.938  -6.612  17.258  1.00  0.00     0.341 A
HETATM    7  O1  UNL     1      60.561  -7.399  16.498  1.00  0.00    -0.245 OA
HETATM    8  N6  UNL     1      59.871  -6.768  18.591  1.00  0.00    -0.271 N
ATOM      9  H6  UNL     1      60.340  -7.558  19.035  1.00  0.00     0.174 HD
HETATM   10  C4  UNL     1      59.182  -5.882  19.349  1.00  0.00     0.295 A
HETATM   11  O2  UNL     1      59.147  -6.064  20.578  1.00  0.00    -0.264 OA
ENDROOT
BRANCH   1  12
HETATM   12  N3  UNL     1      57.827  -3.905  19.613  1.00  0.00    -0.313 N
HETATM   13  C1  UNL     1      57.450  -2.740  19.244  1.00  0.00     0.202 C
HETATM   14  N1  UNL     1      57.673  -2.166  17.963  1.00  0.00    -0.066 NA
HETATM   15  N2  UNL     1      56.746  -1.944  20.190  1.00  0.00    -0.066 NA
ATOM     16  H3  UNL     1      57.606  -4.203  20.563  1.00  0.00     0.170 HD
ENDBRANCH   1  12
TORSDOF 1
ENDMDL