MODEL 1
REMARK VINA RESULT: -5.897891916      0.000      0.000
REMARK  4 active torsions:
REMARK  status: ('A' for Active; 'I' for Inactive)
REMARK       I    between atoms: C1_4  and  N2_5
REMARK       I    between atoms: C1_4  and  N5_11
REMARK    1  A    between atoms: N2_5  and  N3_7
REMARK    2  A    between atoms: N3_7  and  N4_8
REMARK    3  A    between atoms: N5_11  and  S1_13
REMARK    4  A    between atoms: S1_13  and  N6_14
ROOT
HETATM    1  N1  UNL     1      59.270  -5.347  19.506  1.00  0.00    -0.233 N
ATOM      2  H11 UNL     1      59.454  -6.270  19.115  1.00  0.00     0.174 HD
ATOM      3  H12 UNL     1      59.811  -5.002  20.299  1.00  0.00     0.174 HD
HETATM    4  C1  UNL     1      58.363  -4.568  19.042  1.00  0.00     0.699 C
HETATM    5  N2  UNL     1      58.107  -3.284  19.585  1.00  0.00    -0.116 N
ATOM      6  H2  UNL     1      58.736  -2.889  20.285  1.00  0.00     0.203 HD
HETATM    7  N5  UNL     1      57.608  -5.047  17.936  1.00  0.00    -0.099 N
ATOM      8  H5  UNL     1      56.616  -4.820  17.862  1.00  0.00     0.199 HD
ENDROOT
BRANCH   5   9
HETATM    9  N3  UNL     1      56.988  -2.561  19.159  1.00  0.00    -0.015 NA
BRANCH   9  10
HETATM   10  N4  UNL     1      56.980  -1.365  19.891  1.00  0.00    -0.328 N
ATOM     11  H42 UNL     1      57.734  -1.022  20.485  1.00  0.00     0.174 HD
ATOM     12  H41 UNL     1      56.081  -0.918  19.710  1.00  0.00     0.174 HD
ENDBRANCH   9  10
ENDBRANCH   5   9
BRANCH   7  13
HETATM   13  S1  UNL     1      58.364  -6.016  16.714  1.00  0.00     0.330 S
HETATM   14  O1  UNL     1      57.449  -6.134  15.515  1.00  0.00    -0.182 OA
HETATM   15  O2  UNL     1      58.677  -7.363  17.303  1.00  0.00    -0.182 OA
BRANCH  13  16
HETATM   16  N6  UNL     1      59.780  -5.202  16.208  1.00  0.00    -0.311 N
ATOM     17  H62 UNL     1      60.617  -5.649  15.834  1.00  0.00     0.170 HD
ATOM     18  H61 UNL     1      59.630  -4.202  16.349  1.00  0.00     0.170 HD
ENDBRANCH  13  16
ENDBRANCH   7  13
TORSDOF 4
ENDMDL