MODEL 1
REMARK VINA RESULT: -11.067918269      0.000      0.000
REMARK  13 active torsions:
REMARK  status: ('A' for Active; 'I' for Inactive)
REMARK       I    between atoms: N1_1  and  C1_5
REMARK       I    between atoms: C1_5  and  N2_6
REMARK       I    between atoms: C1_5  and  N5_33
REMARK       I    between atoms: N2_6  and  C2_8
REMARK    1  A    between atoms: C2_8  and  C3_10
REMARK    2  A    between atoms: C3_10  and  O2_11
REMARK    3  A    between atoms: C3_10  and  C4_13
REMARK    4  A    between atoms: C3_10  and  N3_21
REMARK    5  A    between atoms: C8_17  and  O3_18
REMARK    6  A    between atoms: C11_23  and  O4_24
REMARK    7  A    between atoms: C13_28  and  N4_29
REMARK    8  A    between atoms: N5_33  and  C15_35
REMARK    9  A    between atoms: C15_35  and  C16_36
REMARK   10  A    between atoms: C15_35  and  C23_46
REMARK   11  A    between atoms: C16_36  and  C17_37
REMARK   12  A    between atoms: C20_40  and  N6_41
REMARK       I    between atoms: C23_46  and  N7_48
REMARK   13  A    between atoms: N7_48  and  O11_50
ROOT
HETATM    1  N1  UNL     1      53.161  17.455  17.363  1.00  0.00    -0.041 N
ATOM      2  H11 UNL     1      52.631  16.584  17.342  1.00  0.00     0.279 HD
ATOM      3  H12 UNL     1      54.175  17.340  17.368  1.00  0.00     0.279 HD
ATOM      4  H13 UNL     1      53.127  18.000  16.502  1.00  0.00     0.279 HD
HETATM    5  C1  UNL     1      52.618  18.125  18.532  1.00  0.00     0.385 C
HETATM    6  N2  UNL     1      53.390  19.395  18.563  1.00  0.00    -0.313 N
ATOM      7  H2  UNL     1      53.192  20.112  17.866  1.00  0.00     0.166 HD
HETATM    8  C2  UNL     1      54.385  19.637  19.523  1.00  0.00     0.282 C
HETATM    9  O1  UNL     1      54.606  18.731  20.372  1.00  0.00    -0.267 OA
HETATM   10  N5  UNL     1      51.294  18.428  18.628  1.00  0.00    -0.367 N
ATOM     11  H5  UNL     1      51.085  19.384  18.918  1.00  0.00     0.157 HD
ENDROOT
BRANCH   8  12
HETATM   12  C3  UNL     1      55.185  20.864  19.613  1.00  0.00     0.250 C
BRANCH  12  13
HETATM   13  O2  UNL     1      56.222  20.667  20.516  1.00  0.00    -0.359 OA
ATOM     14  H2  UNL     1      56.564  21.511  20.788  1.00  0.00     0.213 HD
ENDBRANCH  12  13
BRANCH  12  15
HETATM   15  C4  UNL     1      54.472  22.079  20.006  1.00  0.00     0.009 A
HETATM   16  C5  UNL     1      54.050  23.079  19.171  1.00  0.00     0.013 A
HETATM   17  C6  UNL     1      53.407  24.166  19.700  1.00  0.00     0.003 A
HETATM   18  C7  UNL     1      53.161  24.305  21.055  1.00  0.00     0.036 A
HETATM   19  C8  UNL     1      53.585  23.301  21.897  1.00  0.00     0.066 A
HETATM   20  C9  UNL     1      54.229  22.208  21.385  1.00  0.00     0.049 A
BRANCH  19  21
HETATM   21  O3  UNL     1      53.337  23.438  23.265  1.00  0.00    -0.361 OA
ATOM     22  H3  UNL     1      52.634  22.926  23.647  1.00  0.00     0.217 HD
ENDBRANCH  19  21
ENDBRANCH  12  15
BRANCH  12  23
HETATM   23  N3  UNL     1      55.760  21.091  18.299  1.00  0.00    -0.317 N
HETATM   24  C10 UNL     1      56.782  21.946  18.160  1.00  0.00     0.135 A
HETATM   25  C11 UNL     1      57.367  22.207  16.930  1.00  0.00     0.134 A
HETATM   26  C12 UNL     1      56.873  21.553  15.819  1.00  0.00     0.240 A
HETATM   27  O5  UNL     1      57.350  21.740  14.682  1.00  0.00    -0.283 OA
HETATM   28  C13 UNL     1      55.836  20.681  15.951  1.00  0.00     0.171 A
HETATM   29  C14 UNL     1      55.292  20.465  17.214  1.00  0.00     0.134 A
BRANCH  25  30
HETATM   30  O4  UNL     1      58.420  23.098  16.830  1.00  0.00    -0.356 OA
ATOM     31  H4  UNL     1      59.155  22.912  16.258  1.00  0.00     0.218 HD
ENDBRANCH  25  30
BRANCH  28  32
HETATM   32  N4  UNL     1      55.258  19.963  14.873  1.00  0.00    -0.110 N
HETATM   33  O6  UNL     1      54.066  19.607  14.903  1.00  0.00    -0.532 OA
HETATM   34  O7  UNL     1      55.975  19.634  13.744  1.00  0.00    -0.532 OA
ENDBRANCH  28  32
ENDBRANCH  12  23
ENDBRANCH   8  12
BRANCH  10  35
HETATM   35  C15 UNL     1      50.176  17.617  18.386  1.00  0.00     0.178 C
BRANCH  35  36
HETATM   36  C16 UNL     1      50.172  16.452  19.331  1.00  0.00     0.073 C
BRANCH  36  37
HETATM   37  C17 UNL     1      49.343  16.535  20.526  1.00  0.00    -0.056 A
HETATM   38  C18 UNL     1      49.033  17.688  21.207  1.00  0.00     0.009 A
HETATM   39  C19 UNL     1      48.272  17.663  22.362  1.00  0.00     0.036 A
HETATM   40  C20 UNL     1      47.782  16.497  22.901  1.00  0.00     0.102 A
HETATM   41  C21 UNL     1      48.090  15.326  22.221  1.00  0.00     0.036 A
HETATM   42  C22 UNL     1      48.843  15.347  21.075  1.00  0.00     0.009 A
BRANCH  40  43
HETATM   43  N6  UNL     1      46.990  16.485  24.084  1.00  0.00    -0.116 N
HETATM   44  O8  UNL     1      46.127  15.604  24.252  1.00  0.00    -0.532 OA
HETATM   45  O9  UNL     1      47.166  17.436  25.038  1.00  0.00    -0.532 OA
ENDBRANCH  40  43
ENDBRANCH  36  37
ENDBRANCH  35  36
BRANCH  35  46
HETATM   46  C23 UNL     1      50.108  17.135  16.983  1.00  0.00     0.263 C
HETATM   47  O10 UNL     1      49.799  15.902  16.814  1.00  0.00    -0.269 OA
HETATM   48  N7  UNL     1      50.345  17.851  15.821  1.00  0.00    -0.236 N
ATOM     49  H7  UNL     1      49.579  17.879  15.148  1.00  0.00     0.197 HD
BRANCH  48  50
HETATM   50  O11 UNL     1      51.372  18.461  15.501  1.00  0.00    -0.287 OA
ATOM     51  H11 UNL     1      51.534  18.953  14.704  1.00  0.00     0.244 HD
ENDBRANCH  48  50
ENDBRANCH  35  46
ENDBRANCH  10  35
TORSDOF 13
ENDMDL