MODEL 4
REMARK VINA RESULT: -10.149664278      3.046      4.507
REMARK  14 active torsions:
REMARK  status: ('A' for Active; 'I' for Inactive)
REMARK    1  A    between atoms: C2_8  and  S1_9
REMARK    2  A    between atoms: S1_9  and  C3_10
REMARK    3  A    between atoms: C3_10  and  C4_11
REMARK       I    between atoms: C4_11  and  N5_13
REMARK    4  A    between atoms: N5_13  and  C5_15
REMARK    5  A    between atoms: C9_19  and  C10_20
REMARK       I    between atoms: C10_20  and  N6_22
REMARK    6  A    between atoms: N6_22  and  S2_24
REMARK    7  A    between atoms: S2_24  and  N7_27
REMARK    8  A    between atoms: N7_27  and  C11_29
REMARK    9  A    between atoms: C11_29  and  C12_30
REMARK   10  A    between atoms: C11_29  and  C13_33
REMARK   11  A    between atoms: C15_35  and  O7_36
REMARK   12  A    between atoms: C16_38  and  O8_39
REMARK   13  A    between atoms: C17_41  and  C18_42
REMARK   14  A    between atoms: C18_42  and  O9_43
ROOT
HETATM    1  C10 UNL     1      53.569  19.273  18.690  1.00  0.00     0.266 C
HETATM    2  O2  UNL     1      54.542  18.657  19.185  1.00  0.00    -0.267 OA
HETATM    3  N6  UNL     1      53.557  20.693  18.792  1.00  0.00    -0.233 N
ATOM      4  H6  UNL     1      52.764  21.194  18.391  1.00  0.00     0.183 HD
ENDROOT
BRANCH   3   5
HETATM    5  S2  UNL     1      54.793  21.612  19.546  1.00  0.00     0.322 S
HETATM    6  O3  UNL     1      54.880  21.191  21.001  1.00  0.00    -0.182 OA
HETATM    7  O4  UNL     1      54.517  23.061  19.463  1.00  0.00    -0.182 OA
BRANCH   5   8
HETATM    8  N7  UNL     1      56.296  21.184  18.817  1.00  0.00    -0.283 N
ATOM      9  H7  UNL     1      56.775  20.297  18.976  1.00  0.00     0.175 HD
BRANCH   8  10
HETATM   10  C11 UNL     1      56.801  22.237  17.949  1.00  0.00     0.228 C
BRANCH  10  11
HETATM   11  C12 UNL     1      58.280  22.120  17.837  1.00  0.00     0.202 C
HETATM   12  O5  UNL     1      58.959  23.198  17.846  1.00  0.00    -0.646 OA
HETATM   13  O6  UNL     1      58.977  20.939  17.718  1.00  0.00    -0.646 OA
ENDBRANCH  10  11
BRANCH  10  14
HETATM   14  C13 UNL     1      56.165  22.081  16.606  1.00  0.00    -0.021 A
HETATM   15  C14 UNL     1      55.827  20.841  16.119  1.00  0.00     0.049 A
HETATM   16  C15 UNL     1      55.245  20.660  14.885  1.00  0.00     0.100 A
HETATM   17  C16 UNL     1      54.988  21.768  14.100  1.00  0.00     0.107 A
HETATM   18  C17 UNL     1      55.324  23.017  14.586  1.00  0.00     0.002 A
HETATM   19  C19 UNL     1      55.908  23.185  15.821  1.00  0.00     0.022 A
BRANCH  16  20
HETATM   20  O7  UNL     1      54.935  19.377  14.459  1.00  0.00    -0.358 OA
ATOM     21  H7  UNL     1      54.400  19.259  13.684  1.00  0.00     0.217 HD
ENDBRANCH  16  20
BRANCH  17  22
HETATM   22  O8  UNL     1      54.404  21.621  12.851  1.00  0.00    -0.357 OA
ATOM     23  H8  UNL     1      54.339  20.762  12.451  1.00  0.00     0.217 HD
ENDBRANCH  17  22
BRANCH  18  24
HETATM   24  C18 UNL     1      55.021  24.196  13.702  1.00  0.00     0.205 C
BRANCH  24  25
HETATM   25  O9  UNL     1      55.632  23.997  12.472  1.00  0.00    -0.396 OA
ATOM     26  H9  UNL     1      55.611  24.814  11.987  1.00  0.00     0.209 HD
ENDBRANCH  24  25
ENDBRANCH  18  24
ENDBRANCH  10  14
ENDBRANCH   8  10
ENDBRANCH   5   8
ENDBRANCH   3   5
BRANCH   1  27
HETATM   27  C9  UNL     1      52.481  18.559  18.026  1.00  0.00     0.035 A
HETATM   28  C8  UNL     1      52.290  18.615  16.675  1.00  0.00     0.017 A
HETATM   29  C7  UNL     1      51.296  17.933  16.015  1.00  0.00     0.003 A
HETATM   30  C6  UNL     1      50.444  17.147  16.786  1.00  0.00     0.029 A
HETATM   31  C5  UNL     1      50.581  17.048  18.148  1.00  0.00     0.035 A
HETATM   32  C20 UNL     1      51.601  17.761  18.747  1.00  0.00     0.046 A
BRANCH  31  33
HETATM   33  N5  UNL     1      49.781  16.222  18.964  1.00  0.00    -0.327 N
HETATM   34  C4  UNL     1      49.151  16.704  20.131  1.00  0.00     0.231 C
HETATM   35  O1  UNL     1      49.234  17.910  20.549  1.00  0.00    -0.272 OA
ATOM     36  H5  UNL     1      49.653  15.245  18.701  1.00  0.00     0.169 HD
BRANCH  34  37
HETATM   37  C3  UNL     1      48.326  15.795  20.966  1.00  0.00     0.185 C
BRANCH  37  38
HETATM   38  S1  UNL     1      48.259  16.534  22.640  1.00  0.00    -0.082 SA
BRANCH  38  39
HETATM   39  C2  UNL     1      47.294  15.479  23.714  1.00  0.00     0.175 A
HETATM   40  N1  UNL     1      47.517  14.164  23.881  1.00  0.00    -0.257 N
HETATM   41  C1  UNL     1      48.520  13.350  23.247  1.00  0.00     0.177 C
HETATM   42  N2  UNL     1      46.616  13.724  24.759  1.00  0.00    -0.003 NA
HETATM   43  N3  UNL     1      45.823  14.721  25.151  1.00  0.00    -0.224 N
HETATM   44  N4  UNL     1      46.258  15.782  24.498  1.00  0.00    -0.266 N
ATOM     45  H3  UNL     1      45.049  14.674  25.813  1.00  0.00     0.205 HD
ATOM     46  H4  UNL     1      45.854  16.715  24.582  1.00  0.00     0.190 HD
ENDBRANCH  38  39
ENDBRANCH  37  38
ENDBRANCH  34  37
ENDBRANCH  31  33
ENDBRANCH   1  27
TORSDOF 14
ENDMDL