MODEL 4
REMARK VINA RESULT: -8.888695170      1.601      2.141
REMARK  14 active torsions:
REMARK  status: ('A' for Active; 'I' for Inactive)
REMARK    1  A    between atoms: O1_2  and  C2_3
REMARK    2  A    between atoms: C2_3  and  C3_5
REMARK    3  A    between atoms: C3_5  and  N1_6
REMARK    4  A    between atoms: C3_5  and  C5_15
REMARK    5  A    between atoms: C3_5  and  C6_23
REMARK       I    between atoms: N1_6  and  C4_8
REMARK       I    between atoms: C4_8  and  N2_10
REMARK    6  A    between atoms: N2_10  and  S1_12
REMARK    7  A    between atoms: S1_12  and  O4_13
REMARK    8  A    between atoms: C8_25  and  N7_26
REMARK       I    between atoms: N7_26  and  C9_28
REMARK    9  A    between atoms: C9_28  and  C10_30
REMARK   10  A    between atoms: C10_30  and  C11_31
REMARK   11  A    between atoms: C10_30  and  N8_33
REMARK   12  A    between atoms: N8_33  and  C12_35
REMARK   13  A    between atoms: C15_38  and  C16_39
REMARK   14  A    between atoms: C17_42  and  O9_43
ROOT
HETATM    1  C6  UNL     1      55.022  20.889  19.307  1.00  0.00     0.031 A
HETATM    2  C7  UNL     1      54.015  19.962  19.423  1.00  0.00     0.048 A
HETATM    3  C8  UNL     1      53.745  19.184  18.384  1.00  0.00     0.042 A
HETATM    4  C19 UNL     1      54.478  19.339  17.242  1.00  0.00     0.079 A
HETATM    5  S2  UNL     1      55.539  20.580  17.663  1.00  0.00    -0.101 SA
ENDROOT
BRANCH   1   6
HETATM    6  C3  UNL     1      55.540  21.983  20.072  1.00  0.00     0.218 C
BRANCH   6   7
HETATM    7  C2  UNL     1      56.174  23.159  19.442  1.00  0.00     0.300 C
HETATM    8  O2  UNL     1      55.501  24.038  18.870  1.00  0.00    -0.261 OA
BRANCH   7   9
HETATM    9  O1  UNL     1      57.579  23.247  19.460  1.00  0.00    -0.324 OA
HETATM   10  C1  UNL     1      58.449  22.921  18.382  1.00  0.00     0.213 C
ENDBRANCH   7   9
ENDBRANCH   6   7
BRANCH   6  11
HETATM   11  N1  UNL     1      54.763  22.497  21.154  1.00  0.00    -0.313 N
HETATM   12  C4  UNL     1      53.603  23.174  21.357  1.00  0.00     0.329 C
HETATM   13  O3  UNL     1      52.804  23.595  20.549  1.00  0.00    -0.246 OA
HETATM   14  N2  UNL     1      53.256  23.455  22.754  1.00  0.00    -0.259 N
ATOM     15  H2  UNL     1      53.859  23.107  23.500  1.00  0.00     0.181 HD
ATOM     16  H1  UNL     1      55.217  22.295  22.045  1.00  0.00     0.166 HD
BRANCH  14  17
HETATM   17  S1  UNL     1      51.838  24.369  23.162  1.00  0.00     0.114 SA
BRANCH  17  18
HETATM   18  O4  UNL     1      51.462  25.376  22.068  1.00  0.00    -0.312 OA
ATOM     19  H4  UNL     1      51.410  26.265  22.400  1.00  0.00     0.229 HD
ENDBRANCH  17  18
ENDBRANCH  14  17
ENDBRANCH   6  11
BRANCH   6  20
HETATM   20  C5  UNL     1      56.763  21.335  20.834  1.00  0.00     0.155 A
HETATM   21  N3  UNL     1      57.479  20.303  20.463  1.00  0.00    -0.268 N
HETATM   22  N4  UNL     1      58.435  20.092  21.379  1.00  0.00    -0.005 NA
ATOM     23  H3  UNL     1      57.333  19.751  19.617  1.00  0.00     0.185 HD
HETATM   24  N5  UNL     1      58.295  21.017  22.324  1.00  0.00    -0.225 N
HETATM   25  N6  UNL     1      57.280  21.764  21.979  1.00  0.00    -0.272 N
ATOM     26  H5  UNL     1      58.871  21.124  23.159  1.00  0.00     0.205 HD
ATOM     27  H6  UNL     1      56.934  22.562  22.513  1.00  0.00     0.189 HD
ENDBRANCH   6  20
ENDBRANCH   1   6
BRANCH   3  28
HETATM   28  N7  UNL     1      52.628  18.222  18.330  1.00  0.00    -0.325 N
HETATM   29  C9  UNL     1      51.336  18.688  18.180  1.00  0.00     0.251 C
HETATM   30  O5  UNL     1      51.149  19.937  18.016  1.00  0.00    -0.270 OA
ATOM     31  H7  UNL     1      52.809  17.221  18.402  1.00  0.00     0.169 HD
BRANCH  29  32
HETATM   32  C10 UNL     1      50.069  17.865  18.200  1.00  0.00     0.236 C
BRANCH  32  33
HETATM   33  C11 UNL     1      50.048  17.093  16.901  1.00  0.00     0.266 C
HETATM   34  O6  UNL     1      50.667  17.438  15.916  1.00  0.00    -0.304 OA
ENDBRANCH  32  33
BRANCH  32  35
HETATM   35  N8  UNL     1      50.206  16.869  19.257  1.00  0.00    -0.371 N
ATOM     36  H8  UNL     1      50.952  16.195  19.090  1.00  0.00     0.161 HD
BRANCH  35  37
HETATM   37  C12 UNL     1      49.521  16.657  20.443  1.00  0.00     0.031 A
HETATM   38  C13 UNL     1      49.063  17.606  21.315  1.00  0.00     0.030 A
HETATM   39  C14 UNL     1      48.278  17.337  22.415  1.00  0.00     0.023 A
HETATM   40  C15 UNL     1      47.917  16.005  22.669  1.00  0.00     0.073 A
HETATM   41  C17 UNL     1      48.351  15.003  21.835  1.00  0.00     0.084 A
HETATM   42  C18 UNL     1      49.153  15.363  20.728  1.00  0.00     0.066 A
BRANCH  40  43
HETATM   43  C16 UNL     1      47.045  15.703  23.759  1.00  0.00     0.212 C
HETATM   44  O7  UNL     1      46.164  16.483  24.151  1.00  0.00    -0.644 OA
HETATM   45  O8  UNL     1      47.174  14.502  24.418  1.00  0.00    -0.644 OA
ENDBRANCH  40  43
BRANCH  41  46
HETATM   46  O9  UNL     1      48.067  13.670  21.997  1.00  0.00    -0.360 OA
ATOM     47  H9  UNL     1      48.661  13.030  22.372  1.00  0.00     0.217 HD
ENDBRANCH  41  46
ENDBRANCH  35  37
ENDBRANCH  32  35
ENDBRANCH  29  32
ENDBRANCH   3  28
TORSDOF 14
ENDMDL