MODEL 2
REMARK VINA RESULT: -8.485181363      2.871      5.936
REMARK  16 active torsions:
REMARK  status: ('A' for Active; 'I' for Inactive)
REMARK    1  A    between atoms: O1_2  and  C2_3
REMARK    2  A    between atoms: C4_5  and  C5_6
REMARK    3  A    between atoms: C7_10  and  C8_11
REMARK    4  A    between atoms: C8_11  and  O5_13
REMARK    5  A    between atoms: O5_13  and  C9_14
REMARK    6  A    between atoms: C9_14  and  C10_15
REMARK    7  A    between atoms: C10_15  and  O7_17
REMARK    8  A    between atoms: O7_17  and  C11_18
REMARK    9  A    between atoms: C13_20  and  C14_21
REMARK   10  A    between atoms: C16_25  and  O10_26
REMARK   11  A    between atoms: C16_25  and  C17_28
REMARK   12  A    between atoms: C18_31  and  O13_32
REMARK   13  A    between atoms: O13_32  and  C19_33
REMARK   14  A    between atoms: C19_33  and  C20_35
REMARK   15  A    between atoms: N1_37  and  O15_39
REMARK   16  A    between atoms: C22_41  and  O16_42
ROOT
HETATM    1  C11 UNL     1      56.153  21.390  14.702  1.00  0.00     0.087 C
HETATM    2  C12 UNL     1      57.435  21.004  14.781  1.00  0.00     0.024 C
HETATM    3  C13 UNL     1      58.355  21.433  15.833  1.00  0.00     0.115 C
HETATM    4  C15 UNL     1      57.744  22.075  17.029  1.00  0.00     0.071 C
HETATM    5  C16 UNL     1      56.260  21.965  17.089  1.00  0.00     0.179 C
HETATM    6  C18 UNL     1      55.615  22.316  15.741  1.00  0.00     0.234 C
ENDROOT
BRANCH   1   7
HETATM    7  O7  UNL     1      55.443  20.913  13.685  1.00  0.00    -0.279 OA
BRANCH   7   8
HETATM    8  C10 UNL     1      54.161  20.524  13.504  1.00  0.00     0.288 C
HETATM    9  O6  UNL     1      53.270  21.384  13.626  1.00  0.00    -0.262 OA
BRANCH   8  10
HETATM   10  C9  UNL     1      53.832  19.101  13.172  1.00  0.00     0.290 C
BRANCH  10  11
HETATM   11  O5  UNL     1      53.662  18.347  14.381  1.00  0.00    -0.307 OA
BRANCH  11  12
HETATM   12  C8  UNL     1      52.429  18.133  14.939  1.00  0.00     0.296 C
HETATM   13  O4  UNL     1      51.464  17.965  14.154  1.00  0.00    -0.259 OA
BRANCH  12  14
HETATM   14  C7  UNL     1      52.176  18.089  16.368  1.00  0.00     0.076 A
HETATM   15  C6  UNL     1      53.154  18.427  17.276  1.00  0.00     0.039 A
HETATM   16  C4  UNL     1      52.964  18.404  18.634  1.00  0.00     0.044 A
HETATM   17  C3  UNL     1      51.732  18.022  19.091  1.00  0.00     0.058 A
HETATM   18  C2  UNL     1      50.708  17.671  18.228  1.00  0.00     0.103 A
HETATM   19  C22 UNL     1      50.933  17.705  16.876  1.00  0.00     0.115 A
BRANCH  16  20
HETATM   20  C5  UNL     1      53.995  18.767  19.593  1.00  0.00     0.209 C
HETATM   21  O2  UNL     1      54.473  17.924  20.382  1.00  0.00    -0.644 OA
HETATM   22  O3  UNL     1      54.456  20.065  19.633  1.00  0.00    -0.644 OA
ENDBRANCH  16  20
BRANCH  18  23
HETATM   23  O1  UNL     1      49.515  17.306  18.799  1.00  0.00    -0.353 OA
HETATM   24  C1  UNL     1      49.345  16.305  19.750  1.00  0.00     0.210 C
ENDBRANCH  18  23
BRANCH  19  25
HETATM   25  O16 UNL     1      49.923  17.356  15.995  1.00  0.00    -0.357 OA
ATOM     26  H16 UNL     1      50.078  17.382  15.058  1.00  0.00     0.217 HD
ENDBRANCH  19  25
ENDBRANCH  12  14
ENDBRANCH  11  12
ENDBRANCH  10  11
ENDBRANCH   8  10
ENDBRANCH   7   8
ENDBRANCH   1   7
BRANCH   6  27
HETATM   27  O13 UNL     1      55.936  23.641  15.475  1.00  0.00    -0.301 OA
BRANCH  27  28
HETATM   28  C19 UNL     1      55.639  24.427  14.410  1.00  0.00     0.308 C
HETATM   29  O14 UNL     1      54.439  24.688  14.205  1.00  0.00    -0.258 OA
BRANCH  28  30
HETATM   30  C20 UNL     1      56.705  24.951  13.532  1.00  0.00     0.103 C
HETATM   31  C21 UNL     1      56.302  25.821  12.414  1.00  0.00     0.077 C
HETATM   32  N1  UNL     1      57.889  24.611  13.800  1.00  0.00    -0.268 N
ATOM     33  H1  UNL     1      58.003  24.000  14.609  1.00  0.00     0.194 HD
BRANCH  32  34
HETATM   34  O15 UNL     1      59.029  24.952  13.153  1.00  0.00    -0.290 OA
ATOM     35  H15 UNL     1      59.892  25.104  13.519  1.00  0.00     0.244 HD
ENDBRANCH  32  34
ENDBRANCH  28  30
ENDBRANCH  27  28
ENDBRANCH   6  27
BRANCH   3  36
HETATM   36  C14 UNL     1      59.369  22.414  15.290  1.00  0.00     0.180 C
HETATM   37  O8  UNL     1      59.994  22.165  14.227  1.00  0.00    -0.647 OA
HETATM   38  O9  UNL     1      59.561  23.568  16.011  1.00  0.00    -0.647 OA
ENDBRANCH   3  36
BRANCH   5  39
HETATM   39  O10 UNL     1      55.896  20.623  17.324  1.00  0.00    -0.376 OA
ATOM     40  H10 UNL     1      56.337  20.306  18.103  1.00  0.00     0.211 HD
ENDBRANCH   5  39
BRANCH   5  41
HETATM   41  C17 UNL     1      55.735  22.845  18.147  1.00  0.00     0.212 C
HETATM   42  O11 UNL     1      56.548  23.343  18.972  1.00  0.00    -0.646 OA
HETATM   43  O12 UNL     1      54.411  23.180  18.319  1.00  0.00    -0.646 OA
ENDBRANCH   5  41
TORSDOF 16
ENDMDL