MODEL 3
REMARK VINA RESULT: -8.130073264      1.696      4.557
REMARK  16 active torsions:
REMARK  status: ('A' for Active; 'I' for Inactive)
REMARK    1  A    between atoms: C2_2  and  O1_3
REMARK    2  A    between atoms: C2_2  and  C3_5
REMARK    3  A    between atoms: C2_2  and  C22_39
REMARK    4  A    between atoms: C3_5  and  C4_6
REMARK    5  A    between atoms: C4_6  and  O3_8
REMARK    6  A    between atoms: O3_8  and  C5_9
REMARK    7  A    between atoms: C10_14  and  C11_15
REMARK    8  A    between atoms: C11_15  and  O5_17
REMARK    9  A    between atoms: O5_17  and  C12_18
REMARK   10  A    between atoms: C17_23  and  O6_24
REMARK   11  A    between atoms: C18_27  and  C19_28
REMARK   12  A    between atoms: C18_27  and  C20_31
REMARK   13  A    between atoms: N1_35  and  O12_37
REMARK   14  A    between atoms: C22_39  and  C23_41
REMARK   15  A    between atoms: C23_41  and  C24_43
REMARK   16  A    between atoms: C24_43  and  O15_44
ROOT
HETATM    1  C11 UNL     1      59.104  22.710  18.903  1.00  0.00     0.301 C
HETATM    2  O4  UNL     1      59.957  23.630  18.773  1.00  0.00    -0.259 OA
ENDROOT
BRANCH   1   3
HETATM    3  C10 UNL     1      59.405  21.568  19.755  1.00  0.00     0.073 A
HETATM    4  C5  UNL     1      58.481  20.952  20.572  1.00  0.00     0.095 A
HETATM    5  C6  UNL     1      58.805  19.874  21.375  1.00  0.00     0.038 A
HETATM    6  C7  UNL     1      60.079  19.394  21.369  1.00  0.00     0.003 A
HETATM    7  C8  UNL     1      61.034  19.986  20.561  1.00  0.00     0.001 A
HETATM    8  C9  UNL     1      60.690  21.069  19.761  1.00  0.00     0.020 A
BRANCH   4   9
HETATM    9  O3  UNL     1      57.196  21.472  20.546  1.00  0.00    -0.278 OA
BRANCH   9  10
HETATM   10  C4  UNL     1      56.874  22.480  21.439  1.00  0.00     0.267 C
HETATM   11  O2  UNL     1      57.474  22.445  22.541  1.00  0.00    -0.265 OA
BRANCH  10  12
HETATM   12  C3  UNL     1      55.875  23.539  21.107  1.00  0.00     0.157 C
BRANCH  12  13
HETATM   13  C2  UNL     1      54.480  22.954  21.181  1.00  0.00     0.131 C
HETATM   14  C1  UNL     1      54.232  22.683  22.670  1.00  0.00     0.055 C
BRANCH  13  15
HETATM   15  O1  UNL     1      54.361  21.795  20.439  1.00  0.00    -0.381 OA
ATOM     16  H1  UNL     1      53.449  21.578  20.287  1.00  0.00     0.211 HD
ENDBRANCH  13  15
BRANCH  13  17
HETATM   17  C22 UNL     1      53.457  23.922  20.731  1.00  0.00     0.231 C
HETATM   18  O13 UNL     1      52.440  24.125  21.478  1.00  0.00    -0.286 OA
BRANCH  17  19
HETATM   19  C23 UNL     1      53.615  24.619  19.473  1.00  0.00     0.221 C
HETATM   20  O14 UNL     1      53.976  24.003  18.451  1.00  0.00    -0.287 OA
BRANCH  19  21
HETATM   21  C24 UNL     1      53.364  26.077  19.323  1.00  0.00     0.251 C
BRANCH  21  22
HETATM   22  O15 UNL     1      54.336  26.704  18.569  1.00  0.00    -0.393 OA
ATOM     23  H15 UNL     1      54.353  26.395  17.672  1.00  0.00     0.210 HD
ENDBRANCH  21  22
ENDBRANCH  19  21
ENDBRANCH  17  19
ENDBRANCH  13  17
ENDBRANCH  12  13
ENDBRANCH  10  12
ENDBRANCH   9  10
ENDBRANCH   4   9
ENDBRANCH   1   3
BRANCH   1  24
HETATM   24  O5  UNL     1      57.934  22.889  18.200  1.00  0.00    -0.272 OA
BRANCH  24  25
HETATM   25  C12 UNL     1      57.646  22.251  16.992  1.00  0.00     0.115 A
HETATM   26  C13 UNL     1      58.507  22.171  15.946  1.00  0.00     0.041 A
HETATM   27  C14 UNL     1      58.083  21.501  14.798  1.00  0.00     0.019 A
HETATM   28  C15 UNL     1      56.847  20.930  14.692  1.00  0.00     0.029 A
HETATM   29  C16 UNL     1      55.961  21.006  15.752  1.00  0.00     0.120 A
HETATM   30  C21 UNL     1      56.140  20.185  13.644  1.00  0.00     0.102 C
HETATM   31  C17 UNL     1      56.383  21.678  16.904  1.00  0.00     0.134 A
HETATM   32  O7  UNL     1      54.779  20.359  15.409  1.00  0.00    -0.309 OA
HETATM   33  C18 UNL     1      54.692  20.255  13.981  1.00  0.00     0.288 C
HETATM   34  N1  UNL     1      56.660  19.597  12.647  1.00  0.00    -0.268 N
ATOM     35  H1  UNL     1      56.062  19.107  11.982  1.00  0.00     0.194 HD
BRANCH  31  36
HETATM   36  O6  UNL     1      55.499  21.761  17.981  1.00  0.00    -0.356 OA
ATOM     37  H6  UNL     1      55.252  20.977  18.457  1.00  0.00     0.218 HD
ENDBRANCH  31  36
BRANCH  33  38
HETATM   38  C19 UNL     1      54.133  21.513  13.472  1.00  0.00     0.228 C
HETATM   39  O8  UNL     1      52.898  21.788  13.587  1.00  0.00    -0.645 OA
HETATM   40  O9  UNL     1      54.940  22.434  12.852  1.00  0.00    -0.645 OA
ENDBRANCH  33  38
BRANCH  33  41
HETATM   41  C20 UNL     1      53.938  19.063  13.575  1.00  0.00     0.228 C
HETATM   42  O10 UNL     1      53.579  18.949  12.372  1.00  0.00    -0.645 OA
HETATM   43  O11 UNL     1      53.588  18.044  14.430  1.00  0.00    -0.645 OA
ENDBRANCH  33  41
BRANCH  34  44
HETATM   44  O12 UNL     1      58.000  19.612  12.458  1.00  0.00    -0.290 OA
ATOM     45  H12 UNL     1      58.594  19.532  13.196  1.00  0.00     0.244 HD
ENDBRANCH  34  44
ENDBRANCH  24  25
ENDBRANCH   1  24
TORSDOF 16
ENDMDL