MODEL 2
REMARK VINA RESULT: -7.897931881      2.133      3.165
REMARK  15 active torsions:
REMARK  status: ('A' for Active; 'I' for Inactive)
REMARK    1  A    between atoms: O1_2  and  C2_3
REMARK    2  A    between atoms: C2_3  and  O2_4
REMARK    3  A    between atoms: C2_3  and  C3_6
REMARK    4  A    between atoms: C4_8  and  C5_9
REMARK    5  A    between atoms: C5_9  and  O3_10
REMARK    6  A    between atoms: C5_9  and  N1_12
REMARK    7  A    between atoms: N1_12  and  C6_14
REMARK    8  A    between atoms: C6_14  and  N2_15
REMARK    9  A    between atoms: C6_14  and  C14_33
REMARK       I    between atoms: N2_15  and  C7_17
REMARK   10  A    between atoms: C7_17  and  C8_19
REMARK   11  A    between atoms: C11_24  and  N3_25
REMARK   12  A    between atoms: C12_28  and  O9_29
REMARK   13  A    between atoms: C14_33  and  O11_34
REMARK   14  A    between atoms: C14_33  and  C15_36
REMARK   15  A    between atoms: C17_40  and  N4_41
REMARK       I    between atoms: N4_41  and  C18_43
ROOT
HETATM    1  C6  UNL     1      57.418  22.506  18.553  1.00  0.00     0.222 C
ENDROOT
BRANCH   1   2
HETATM    2  N1  UNL     1      57.231  21.304  17.815  1.00  0.00    -0.369 N
ATOM      3  H1  UNL     1      57.001  20.428  18.284  1.00  0.00     0.158 HD
BRANCH   2   4
HETATM    4  C5  UNL     1      57.374  21.366  16.407  1.00  0.00     0.256 C
BRANCH   4   5
HETATM    5  C4  UNL     1      56.143  20.694  15.824  1.00  0.00     0.033 A
HETATM    6  S1  UNL     1      55.715  20.445  14.211  1.00  0.00    -0.083 SA
HETATM    7  C3  UNL     1      54.204  19.633  14.438  1.00  0.00     0.090 A
HETATM    8  C17 UNL     1      54.084  19.584  15.802  1.00  0.00     0.058 A
HETATM    9  C16 UNL     1      55.101  20.140  16.516  1.00  0.00     0.050 A
BRANCH   7  10
HETATM   10  C2  UNL     1      53.338  19.154  13.368  1.00  0.00     0.197 C
BRANCH  10  11
HETATM   11  O1  UNL     1      53.483  19.485  12.056  1.00  0.00    -0.335 OA
HETATM   12  C1  UNL     1      52.487  19.098  11.121  1.00  0.00     0.212 C
ENDBRANCH  10  11
BRANCH  10  13
HETATM   13  O2  UNL     1      52.374  18.358  13.728  1.00  0.00    -0.340 OA
ATOM     14  H2  UNL     1      52.549  17.660  14.349  1.00  0.00     0.220 HD
ENDBRANCH  10  13
ENDBRANCH   7  10
BRANCH   8  15
HETATM   15  N4  UNL     1      52.927  18.965  16.432  1.00  0.00    -0.326 N
HETATM   16  C18 UNL     1      52.910  17.864  17.281  1.00  0.00     0.218 C
HETATM   17  C19 UNL     1      51.589  17.394  17.818  1.00  0.00     0.117 C
HETATM   18  O14 UNL     1      53.906  17.232  17.636  1.00  0.00    -0.274 OA
ATOM     19  H4  UNL     1      52.023  19.388  16.226  1.00  0.00     0.169 HD
ENDBRANCH   8  15
ENDBRANCH   4   5
BRANCH   4  20
HETATM   20  O3  UNL     1      58.483  20.709  15.887  1.00  0.00    -0.372 OA
ATOM     21  H3  UNL     1      58.907  20.262  16.610  1.00  0.00     0.212 HD
ENDBRANCH   4  20
ENDBRANCH   2   4
ENDBRANCH   1   2
BRANCH   1  22
HETATM   22  N2  UNL     1      56.302  22.911  19.370  1.00  0.00    -0.333 N
HETATM   23  C7  UNL     1      55.096  23.442  18.834  1.00  0.00     0.259 C
HETATM   24  O4  UNL     1      55.034  23.549  17.574  1.00  0.00    -0.267 OA
ATOM     25  H2  UNL     1      56.381  22.812  20.382  1.00  0.00     0.165 HD
BRANCH  23  26
HETATM   26  C8  UNL     1      53.982  23.849  19.629  1.00  0.00     0.107 C
HETATM   27  C9  UNL     1      53.209  24.911  19.197  1.00  0.00     0.167 C
HETATM   28  O5  UNL     1      52.091  25.381  19.682  1.00  0.00    -0.285 OA
HETATM   29  C10 UNL     1      51.566  25.227  20.862  1.00  0.00     0.324 C
HETATM   30  O6  UNL     1      50.448  25.778  21.063  1.00  0.00    -0.257 OA
HETATM   31  C11 UNL     1      52.065  24.536  21.955  1.00  0.00     0.215 C
HETATM   32  C12 UNL     1      52.983  23.501  21.889  1.00  0.00     0.157 C
HETATM   33  C13 UNL     1      53.764  23.126  20.795  1.00  0.00     0.225 C
HETATM   34  O10 UNL     1      54.342  22.007  20.867  1.00  0.00    -0.284 OA
BRANCH  31  35
HETATM   35  N3  UNL     1      51.603  24.914  23.237  1.00  0.00    -0.106 N
HETATM   36  O7  UNL     1      52.183  25.822  23.848  1.00  0.00    -0.531 OA
HETATM   37  O8  UNL     1      50.531  24.302  23.815  1.00  0.00    -0.531 OA
ENDBRANCH  31  35
BRANCH  32  38
HETATM   38  O9  UNL     1      53.138  22.762  23.035  1.00  0.00    -0.355 OA
ATOM     39  H9  UNL     1      53.867  22.154  23.041  1.00  0.00     0.218 HD
ENDBRANCH  32  38
ENDBRANCH  23  26
ENDBRANCH   1  22
BRANCH   1  40
HETATM   40  C14 UNL     1      58.728  22.540  19.315  1.00  0.00     0.260 C
BRANCH  40  41
HETATM   41  O11 UNL     1      59.084  23.845  19.650  1.00  0.00    -0.381 OA
ATOM     42  H11 UNL     1      59.858  24.123  19.176  1.00  0.00     0.210 HD
ENDBRANCH  40  41
BRANCH  40  43
HETATM   43  C15 UNL     1      58.678  21.738  20.548  1.00  0.00     0.206 C
HETATM   44  O12 UNL     1      57.924  20.748  20.640  1.00  0.00    -0.646 OA
HETATM   45  O13 UNL     1      59.468  22.067  21.628  1.00  0.00    -0.646 OA
ENDBRANCH  40  43
ENDBRANCH   1  40
TORSDOF 15
ENDMDL