MODEL 2
REMARK VINA RESULT: -8.236662323      2.092      3.001
REMARK  12 active torsions:
REMARK  status: ('A' for Active; 'I' for Inactive)
REMARK    1  A    between atoms: S1_2  and  C2_3
REMARK    2  A    between atoms: C2_3  and  C3_4
REMARK    3  A    between atoms: C2_3  and  C16_41
REMARK       I    between atoms: C3_4  and  N1_6
REMARK    4  A    between atoms: N1_6  and  C4_8
REMARK    5  A    between atoms: C6_11  and  C7_12
REMARK    6  A    between atoms: C7_12  and  C8_13
REMARK    7  A    between atoms: C8_13  and  C9_18
REMARK    8  A    between atoms: N2_14  and  O2_16
REMARK       I    between atoms: C9_18  and  N3_20
REMARK    9  A    between atoms: N3_20  and  C10_22
REMARK   10  A    between atoms: C10_22  and  C11_23
REMARK   11  A    between atoms: N7_32  and  N8_33
REMARK       I    between atoms: N8_33  and  C13_35
REMARK   12  A    between atoms: C15_38  and  O5_39
ROOT
HETATM    1  C8  UNL     1      54.795  21.160  13.852  1.00  0.00     0.104 C
HETATM    2  N2  UNL     1      53.914  22.038  13.921  1.00  0.00    -0.268 N
ATOM      3  H2  UNL     1      53.001  21.639  14.137  1.00  0.00     0.194 HD
ENDROOT
BRANCH   1   4
HETATM    4  C7  UNL     1      56.196  21.377  13.566  1.00  0.00     0.114 C
BRANCH   4   5
HETATM    5  C6  UNL     1      57.030  21.262  14.805  1.00  0.00     0.024 A
HETATM    6  S2  UNL     1      58.654  20.800  14.948  1.00  0.00    -0.101 SA
HETATM    7  C5  UNL     1      58.824  20.916  16.643  1.00  0.00     0.082 A
HETATM    8  C4  UNL     1      57.590  21.318  17.065  1.00  0.00     0.075 A
HETATM    9  C15 UNL     1      56.650  21.500  16.095  1.00  0.00     0.106 A
BRANCH   8  10
HETATM   10  N1  UNL     1      57.266  21.552  18.464  1.00  0.00    -0.323 N
HETATM   11  C3  UNL     1      57.690  22.639  19.223  1.00  0.00     0.240 C
HETATM   12  O1  UNL     1      58.408  23.547  18.781  1.00  0.00    -0.272 OA
ATOM     13  H1  UNL     1      56.678  20.860  18.929  1.00  0.00     0.169 HD
BRANCH  11  14
HETATM   14  C2  UNL     1      57.293  22.779  20.662  1.00  0.00     0.173 C
BRANCH  14  15
HETATM   15  S1  UNL     1      57.629  21.274  21.581  1.00  0.00    -0.154 SA
HETATM   16  C1  UNL     1      59.117  21.329  22.572  1.00  0.00     0.091 C
ENDBRANCH  14  15
BRANCH  14  17
HETATM   17  C16 UNL     1      55.882  23.216  20.736  1.00  0.00    -0.019 A
HETATM   18  C17 UNL     1      55.086  22.803  21.785  1.00  0.00     0.015 A
HETATM   19  C18 UNL     1      53.751  23.205  21.876  1.00  0.00     0.075 A
HETATM   20  C19 UNL     1      53.265  24.016  20.894  1.00  0.00     0.246 A
HETATM   21  O6  UNL     1      52.076  24.384  20.959  1.00  0.00    -0.268 OA
HETATM   22  N9  UNL     1      54.027  24.435  19.854  1.00  0.00    -0.328 N
HETATM   23  C20 UNL     1      53.419  25.296  18.861  1.00  0.00     0.159 C
HETATM   24  C21 UNL     1      55.312  24.037  19.783  1.00  0.00     0.102 A
ENDBRANCH  14  17
ENDBRANCH  11  14
ENDBRANCH   8  10
BRANCH   9  25
HETATM   25  O5  UNL     1      55.309  21.920  16.371  1.00  0.00    -0.357 OA
ATOM     26  H5  UNL     1      54.611  21.317  16.600  1.00  0.00     0.217 HD
ENDBRANCH   9  25
ENDBRANCH   4   5
ENDBRANCH   1   4
BRANCH   1  27
HETATM   27  C9  UNL     1      54.360  19.757  14.045  1.00  0.00     0.266 C
HETATM   28  O3  UNL     1      54.806  18.907  13.245  1.00  0.00    -0.266 OA
HETATM   29  N3  UNL     1      53.479  19.461  15.105  1.00  0.00    -0.349 N
ATOM     30  H3  UNL     1      53.152  20.199  15.730  1.00  0.00     0.163 HD
BRANCH  29  31
HETATM   31  C10 UNL     1      53.035  18.061  15.297  1.00  0.00     0.203 C
BRANCH  31  32
HETATM   32  C11 UNL     1      51.902  18.019  16.247  1.00  0.00     0.154 A
HETATM   33  N4  UNL     1      50.618  17.872  15.804  1.00  0.00    -0.271 N
HETATM   34  N5  UNL     1      49.827  17.840  16.819  1.00  0.00    -0.129 N
ATOM     35  H4  UNL     1      50.332  17.798  14.828  1.00  0.00     0.189 HD
HETATM   36  C12 UNL     1      50.538  17.961  17.932  1.00  0.00     0.713 A
ATOM     37  H5  UNL     1      48.813  17.738  16.775  1.00  0.00     0.205 HD
HETATM   38  N6  UNL     1      50.133  17.977  19.150  1.00  0.00    -0.232 N
HETATM   39  N7  UNL     1      51.879  18.078  17.567  1.00  0.00    -0.067 N
ATOM     40  H62 UNL     1      49.152  17.891  19.417  1.00  0.00     0.174 HD
ATOM     41  H61 UNL     1      50.681  18.069  20.006  1.00  0.00     0.174 HD
BRANCH  39  42
HETATM   42  N8  UNL     1      52.881  18.259  18.498  1.00  0.00    -0.248 N
HETATM   43  C13 UNL     1      53.819  19.225  18.721  1.00  0.00     0.233 C
HETATM   44  C14 UNL     1      54.773  18.982  19.929  1.00  0.00     0.119 C
HETATM   45  O4  UNL     1      54.075  20.290  18.141  1.00  0.00    -0.272 OA
ATOM     46  H8  UNL     1      52.931  17.497  19.175  1.00  0.00     0.191 HD
ENDBRANCH  39  42
ENDBRANCH  31  32
ENDBRANCH  29  31
ENDBRANCH   1  27
BRANCH   2  47
HETATM   47  O2  UNL     1      53.851  23.351  13.787  1.00  0.00    -0.290 OA
ATOM     48  H2  UNL     1      53.535  24.086  14.299  1.00  0.00     0.244 HD
ENDBRANCH   2  47
TORSDOF 12
ENDMDL