MODEL 5
REMARK VINA RESULT: -7.326779999      5.457      8.262
REMARK  15 active torsions:
REMARK  status: ('A' for Active; 'I' for Inactive)
REMARK    1  A    between atoms: C2_2  and  N1_3
REMARK    2  A    between atoms: C2_2  and  C14_35
REMARK    3  A    between atoms: N1_3  and  C3_5
REMARK    4  A    between atoms: C5_7  and  O1_8
REMARK    5  A    between atoms: C7_11  and  C8_12
REMARK    6  A    between atoms: C8_12  and  O2_13
REMARK    7  A    between atoms: O2_13  and  C9_14
REMARK       I    between atoms: C9_14  and  N2_16
REMARK    8  A    between atoms: N2_16  and  C10_18
REMARK    9  A    between atoms: C10_18  and  C12_23
REMARK   10  A    between atoms: C12_23  and  N5_24
REMARK   11  A    between atoms: C12_23  and  N6_28
REMARK   12  A    between atoms: C13_32  and  O4_33
REMARK       I    between atoms: C14_35  and  N7_37
REMARK   13  A    between atoms: N7_37  and  S1_39
REMARK   14  A    between atoms: S1_39  and  C15_42
REMARK   15  A    between atoms: C17_44  and  N8_45
ROOT
HETATM    1  C10 UNL     1      48.232  15.281  24.249  1.00  0.00     0.153 C
HETATM    2  N3  UNL     1      47.454  15.834  25.148  1.00  0.00    -0.279 N
ATOM      3  H3  UNL     1      46.991  15.231  25.827  1.00  0.00     0.179 HD
HETATM    4  C11 UNL     1      47.231  17.207  25.217  1.00  0.00     0.183 C
HETATM    5  N4  UNL     1      47.041  18.351  25.294  1.00  0.00    -0.172 NA
ENDROOT
BRANCH   1   6
HETATM    6  N2  UNL     1      48.862  16.118  23.324  1.00  0.00    -0.288 N
HETATM    7  C9  UNL     1      48.226  16.702  22.227  1.00  0.00     0.366 C
HETATM    8  O3  UNL     1      47.025  16.538  21.955  1.00  0.00    -0.238 OA
ATOM      9  H2  UNL     1      49.853  16.316  23.460  1.00  0.00     0.172 HD
BRANCH   7  10
HETATM   10  O2  UNL     1      48.981  17.532  21.370  1.00  0.00    -0.299 OA
BRANCH  10  11
HETATM   11  C8  UNL     1      50.322  17.270  21.134  1.00  0.00     0.222 C
BRANCH  11  12
HETATM   12  C7  UNL     1      50.713  17.489  19.720  1.00  0.00     0.004 A
HETATM   13  C6  UNL     1      49.873  17.325  18.645  1.00  0.00     0.048 A
HETATM   14  C5  UNL     1      50.329  17.506  17.339  1.00  0.00     0.068 A
HETATM   15  C4  UNL     1      51.645  17.858  17.085  1.00  0.00     0.068 A
HETATM   16  C3  UNL     1      52.513  18.029  18.135  1.00  0.00     0.065 A
HETATM   17  C13 UNL     1      52.038  17.845  19.432  1.00  0.00     0.100 A
BRANCH  14  18
HETATM   18  O1  UNL     1      49.447  17.330  16.303  1.00  0.00    -0.361 OA
ATOM     19  H1  UNL     1      48.994  16.502  16.194  1.00  0.00     0.217 HD
ENDBRANCH  14  18
BRANCH  16  20
HETATM   20  N1  UNL     1      53.871  18.417  17.955  1.00  0.00    -0.375 N
ATOM     21  H1  UNL     1      54.618  17.735  18.087  1.00  0.00     0.160 HD
BRANCH  20  22
HETATM   22  C2  UNL     1      54.190  19.764  17.590  1.00  0.00     0.171 C
HETATM   23  C1  UNL     1      55.260  19.865  16.547  1.00  0.00     0.042 C
BRANCH  22  24
HETATM   24  C14 UNL     1      54.562  20.601  18.768  1.00  0.00     0.253 C
HETATM   25  O5  UNL     1      54.337  20.263  19.952  1.00  0.00    -0.270 OA
HETATM   26  N7  UNL     1      55.210  21.855  18.548  1.00  0.00    -0.248 N
ATOM     27  H7  UNL     1      55.397  22.138  17.586  1.00  0.00     0.182 HD
BRANCH  26  28
HETATM   28  S1  UNL     1      55.690  22.914  19.814  1.00  0.00     0.271 S
HETATM   29  O6  UNL     1      56.727  23.901  19.334  1.00  0.00    -0.200 OA
HETATM   30  O7  UNL     1      56.248  22.110  20.951  1.00  0.00    -0.200 OA
BRANCH  28  31
HETATM   31  C15 UNL     1      54.232  23.771  20.350  1.00  0.00     0.122 A
HETATM   32  C16 UNL     1      53.584  23.636  21.547  1.00  0.00     0.069 A
HETATM   33  C17 UNL     1      52.492  24.390  21.748  1.00  0.00     0.111 A
HETATM   34  C18 UNL     1      52.123  25.231  20.730  1.00  0.00     0.087 A
HETATM   35  S2  UNL     1      53.305  24.944  19.537  1.00  0.00    -0.086 SA
BRANCH  33  36
HETATM   36  N8  UNL     1      51.706  24.350  22.969  1.00  0.00    -0.115 N
HETATM   37  O8  UNL     1      51.677  23.338  23.693  1.00  0.00    -0.532 OA
HETATM   38  O9  UNL     1      50.961  25.417  23.384  1.00  0.00    -0.532 OA
ENDBRANCH  33  36
ENDBRANCH  28  31
ENDBRANCH  26  28
ENDBRANCH  22  24
ENDBRANCH  20  22
ENDBRANCH  16  20
BRANCH  17  39
HETATM   39  O4  UNL     1      52.931  18.023  20.452  1.00  0.00    -0.358 OA
ATOM     40  H4  UNL     1      53.465  17.276  20.694  1.00  0.00     0.217 HD
ENDBRANCH  17  39
ENDBRANCH  11  12
ENDBRANCH  10  11
ENDBRANCH   7  10
ENDBRANCH   1   6
BRANCH   1  41
HETATM   41  C12 UNL     1      48.386  13.824  24.315  1.00  0.00     0.445 C
BRANCH  41  42
HETATM   42  N5  UNL     1      49.493  13.504  25.230  1.00  0.00    -0.043 N
ATOM     43  H53 UNL     1      49.966  14.340  25.576  1.00  0.00     0.277 HD
ATOM     44  H52 UNL     1      49.166  13.145  26.127  1.00  0.00     0.277 HD
ATOM     45  H51 UNL     1      50.131  12.861  24.762  1.00  0.00     0.277 HD
ENDBRANCH  41  42
BRANCH  41  46
HETATM   46  N6  UNL     1      48.707  13.247  22.996  1.00  0.00    -0.043 N
ATOM     47  H63 UNL     1      48.256  13.767  22.243  1.00  0.00     0.277 HD
ATOM     48  H62 UNL     1      49.681  13.415  22.745  1.00  0.00     0.277 HD
ATOM     49  H61 UNL     1      48.478  12.255  22.951  1.00  0.00     0.277 HD
ENDBRANCH  41  46
ENDBRANCH   1  41
TORSDOF 15
ENDMDL