MODEL 1
REMARK VINA RESULT: -8.395089565      0.000      0.000
REMARK  14 active torsions:
REMARK  status: ('A' for Active; 'I' for Inactive)
REMARK    1  A    between atoms: O1_2  and  C2_3
REMARK    2  A    between atoms: C5_6  and  O2_7
REMARK    3  A    between atoms: C8_10  and  O3_11
REMARK    4  A    between atoms: C10_14  and  O4_15
REMARK    5  A    between atoms: C11_17  and  C12_18
REMARK    6  A    between atoms: C13_23  and  N2_24
REMARK    7  A    between atoms: N2_24  and  N3_26
REMARK       I    between atoms: N4_28  and  C14_30
REMARK    8  A    between atoms: C14_30  and  C15_32
REMARK    9  A    between atoms: C15_32  and  C16_33
REMARK   10  A    between atoms: C15_32  and  C17_41
REMARK   11  A    between atoms: C16_33  and  O8_34
REMARK   12  A    between atoms: O8_34  and  S1_35
REMARK   13  A    between atoms: S1_35  and  N5_36
REMARK   14  A    between atoms: C19_45  and  O13_46
ROOT
HETATM    1  C2  UNL     1      55.741  20.251  14.670  1.00  0.00     0.082 A
HETATM    2  C3  UNL     1      55.774  20.313  13.269  1.00  0.00     0.040 A
HETATM    3  C4  UNL     1      54.730  19.798  12.514  1.00  0.00     0.040 A
HETATM    4  C5  UNL     1      53.645  19.218  13.128  1.00  0.00     0.082 A
HETATM    5  C7  UNL     1      53.605  19.155  14.502  1.00  0.00     0.047 A
HETATM    6  C8  UNL     1      52.475  18.557  15.115  1.00  0.00     0.093 A
HETATM    7  C9  UNL     1      52.422  18.491  16.486  1.00  0.00     0.051 A
HETATM    8  C10 UNL     1      51.291  17.894  17.109  1.00  0.00     0.113 A
HETATM    9  C11 UNL     1      51.202  17.812  18.469  1.00  0.00     0.145 A
HETATM   10  N1  UNL     1      52.231  18.322  19.160  1.00  0.00    -0.333 N
ATOM     11  H1  UNL     1      52.185  18.271  20.178  1.00  0.00     0.168 HD
HETATM   12  C13 UNL     1      53.346  18.910  18.604  1.00  0.00     0.136 A
HETATM   13  C18 UNL     1      53.451  19.000  17.237  1.00  0.00     0.059 A
HETATM   14  C19 UNL     1      54.579  19.595  16.638  1.00  0.00     0.094 A
HETATM   15  C20 UNL     1      54.636  19.663  15.239  1.00  0.00     0.047 A
ENDROOT
BRANCH  12  16
HETATM   16  N2  UNL     1      54.338  19.380  19.469  1.00  0.00    -0.270 N
ATOM     17  H2  UNL     1      55.085  18.776  19.814  1.00  0.00     0.190 HD
BRANCH  16  18
HETATM   18  N3  UNL     1      54.243  20.765  19.846  1.00  0.00    -0.239 N
HETATM   19  N4  UNL     1      55.273  21.222  20.430  1.00  0.00    -0.255 N
HETATM   20  C14 UNL     1      55.222  22.605  20.826  1.00  0.00     0.253 C
ATOM     21  H4  UNL     1      56.092  20.642  20.609  1.00  0.00     0.191 HD
HETATM   22  O7  UNL     1      54.940  22.796  22.048  1.00  0.00    -0.271 OA
ATOM     23  H3  UNL     1      53.416  21.333  19.660  1.00  0.00     0.208 HD
BRANCH  20  24
HETATM   24  C15 UNL     1      55.478  23.718  19.885  1.00  0.00     0.205 C
BRANCH  24  25
HETATM   25  C16 UNL     1      54.251  24.061  19.067  1.00  0.00     0.217 C
BRANCH  25  26
HETATM   26  O8  UNL     1      53.146  23.562  19.735  1.00  0.00    -0.258 OA
BRANCH  26  27
HETATM   27  S1  UNL     1      52.303  24.761  20.549  1.00  0.00     0.355 S
HETATM   28  O9  UNL     1      53.112  26.025  20.439  1.00  0.00    -0.176 OA
HETATM   29  O10 UNL     1      50.914  24.947  20.028  1.00  0.00    -0.176 OA
BRANCH  27  30
HETATM   30  N5  UNL     1      52.268  24.338  22.231  1.00  0.00    -0.306 N
ATOM     31  H52 UNL     1      53.034  24.478  22.890  1.00  0.00     0.171 HD
ATOM     32  H51 UNL     1      51.355  23.931  22.432  1.00  0.00     0.171 HD
ENDBRANCH  27  30
ENDBRANCH  26  27
ENDBRANCH  25  26
ENDBRANCH  24  25
BRANCH  24  33
HETATM   33  C17 UNL     1      56.616  23.310  19.015  1.00  0.00     0.188 C
HETATM   34  O11 UNL     1      56.350  22.635  17.984  1.00  0.00    -0.647 OA
HETATM   35  O12 UNL     1      57.904  23.669  19.348  1.00  0.00    -0.647 OA
ENDBRANCH  24  33
ENDBRANCH  20  24
ENDBRANCH  16  18
ENDBRANCH  12  16
BRANCH   9  36
HETATM   36  C12 UNL     1      50.095  17.219  19.208  1.00  0.00     0.229 C
HETATM   37  O5  UNL     1      49.545  16.142  18.786  1.00  0.00    -0.643 OA
HETATM   38  O6  UNL     1      49.578  17.731  20.351  1.00  0.00    -0.643 OA
ENDBRANCH   9  36
BRANCH  14  39
HETATM   39  O13 UNL     1      55.583  20.086  17.344  1.00  0.00    -0.359 OA
ATOM     40  H13 UNL     1      56.317  20.538  16.943  1.00  0.00     0.217 HD
ENDBRANCH  14  39
BRANCH   8  41
HETATM   41  O4  UNL     1      50.323  17.415  16.288  1.00  0.00    -0.357 OA
ATOM     42  H4  UNL     1      49.909  16.599  16.545  1.00  0.00     0.217 HD
ENDBRANCH   8  41
BRANCH   6  43
HETATM   43  O3  UNL     1      51.522  18.090  14.322  1.00  0.00    -0.359 OA
ATOM     44  H3  UNL     1      50.774  17.671  14.732  1.00  0.00     0.217 HD
ENDBRANCH   6  43
BRANCH   1  45
HETATM   45  O1  UNL     1      56.807  20.780  15.351  1.00  0.00    -0.355 OA
HETATM   46  C1  UNL     1      58.035  20.973  14.691  1.00  0.00     0.210 C
ENDBRANCH   1  45
BRANCH   4  47
HETATM   47  O2  UNL     1      52.611  18.709  12.381  1.00  0.00    -0.355 OA
HETATM   48  C6  UNL     1      52.501  19.050  11.017  1.00  0.00     0.210 C
ENDBRANCH   4  47
TORSDOF 14
ENDMDL