MODEL 3
REMARK VINA RESULT: -7.905134116      2.828      4.502
REMARK  15 active torsions:
REMARK  status: ('A' for Active; 'I' for Inactive)
REMARK    1  A    between atoms: O1_2  and  C2_3
REMARK    2  A    between atoms: C2_3  and  C3_5
REMARK    3  A    between atoms: C3_5  and  N1_6
REMARK    4  A    between atoms: C3_5  and  C17_43
REMARK       I    between atoms: N1_6  and  C4_8
REMARK    5  A    between atoms: C4_8  and  C5_10
REMARK    6  A    between atoms: C8_13  and  N2_14
REMARK    7  A    between atoms: N2_14  and  S1_16
REMARK    8  A    between atoms: S1_16  and  N3_18
REMARK    9  A    between atoms: S1_16  and  S2_22
REMARK   10  A    between atoms: N3_18  and  O5_20
REMARK   11  A    between atoms: S2_22  and  C9_23
REMARK   12  A    between atoms: C9_23  and  C10_24
REMARK       I    between atoms: C10_24  and  N4_26
REMARK   13  A    between atoms: C11_27  and  N5_28
REMARK   14  A    between atoms: C12_34  and  N7_35
REMARK   15  A    between atoms: C13_38  and  C14_39
ROOT
HETATM    1  N2  UNL     1      52.195  17.360  17.465  1.00  0.00    -0.290 N
ATOM      2  H2  UNL     1      52.470  16.486  17.018  1.00  0.00     0.178 HD
ENDROOT
BRANCH   1   3
HETATM    3  C8  UNL     1      53.226  18.249  17.823  1.00  0.00     0.055 A
HETATM    4  C7  UNL     1      53.477  18.378  19.179  1.00  0.00     0.032 A
HETATM    5  C6  UNL     1      54.462  19.268  19.624  1.00  0.00     0.019 A
HETATM    6  C5  UNL     1      55.194  20.021  18.751  1.00  0.00     0.033 A
HETATM    7  C16 UNL     1      54.916  19.863  17.412  1.00  0.00     0.034 A
HETATM    8  C13 UNL     1      53.946  18.990  16.929  1.00  0.00     0.037 A
BRANCH   6   9
HETATM    9  C4  UNL     1      56.207  20.977  19.177  1.00  0.00     0.252 C
HETATM   10  N1  UNL     1      56.844  20.821  20.413  1.00  0.00    -0.334 N
ATOM     11  H1  UNL     1      56.574  20.026  20.992  1.00  0.00     0.164 HD
HETATM   12  O3  UNL     1      56.496  21.928  18.430  1.00  0.00    -0.268 OA
BRANCH  10  13
HETATM   13  C3  UNL     1      57.864  21.716  20.927  1.00  0.00     0.286 C
BRANCH  13  14
HETATM   14  C2  UNL     1      59.067  20.938  21.299  1.00  0.00     0.292 C
HETATM   15  O2  UNL     1      58.937  19.841  21.890  1.00  0.00    -0.262 OA
BRANCH  14  16
HETATM   16  O1  UNL     1      60.368  21.370  21.020  1.00  0.00    -0.324 OA
HETATM   17  C1  UNL     1      60.582  22.377  20.065  1.00  0.00     0.213 C
ENDBRANCH  14  16
ENDBRANCH  13  14
BRANCH  13  18
HETATM   18  C17 UNL     1      57.378  22.536  22.048  1.00  0.00     0.206 C
HETATM   19  O8  UNL     1      56.164  22.854  22.148  1.00  0.00    -0.646 OA
HETATM   20  O9  UNL     1      58.232  22.993  23.040  1.00  0.00    -0.646 OA
ENDBRANCH  13  18
ENDBRANCH  10  13
ENDBRANCH   6   9
BRANCH   8  21
HETATM   21  C14 UNL     1      53.783  18.850  15.498  1.00  0.00     0.158 C
HETATM   22  C15 UNL     1      54.063  19.970  14.593  1.00  0.00     0.097 C
HETATM   23  O7  UNL     1      53.397  17.764  15.012  1.00  0.00    -0.293 OA
ENDBRANCH   8  21
ENDBRANCH   1   3
BRANCH   1  24
HETATM   24  S1  UNL     1      50.552  17.608  17.707  1.00  0.00     0.187 S
HETATM   25  O4  UNL     1      50.179  18.854  18.406  1.00  0.00    -0.215 OA
BRANCH  24  26
HETATM   26  N3  UNL     1      49.870  17.709  16.297  1.00  0.00    -0.202 N
ATOM     27  H3  UNL     1      48.875  17.513  16.190  1.00  0.00     0.206 HD
BRANCH  26  28
HETATM   28  O5  UNL     1      50.625  18.061  15.217  1.00  0.00    -0.281 OA
ATOM     29  H5  UNL     1      50.355  17.779  14.351  1.00  0.00     0.245 HD
ENDBRANCH  26  28
ENDBRANCH  24  26
BRANCH  24  30
HETATM   30  S2  UNL     1      49.868  16.234  19.015  1.00  0.00    -0.026 SA
BRANCH  30  31
HETATM   31  C9  UNL     1      49.166  16.758  20.507  1.00  0.00     0.194 C
BRANCH  31  32
HETATM   32  C10 UNL     1      48.788  15.652  21.383  1.00  0.00     0.243 C
HETATM   33  O6  UNL     1      49.045  14.488  20.985  1.00  0.00    -0.272 OA
HETATM   34  N4  UNL     1      48.153  15.840  22.674  1.00  0.00    -0.230 N
HETATM   35  C11 UNL     1      47.748  17.008  23.114  1.00  0.00     0.195 A
HETATM   36  C12 UNL     1      48.048  14.773  23.484  1.00  0.00     0.170 A
HETATM   37  N6  UNL     1      47.241  17.001  24.429  1.00  0.00    -0.295 N
HETATM   38  S3  UNL     1      47.373  15.429  24.889  1.00  0.00     0.025 SA
ATOM     39  H6  UNL     1      46.878  17.786  24.968  1.00  0.00     0.177 HD
BRANCH  35  40
HETATM   40  N5  UNL     1      47.720  18.151  22.559  1.00  0.00    -0.370 N
ATOM     41  H52 UNL     1      48.060  18.906  23.154  1.00  0.00     0.159 HD
ATOM     42  H51 UNL     1      47.411  18.443  21.633  1.00  0.00     0.159 HD
ENDBRANCH  35  40
BRANCH  36  43
HETATM   43  N7  UNL     1      48.400  13.526  23.237  1.00  0.00    -0.378 N
ATOM     44  H72 UNL     1      49.070  13.172  22.554  1.00  0.00     0.158 HD
ATOM     45  H71 UNL     1      48.056  12.674  23.682  1.00  0.00     0.158 HD
ENDBRANCH  36  43
ENDBRANCH  31  32
ENDBRANCH  30  31
ENDBRANCH  24  30
ENDBRANCH   1  24
TORSDOF 15
ENDMDL