MODEL 5
REMARK VINA RESULT: -6.249845516      1.426      1.829
REMARK  3 active torsions:
REMARK  status: ('A' for Active; 'I' for Inactive)
REMARK    1  A    between atoms: C1_2  and  C2_3
REMARK       I    between atoms: C1_2  and  N1_12
REMARK    2  A    between atoms: C2_3  and  C3_4
REMARK    3  A    between atoms: N1_12  and  C9_14
ROOT
HETATM    1  O1  UNL     1      25.970  11.852  10.583  1.00  0.00    -0.273 OA
HETATM    2  C1  UNL     1      26.883  12.690  10.386  1.00  0.00     0.223 C
HETATM    3  N1  UNL     1      28.172  12.209  10.112  1.00  0.00    -0.312 N
ATOM      4  H1  UNL     1      28.459  12.153   9.135  1.00  0.00     0.170 HD
ENDROOT
BRANCH   2   5
HETATM    5  C2  UNL     1      26.572  14.118  10.446  1.00  0.00     0.113 C
BRANCH   5   6
HETATM    6  C3  UNL     1      25.151  14.442  10.084  1.00  0.00     0.067 C
HETATM    7  C4  UNL     1      24.394  14.712  11.361  1.00  0.00     0.011 C
HETATM    8  C5  UNL     1      23.069  15.390  11.091  1.00  0.00     0.001 C
HETATM    9  C6  UNL     1      22.739  15.361   9.603  1.00  0.00     0.006 C
HETATM   10  C7  UNL     1      23.806  16.219   8.942  1.00  0.00     0.079 C
HETATM   11  C8  UNL     1      25.174  15.641   9.168  1.00  0.00     0.247 C
HETATM   12  F1  UNL     1      25.997  16.622   9.683  1.00  0.00    -0.206 F
HETATM   13  F2  UNL     1      25.722  15.267   7.949  1.00  0.00    -0.206 F
ENDBRANCH   5   6
ENDBRANCH   2   5
BRANCH   3  14
HETATM   14  C9  UNL     1      29.010  11.835  10.998  1.00  0.00     0.123 A
HETATM   15  C10 UNL     1      29.107  12.468  12.222  1.00  0.00     0.068 A
HETATM   16  C11 UNL     1      30.083  11.833  12.922  1.00  0.00     0.111 A
HETATM   17  N2  UNL     1      30.568  10.843  12.151  1.00  0.00    -0.310 N
HETATM   18  N3  UNL     1      29.914  10.853  10.993  1.00  0.00    -0.286 N
ATOM     19  H2  UNL     1      31.311  10.195  12.411  1.00  0.00     0.186 HD
ATOM     20  H3  UNL     1      30.079  10.210  10.219  1.00  0.00     0.188 HD
ENDBRANCH   3  14
TORSDOF 3
ENDMDL