MODEL 5
REMARK VINA RESULT: -5.379651278      3.139      5.533
REMARK  2 active torsions:
REMARK  status: ('A' for Active; 'I' for Inactive)
REMARK    1  A    between atoms: C2_2  and  C3_3
REMARK    2  A    between atoms: C2_2  and  S1_11
ROOT
HETATM    1  C1  UNL     1      24.213  14.784   8.149  1.00  0.00     0.033 C
HETATM    2  C2  UNL     1      24.649  14.924   9.371  1.00  0.00     0.013 C
ENDROOT
BRANCH   2   3
HETATM    3  C3  UNL     1      25.753  14.092   9.807  1.00  0.00     0.089 A
HETATM    4  N1  UNL     1      25.727  12.740   9.865  1.00  0.00    -0.359 N
HETATM    5  C4  UNL     1      26.894  12.271  10.310  1.00  0.00     0.134 A
ATOM      6  H1  UNL     1      24.929  12.161   9.605  1.00  0.00     0.165 HD
HETATM    7  C5  UNL     1      27.717  13.348  10.554  1.00  0.00     0.172 A
HETATM    8  F1  UNL     1      29.003  13.335  11.019  1.00  0.00    -0.201 F
HETATM    9  C6  UNL     1      27.002  14.474  10.240  1.00  0.00     0.184 A
HETATM   10  F2  UNL     1      27.426  15.758  10.329  1.00  0.00    -0.200 F
ENDBRANCH   2   3
BRANCH   2  11
HETATM   11  S1  UNL     1      23.958  16.039  10.415  1.00  0.00    -0.167 SA
HETATM   12  C7  UNL     1      24.567  17.650  10.446  1.00  0.00     0.070 C
HETATM   13  C8  UNL     1      25.446  17.828  11.651  1.00  0.00     0.011 C
HETATM   14  C9  UNL     1      24.949  16.936  12.782  1.00  0.00     0.020 C
HETATM   15  C10 UNL     1      23.556  17.325  13.154  1.00  0.00     0.114 C
HETATM   16  N2  UNL     1      22.523  16.601  12.508  1.00  0.00    -0.413 N
HETATM   17  C11 UNL     1      22.939  15.521  11.684  1.00  0.00     0.183 C
ATOM     18  H2  UNL     1      21.539  16.841  12.628  1.00  0.00     0.153 HD
ENDBRANCH   2  11
TORSDOF 2
ENDMDL