MODEL 4
REMARK VINA RESULT: -5.311377499      1.613      2.252
REMARK  2 active torsions:
REMARK  status: ('A' for Active; 'I' for Inactive)
REMARK    1  A    between atoms: C3_3  and  C5_5
REMARK    2  A    between atoms: C6_6  and  C7_7
ROOT
HETATM    1  C1  UNL     1      24.914  17.301  10.471  1.00  0.00     0.103 C
HETATM    2  C2  UNL     1      24.716  16.207   9.950  1.00  0.00    -0.150 C
HETATM    3  C3  UNL     1      24.503  14.965   9.305  1.00  0.00    -0.005 C
HETATM    4  C4  UNL     1      24.063  15.004   8.001  1.00  0.00     0.032 C
ENDROOT
BRANCH   3   5
HETATM    5  C5  UNL     1      24.802  13.688   9.828  1.00  0.00     0.020 C
HETATM    6  C6  UNL     1      25.759  13.027  10.306  1.00  0.00     0.017 C
BRANCH   6   7
HETATM    7  C7  UNL     1      27.150  13.239  10.610  1.00  0.00     0.021 A
HETATM    8  C8  UNL     1      28.147  12.248  10.401  1.00  0.00     0.103 A
HETATM    9  N1  UNL     1      29.320  12.652  10.884  1.00  0.00    -0.357 N
HETATM   10  C9  UNL     1      29.200  13.862  11.419  1.00  0.00     0.119 A
ATOM     11  H1  UNL     1      30.184  12.110  10.849  1.00  0.00     0.166 HD
HETATM   12 BR1  UNL     1      30.533  14.946  12.258  1.00  0.00    -0.028 Br
HETATM   13  C10 UNL     1      27.855  14.223  11.250  1.00  0.00     0.162 A
HETATM   14  F1  UNL     1      27.368  15.367  11.767  1.00  0.00    -0.202 F
ENDBRANCH   6   7
ENDBRANCH   3   5
TORSDOF 2
ENDMDL