MODEL 5
REMARK VINA RESULT: -5.361187594      2.902      4.633
REMARK  3 active torsions:
REMARK  status: ('A' for Active; 'I' for Inactive)
REMARK    1  A    between atoms: C1_2  and  C2_3
REMARK    2  A    between atoms: C2_3  and  N1_5
REMARK    3  A    between atoms: N1_5  and  C3_7
ROOT
HETATM    1  C2  UNL     1      24.511  14.393  11.809  1.00  0.00     0.237 C
HETATM    2 CL1  UNL     1      23.291  13.913  13.044  1.00  0.00    -0.098 Cl
ENDROOT
BRANCH   1   3
HETATM    3  C1  UNL     1      23.842  15.386  10.929  1.00  0.00     0.149 C
HETATM    4  F1  UNL     1      22.542  15.610  11.343  1.00  0.00    -0.238 F
HETATM    5  C6  UNL     1      23.848  15.068   9.446  1.00  0.00     0.049 C
HETATM    6  C7  UNL     1      23.897  16.592   9.246  1.00  0.00     0.020 C
HETATM    7  C8  UNL     1      24.569  16.629  10.584  1.00  0.00     0.020 A
HETATM    8  C9  UNL     1      25.983  16.711  10.654  1.00  0.00    -0.017 A
HETATM    9  C11 UNL     1      24.490  17.804  11.409  1.00  0.00     0.043 A
HETATM   10  C10 UNL     1      25.947  17.771  11.399  1.00  0.00    -0.029 A
ENDBRANCH   1   3
BRANCH   1  11
HETATM   11  N1  UNL     1      24.909  13.188  11.136  1.00  0.00    -0.205 N
ATOM     12  H1  UNL     1      24.192  12.557  10.775  1.00  0.00     0.179 HD
BRANCH  11  13
HETATM   13  C3  UNL     1      26.153  12.885  10.979  1.00  0.00     0.679 A
HETATM   14  N2  UNL     1      26.644  12.097  10.005  1.00  0.00    -0.201 N
HETATM   15  C4  UNL     1      27.975  12.035  10.191  1.00  0.00     0.123 A
ATOM     16  H2  UNL     1      26.110  11.636   9.268  1.00  0.00     0.183 HD
HETATM   17  C5  UNL     1      28.302  12.792  11.289  1.00  0.00     0.123 A
HETATM   18  N3  UNL     1      27.160  13.316  11.769  1.00  0.00    -0.201 N
ATOM     19  H3  UNL     1      27.071  13.927  12.581  1.00  0.00     0.183 HD
ENDBRANCH  11  13
ENDBRANCH   1  11
TORSDOF 3
ENDMDL