MODEL 4
REMARK VINA RESULT: -4.857021912      1.097      1.138
REMARK  2 active torsions:
REMARK  status: ('A' for Active; 'I' for Inactive)
REMARK       I    between atoms: N1_2  and  C2_4
REMARK    1  A    between atoms: C2_4  and  C3_6
REMARK    2  A    between atoms: C3_6  and  C4_7
ROOT
HETATM    1  C4  UNL     1      25.493  15.175  10.227  1.00  0.00     0.080 C
HETATM    2 CL1  UNL     1      24.906  13.673  10.991  1.00  0.00    -0.115 Cl
HETATM    3  C5  UNL     1      25.585  14.872   8.744  1.00  0.00     0.029 C
HETATM    4  C6  UNL     1      24.279  14.779   8.044  1.00  0.00     0.002 C
HETATM    5  C7  UNL     1      23.129  15.374   8.834  1.00  0.00     0.003 C
HETATM    6  C8  UNL     1      23.675  16.679   9.382  1.00  0.00     0.044 C
HETATM    7  C9  UNL     1      24.544  16.255  10.567  1.00  0.00     0.135 C
HETATM    8 CL2  UNL     1      25.327  17.775  11.118  1.00  0.00    -0.100 Cl
HETATM    9 CL3  UNL     1      23.368  15.819  11.842  1.00  0.00    -0.100 Cl
ENDROOT
BRANCH   1  10
HETATM   10  C3  UNL     1      26.912  15.432  10.656  1.00  0.00     0.131 C
BRANCH  10  11
HETATM   11  C2  UNL     1      27.591  14.338  11.346  1.00  0.00     0.219 C
HETATM   12  N1  UNL     1      28.261  13.363  10.591  1.00  0.00    -0.365 N
HETATM   13  C1  UNL     1      28.957  12.252  11.201  1.00  0.00     0.149 C
ATOM     14  H1  UNL     1      28.257  13.441   9.574  1.00  0.00     0.161 HD
HETATM   15  O1  UNL     1      27.603  14.232  12.582  1.00  0.00    -0.274 OA
ENDBRANCH  10  11
ENDBRANCH   1  10
TORSDOF 2
ENDMDL