MODEL 4
REMARK VINA RESULT: -6.124636163      3.343      6.253
REMARK  2 active torsions:
REMARK  status: ('A' for Active; 'I' for Inactive)
REMARK       I    between atoms: C1_2  and  N3_11
REMARK    1  A    between atoms: N2_3  and  C2_5
REMARK    2  A    between atoms: N3_11  and  C7_13
ROOT
HETATM    1  N1  UNL     1      24.970  12.891  13.692  1.00  0.00    -0.064 NA
HETATM    2  C1  UNL     1      25.347  13.747  12.620  1.00  0.00     0.189 C
HETATM    3  N2  UNL     1      24.429  14.069  11.775  1.00  0.00    -0.360 N
ATOM      4  H2  UNL     1      23.479  13.715  11.886  1.00  0.00     0.162 HD
HETATM    5  N3  UNL     1      26.666  14.229  12.481  1.00  0.00    -0.331 N
ATOM      6  H3  UNL     1      26.877  15.212  12.652  1.00  0.00     0.168 HD
ENDROOT
BRANCH   3   7
HETATM    7  C2  UNL     1      24.756  14.927  10.680  1.00  0.00     0.086 C
HETATM    8  C3  UNL     1      23.592  15.878  10.455  1.00  0.00     0.028 C
HETATM    9  C4  UNL     1      23.891  16.426   9.082  1.00  0.00     0.039 C
HETATM   10  C5  UNL     1      24.599  15.323   8.366  1.00  0.00     0.172 C
HETATM   11  F1  UNL     1      23.895  14.850   7.275  1.00  0.00    -0.249 F
HETATM   12  C6  UNL     1      24.811  14.204   9.349  1.00  0.00     0.062 C
ENDBRANCH   3   7
BRANCH   5  13
HETATM   13  C7  UNL     1      27.699  13.328  12.100  1.00  0.00     0.034 A
HETATM   14  C8  UNL     1      27.781  12.805  10.821  1.00  0.00     0.032 A
HETATM   15  C9  UNL     1      28.787  11.926  10.443  1.00  0.00     0.044 A
HETATM   16  C10 UNL     1      29.734  11.563  11.378  1.00  0.00     0.116 A
HETATM   17  F2  UNL     1      30.718  10.705  11.017  1.00  0.00    -0.206 F
HETATM   18  C11 UNL     1      29.691  12.057  12.662  1.00  0.00     0.044 A
HETATM   19  C12 UNL     1      28.678  12.925  12.988  1.00  0.00     0.032 A
ENDBRANCH   5  13
TORSDOF 2
ENDMDL