MODEL 3
REMARK VINA RESULT: -5.882641096      2.846      3.866
REMARK  2 active torsions:
REMARK  status: ('A' for Active; 'I' for Inactive)
REMARK       I    between atoms: C1_2  and  N2_4
REMARK    1  A    between atoms: N2_4  and  C2_6
REMARK    2  A    between atoms: C6_11  and  C7_12
ROOT
HETATM    1  C2  UNL     1      23.788  16.200  12.048  1.00  0.00     0.097 C
HETATM    2  C3  UNL     1      22.661  16.531  13.038  1.00  0.00     0.063 C
HETATM    3  C4  UNL     1      22.140  15.170  13.485  1.00  0.00     0.172 C
HETATM    4  F1  UNL     1      21.946  15.247  14.847  1.00  0.00    -0.249 F
HETATM    5  C5  UNL     1      23.231  14.164  13.187  1.00  0.00     0.048 C
HETATM    6  C6  UNL     1      24.386  14.991  12.732  1.00  0.00     0.044 C
ENDROOT
BRANCH   6   7
HETATM    7  C7  UNL     1      25.373  14.255  11.948  1.00  0.00    -0.052 A
HETATM    8  C8  UNL     1      25.077  13.083  11.308  1.00  0.00     0.011 A
HETATM    9  C9  UNL     1      26.024  12.387  10.557  1.00  0.00     0.043 A
HETATM   10  C10 UNL     1      27.295  12.879  10.448  1.00  0.00     0.116 A
HETATM   11  F2  UNL     1      28.246  12.211   9.713  1.00  0.00    -0.206 F
HETATM   12  C11 UNL     1      27.626  14.059  11.082  1.00  0.00     0.043 A
HETATM   13  C12 UNL     1      26.661  14.738  11.827  1.00  0.00     0.011 A
ENDBRANCH   6   7
BRANCH   1  14
HETATM   14  N2  UNL     1      23.249  15.961  10.754  1.00  0.00    -0.340 N
HETATM   15  C1  UNL     1      23.904  16.418   9.579  1.00  0.00     0.329 C
HETATM   16  N1  UNL     1      23.367  16.181   8.273  1.00  0.00    -0.040 NA
HETATM   17  O1  UNL     1      24.975  17.039   9.689  1.00  0.00    -0.251 OA
ATOM     18  H2  UNL     1      22.371  15.450  10.668  1.00  0.00     0.164 HD
ENDBRANCH   1  14
TORSDOF 2
ENDMDL