MODEL 3
REMARK VINA RESULT: -5.122049407      3.151      3.693
REMARK  2 active torsions:
REMARK  status: ('A' for Active; 'I' for Inactive)
REMARK       I    between atoms: C1_2  and  N2_4
REMARK    1  A    between atoms: N2_4  and  C2_6
REMARK    2  A    between atoms: C2_6  and  C3_8
ROOT
HETATM    1  C3  UNL     1      24.621  14.912  10.510  1.00  0.00     0.014 A
HETATM    2  C4  UNL     1      25.331  14.345   9.465  1.00  0.00     0.013 A
HETATM    3  C5  UNL     1      25.983  13.135   9.594  1.00  0.00     0.001 A
HETATM    4  C6  UNL     1      25.886  12.521  10.827  1.00  0.00     0.003 A
HETATM    5  C7  UNL     1      25.180  13.078  11.876  1.00  0.00     0.043 A
HETATM    6  C8  UNL     1      24.539  14.283  11.725  1.00  0.00     0.125 A
HETATM    7  F1  UNL     1      23.832  14.865  12.738  1.00  0.00    -0.205 F
ENDROOT
BRANCH   1   8
HETATM    8  C2  UNL     1      23.950  16.210  10.293  1.00  0.00     0.194 C
HETATM    9 BR1  UNL     1      23.322  16.203   8.442  1.00  0.00    -0.063 Br
BRANCH   8  10
HETATM   10  N2  UNL     1      24.810  17.338  10.431  1.00  0.00    -0.327 N
HETATM   11  C1  UNL     1      24.848  18.217  11.545  1.00  0.00     0.329 C
HETATM   12  N1  UNL     1      25.694  19.317  11.668  1.00  0.00    -0.040 NA
HETATM   13  O1  UNL     1      24.030  17.955  12.493  1.00  0.00    -0.251 OA
ATOM     14  H2  UNL     1      25.453  17.530   9.664  1.00  0.00     0.165 HD
ENDBRANCH   8  10
ENDBRANCH   1   8
TORSDOF 2
ENDMDL