MODEL 3
REMARK VINA RESULT: -5.514922429      1.906      2.851
REMARK  2 active torsions:
REMARK  status: ('A' for Active; 'I' for Inactive)
REMARK       I    between atoms: C1_2  and  N2_4
REMARK    1  A    between atoms: N2_4  and  C2_6
REMARK    2  A    between atoms: C2_6  and  C3_7
ROOT
HETATM    1  C3  UNL     1      24.640  15.218  11.364  1.00  0.00     0.001 C
HETATM    2  C4  UNL     1      25.691  14.659  12.252  1.00  0.00     0.014 C
HETATM    3  C5  UNL     1      25.412  13.250  11.771  1.00  0.00     0.006 C
HETATM    4  C6  UNL     1      24.624  13.895  10.627  1.00  0.00    -0.002 C
HETATM    5  C7  UNL     1      25.335  13.916   9.322  1.00  0.00     0.010 C
HETATM    6  C8  UNL     1      25.526  15.301   8.767  1.00  0.00    -0.010 C
HETATM    7  C9  UNL     1      24.277  16.094   9.131  1.00  0.00     0.031 C
HETATM    8  C10 UNL     1      24.986  16.361  10.470  1.00  0.00     0.047 C
HETATM    9 CL1  UNL     1      24.635  17.954  11.083  1.00  0.00    -0.118 Cl
HETATM   10  C11 UNL     1      26.284  16.199   9.717  1.00  0.00     0.031 C
ENDROOT
BRANCH   1  11
HETATM   11  C2  UNL     1      23.286  15.446  11.987  1.00  0.00     0.135 C
BRANCH  11  12
HETATM   12  N2  UNL     1      23.297  15.771  13.363  1.00  0.00    -0.344 N
HETATM   13  C1  UNL     1      22.311  16.615  13.910  1.00  0.00     0.328 C
HETATM   14  N1  UNL     1      22.281  16.969  15.285  1.00  0.00    -0.040 NA
HETATM   15  O1  UNL     1      21.413  17.085  13.173  1.00  0.00    -0.251 OA
ATOM     16  H2  UNL     1      24.026  15.390  13.966  1.00  0.00     0.163 HD
ENDBRANCH  11  12
ENDBRANCH   1  11
TORSDOF 2
ENDMDL