MODEL 5
REMARK VINA RESULT: -3.558384481      2.036      3.223
REMARK  1 active torsions:
REMARK  status: ('A' for Active; 'I' for Inactive)
REMARK       I    between atoms: C2_2  and  N1_4
REMARK    1  A    between atoms: N1_4  and  C3_6
ROOT
HETATM    1  C1  UNL     1      26.416  15.870  12.531  1.00  0.00     0.117 C
HETATM    2  C2  UNL     1      25.592  14.747  12.054  1.00  0.00     0.214 C
HETATM    3  O1  UNL     1      25.930  13.583  12.347  1.00  0.00    -0.274 OA
HETATM    4  N1  UNL     1      24.441  15.002  11.279  1.00  0.00    -0.353 N
ATOM      5  H1  UNL     1      24.202  15.970  11.063  1.00  0.00     0.163 HD
ENDROOT
BRANCH   4   6
HETATM    6  C3  UNL     1      23.583  13.946  10.776  1.00  0.00     0.022 C
HETATM    7  C4  UNL     1      23.121  13.120  11.958  1.00  0.00     0.037 C
HETATM    8  C5  UNL     1      24.357  13.117   9.793  1.00  0.00     0.037 C
HETATM    9  C6  UNL     1      22.337  14.497  10.122  1.00  0.00     0.037 C
ENDBRANCH   4   6
TORSDOF 1
ENDMDL