MODEL 5
REMARK VINA RESULT: -4.255866249      1.477      2.151
REMARK  1 active torsions:
REMARK  status: ('A' for Active; 'I' for Inactive)
REMARK    1  A    between atoms: C4_4  and  N1_5
ROOT
HETATM    1  C1  UNL     1      25.422  14.505  11.342  1.00  0.00     0.010 C
HETATM    2  C2  UNL     1      24.547  13.379  10.909  1.00  0.00    -0.013 C
HETATM    3  C3  UNL     1      23.516  13.951   9.936  1.00  0.00     0.037 C
HETATM    4  C4  UNL     1      22.533  14.584  10.897  1.00  0.00     0.184 C
HETATM    5  C5  UNL     1      22.359  13.538  11.944  1.00  0.00     0.037 C
HETATM    6  C6  UNL     1      23.679  12.808  11.978  1.00  0.00    -0.013 C
HETATM    7  C7  UNL     1      24.303  12.797  13.340  1.00  0.00     0.010 C
ENDROOT
BRANCH   4   8
HETATM    8  N1  UNL     1      21.321  14.854  10.144  1.00  0.00    -0.075 N
ATOM      9  H13 UNL     1      21.498  15.070   9.163  1.00  0.00     0.274 HD
ATOM     10  H12 UNL     1      20.749  14.024   9.993  1.00  0.00     0.274 HD
ATOM     11  H11 UNL     1      20.827  15.599  10.636  1.00  0.00     0.274 HD
ENDBRANCH   4   8
TORSDOF 1
ENDMDL