MODEL 1
REMARK VINA RESULT: -4.551981767      0.000      0.000
REMARK  1 active torsions:
REMARK  status: ('A' for Active; 'I' for Inactive)
REMARK    1  A    between atoms: C7_7  and  N1_8
ROOT
HETATM    1  C1  UNL     1      22.856  12.718  12.867  1.00  0.00     0.012 C
HETATM    2  C2  UNL     1      23.424  13.911  12.081  1.00  0.00     0.012 C
HETATM    3  C3  UNL     1      22.320  14.774  11.588  1.00  0.00     0.006 C
HETATM    4  C4  UNL     1      21.744  14.264  10.288  1.00  0.00     0.000 C
HETATM    5  C5  UNL     1      22.874  14.336   9.289  1.00  0.00     0.002 C
HETATM    6  C6  UNL     1      24.051  13.508   9.661  1.00  0.00     0.033 C
HETATM    7  C7  UNL     1      24.419  13.479  11.088  1.00  0.00     0.187 C
ENDROOT
BRANCH   7   8
HETATM    8  N1  UNL     1      25.679  14.230  11.253  1.00  0.00    -0.075 N
ATOM      9  H13 UNL     1      25.896  14.790  10.429  1.00  0.00     0.274 HD
ATOM     10  H12 UNL     1      25.583  14.985  11.932  1.00  0.00     0.274 HD
ATOM     11  H11 UNL     1      26.444  13.599  11.494  1.00  0.00     0.274 HD
ENDBRANCH   7   8
TORSDOF 1
ENDMDL