MODEL 3
REMARK VINA RESULT: -4.381483931      1.195      2.686
REMARK  1 active torsions:
REMARK  status: ('A' for Active; 'I' for Inactive)
REMARK    1  A    between atoms: C7_7  and  O1_8
ROOT
HETATM    1  C1  UNL     1      24.321  13.200   9.434  1.00  0.00     0.012 C
HETATM    2  C2  UNL     1      24.054  14.166  10.565  1.00  0.00     0.011 C
HETATM    3  C3  UNL     1      22.560  14.452  10.617  1.00  0.00     0.007 C
HETATM    4  C4  UNL     1      22.107  14.007  11.979  1.00  0.00     0.007 C
HETATM    5  C5  UNL     1      23.116  12.897  12.301  1.00  0.00     0.011 C
HETATM    6  C6  UNL     1      23.036  12.568  13.758  1.00  0.00     0.012 C
HETATM    7  C7  UNL     1      24.413  13.580  11.916  1.00  0.00     0.125 C
ENDROOT
BRANCH   7   8
HETATM    8  O1  UNL     1      25.485  12.731  11.876  1.00  0.00    -0.395 OA
ATOM      9  H1  UNL     1      25.614  12.244  12.681  1.00  0.00     0.210 HD
ENDBRANCH   7   8
TORSDOF 1
ENDMDL