MODEL 2
REMARK VINA RESULT: -4.299827464      1.578      2.520
REMARK  1 active torsions:
REMARK  status: ('A' for Active; 'I' for Inactive)
REMARK    1  A    between atoms: C1_2  and  C2_4
ROOT
HETATM    1  C2  UNL     1      23.917  13.972  10.818  1.00  0.00     0.087 C
HETATM    2  C3  UNL     1      23.440  13.977   9.397  1.00  0.00     0.015 C
HETATM    3  C4  UNL     1      22.305  14.985   9.448  1.00  0.00     0.001 C
HETATM    4  C5  UNL     1      21.608  14.457  10.710  1.00  0.00     0.001 C
HETATM    5  C6  UNL     1      22.764  14.493  11.668  1.00  0.00     0.015 C
ENDROOT
BRANCH   1   6
HETATM    6  C1  UNL     1      24.216  12.594  11.277  1.00  0.00     0.177 C
HETATM    7  O1  UNL     1      24.712  11.788  10.452  1.00  0.00    -0.648 OA
HETATM    8  O2  UNL     1      23.978  12.155  12.564  1.00  0.00    -0.648 OA
ENDBRANCH   1   6
TORSDOF 1
ENDMDL