MODEL 2
REMARK VINA RESULT: -4.725402876      0.484      1.787
REMARK  1 active torsions:
REMARK  status: ('A' for Active; 'I' for Inactive)
REMARK    1  A    between atoms: N1_1  and  C1_5
ROOT
HETATM    1  C1  UNL     1      24.265  13.490  10.635  1.00  0.00     0.124 C
HETATM    2  C2  UNL     1      24.968  14.566  11.402  1.00  0.00     0.043 C
HETATM    3  C3  UNL     1      23.940  14.893  12.494  1.00  0.00    -0.007 C
HETATM    4  C4  UNL     1      23.954  13.824  13.598  1.00  0.00     0.010 C
HETATM    5  C5  UNL     1      23.117  12.983  12.625  1.00  0.00    -0.007 C
HETATM    6  C6  UNL     1      24.015  12.336  11.576  1.00  0.00     0.043 C
HETATM    7  C7  UNL     1      22.648  14.293  12.039  1.00  0.00    -0.004 C
HETATM    8  C8  UNL     1      22.843  14.073  10.556  1.00  0.00     0.044 C
ENDROOT
BRANCH   1   9
HETATM    9  N1  UNL     1      24.809  13.151   9.387  1.00  0.00    -0.070 N
ATOM     10  H13 UNL     1      24.322  13.662   8.651  1.00  0.00     0.275 HD
ATOM     11  H12 UNL     1      25.745  13.548   9.302  1.00  0.00     0.275 HD
ATOM     12  H11 UNL     1      24.836  12.158   9.156  1.00  0.00     0.275 HD
ENDBRANCH   1   9
TORSDOF 1
ENDMDL