MODEL 1
REMARK VINA RESULT: -4.587659750      0.000      0.000
REMARK  0 active torsions:
REMARK  status: ('A' for Active; 'I' for Inactive)
ROOT
HETATM    1  C1  UNL     1      23.987  12.298  11.943  1.00  0.00     0.015 C
HETATM    2  C2  UNL     1      24.350  13.686  11.486  1.00  0.00    -0.047 C
HETATM    3  C3  UNL     1      25.628  14.195  12.059  1.00  0.00     0.015 C
HETATM    4  C4  UNL     1      23.184  14.621  11.769  1.00  0.00     0.013 C
HETATM    5  C5  UNL     1      22.204  14.205  10.695  1.00  0.00    -0.009 A
HETATM    6  C6  UNL     1      22.199  15.040   9.479  1.00  0.00     0.010 A
HETATM    7  C7  UNL     1      22.993  13.814   9.490  1.00  0.00    -0.009 A
HETATM    8  C8  UNL     1      24.399  13.741   9.964  1.00  0.00     0.013 C
ENDROOT
TORSDOF 0
ENDMDL