MODEL 1
REMARK VINA RESULT: -4.668143750      0.000      0.000
REMARK  1 active torsions:
REMARK  status: ('A' for Active; 'I' for Inactive)
REMARK    1  A    between atoms: N1_1  and  C1_5
ROOT
HETATM    1  C1  UNL     1      24.150  13.631  10.535  1.00  0.00     0.124 C
HETATM    2  C2  UNL     1      24.985  14.625  11.280  1.00  0.00     0.039 C
HETATM    3  C3  UNL     1      24.149  14.885  12.540  1.00  0.00     0.007 C
HETATM    4  C4  UNL     1      22.995  13.927  12.464  1.00  0.00    -0.012 C
HETATM    5  C5  UNL     1      22.024  14.415  11.403  1.00  0.00     0.007 C
HETATM    6  C6  UNL     1      22.862  14.306  10.118  1.00  0.00     0.039 C
HETATM    7  C7  UNL     1      23.638  12.763  11.698  1.00  0.00     0.043 C
ENDROOT
BRANCH   1   8
HETATM    8  N1  UNL     1      24.799  12.900   9.527  1.00  0.00    -0.070 N
ATOM      9  H13 UNL     1      24.465  11.936   9.532  1.00  0.00     0.275 HD
ATOM     10  H12 UNL     1      24.467  13.207   8.613  1.00  0.00     0.275 HD
ATOM     11  H11 UNL     1      25.818  12.912   9.544  1.00  0.00     0.275 HD
ENDBRANCH   1   8
TORSDOF 1
ENDMDL