MODEL 1
REMARK VINA RESULT: -4.385545210      0.000      0.000
REMARK  1 active torsions:
REMARK  status: ('A' for Active; 'I' for Inactive)
REMARK    1  A    between atoms: C6_6  and  N1_8
ROOT
HETATM    1  C1  UNL     1      21.959  14.404  11.154  1.00  0.00     0.012 C
HETATM    2  C2  UNL     1      23.076  13.481  11.533  1.00  0.00     0.017 C
HETATM    3  C3  UNL     1      23.716  13.990  12.803  1.00  0.00     0.007 C
HETATM    4  C4  UNL     1      24.606  15.107  12.255  1.00  0.00     0.003 C
HETATM    5  C5  UNL     1      25.272  14.382  11.084  1.00  0.00     0.038 C
HETATM    6  C6  UNL     1      24.208  13.437  10.576  1.00  0.00     0.123 C
HETATM    7  C7  UNL     1      23.835  13.708   9.149  1.00  0.00     0.046 C
ENDROOT
BRANCH   6   8
HETATM    8  N1  UNL     1      24.792  12.088  10.644  1.00  0.00    -0.070 N
ATOM      9  H13 UNL     1      25.659  12.002  10.113  1.00  0.00     0.275 HD
ATOM     10  H12 UNL     1      25.177  11.868  11.563  1.00  0.00     0.275 HD
ATOM     11  H11 UNL     1      24.074  11.428  10.345  1.00  0.00     0.275 HD
ENDBRANCH   6   8
TORSDOF 1
ENDMDL