MODEL 1
REMARK VINA RESULT: -4.733996806      0.000      0.000
REMARK  1 active torsions:
REMARK  status: ('A' for Active; 'I' for Inactive)
REMARK    1  A    between atoms: C6_6  and  N1_7
ROOT
HETATM    1  C1  UNL     1      21.685  14.530  13.123  1.00  0.00     0.010 C
HETATM    2  C2  UNL     1      22.487  14.472  11.862  1.00  0.00    -0.017 C
HETATM    3  C3  UNL     1      21.643  14.728  10.619  1.00  0.00     0.004 C
HETATM    4  C4  UNL     1      22.541  14.762   9.419  1.00  0.00     0.002 C
HETATM    5  C5  UNL     1      23.451  13.584   9.302  1.00  0.00     0.033 C
HETATM    6  C6  UNL     1      24.166  13.266  10.587  1.00  0.00     0.183 C
HETATM    7  C7  UNL     1      23.094  13.076  11.656  1.00  0.00     0.037 C
ENDROOT
BRANCH   6   8
HETATM    8  N1  UNL     1      24.969  12.097  10.460  1.00  0.00    -0.075 N
ATOM      9  H13 UNL     1      25.158  11.674  11.369  1.00  0.00     0.274 HD
ATOM     10  H12 UNL     1      24.448  11.330  10.035  1.00  0.00     0.274 HD
ATOM     11  H11 UNL     1      25.831  12.290   9.952  1.00  0.00     0.274 HD
ENDBRANCH   6   8
TORSDOF 1
ENDMDL