MODEL 3
REMARK VINA RESULT: -4.600636592      2.573      4.069
REMARK  2 active torsions:
REMARK  status: ('A' for Active; 'I' for Inactive)
REMARK    1  A    between atoms: C2_2  and  C3_3
REMARK    2  A    between atoms: C2_2  and  N2_11
ROOT
HETATM    1  C3  UNL     1     -63.721  38.695 -44.020  1.00  0.00     0.208 C
HETATM    2  C4  UNL     1     -63.025  38.844 -42.681  1.00  0.00     0.035 C
HETATM    3  C5  UNL     1     -63.587  40.133 -42.062  1.00  0.00     0.004 C
HETATM    4  C6  UNL     1     -63.605  41.277 -42.991  1.00  0.00     0.027 C
HETATM    5  C7  UNL     1     -63.863  40.990 -44.418  1.00  0.00     0.233 C
HETATM    6  N1  UNL     1     -63.208  39.744 -44.859  1.00  0.00    -0.069 N
ATOM      7  H11 UNL     1     -63.324  39.557 -45.855  1.00  0.00     0.277 HD
ATOM      8  H12 UNL     1     -62.191  39.801 -44.858  1.00  0.00     0.277 HD
ENDROOT
BRANCH   1   9
HETATM    9  C2  UNL     1     -63.793  37.349 -44.553  1.00  0.00     0.110 C
HETATM   10  C1  UNL     1     -63.207  36.399 -43.491  1.00  0.00     0.034 C
BRANCH   9  11
HETATM   11  N2  UNL     1     -64.918  36.747 -45.058  1.00  0.00    -0.387 N
HETATM   12  C8  UNL     1     -65.072  37.088 -46.453  1.00  0.00     0.122 C
HETATM   13  C9  UNL     1     -66.313  36.468 -47.027  1.00  0.00     0.020 C
HETATM   14  C10 UNL     1     -66.056  34.959 -46.969  1.00  0.00     0.007 C
HETATM   15  C11 UNL     1     -65.975  34.563 -45.550  1.00  0.00     0.044 C
HETATM   16  C12 UNL     1     -65.562  35.650 -44.579  1.00  0.00     0.058 C
ENDBRANCH   9  11
ENDBRANCH   1   9
TORSDOF 2
ENDMDL