MODEL 1
REMARK VINA RESULT: -5.180987005      0.000      0.000
REMARK  2 active torsions:
REMARK  status: ('A' for Active; 'I' for Inactive)
REMARK    1  A    between atoms: C2_2  and  N2_5
REMARK    2  A    between atoms: N2_5  and  C4_8
ROOT
HETATM    1  C1  UNL     1     -65.947  34.919 -46.977  1.00  0.00     0.056 C
HETATM    2  C2  UNL     1     -65.867  34.648 -45.504  1.00  0.00     0.288 C
HETATM    3  C3  UNL     1     -66.319  33.289 -45.250  1.00  0.00     0.092 C
HETATM    4  N1  UNL     1     -66.650  32.205 -45.083  1.00  0.00    -0.195 NA
ENDROOT
BRANCH   2   5
HETATM    5  N2  UNL     1     -66.560  35.639 -44.732  1.00  0.00    -0.054 N
ATOM      6  H22 UNL     1     -66.867  36.411 -45.325  1.00  0.00     0.279 HD
ATOM      7  H21 UNL     1     -67.468  35.291 -44.426  1.00  0.00     0.279 HD
BRANCH   5   8
HETATM    8  C4  UNL     1     -65.788  36.131 -43.602  1.00  0.00     0.192 C
HETATM    9  C5  UNL     1     -64.388  35.673 -43.625  1.00  0.00     0.038 C
HETATM   10  C6  UNL     1     -63.333  36.660 -43.957  1.00  0.00    -0.012 C
HETATM   11  C7  UNL     1     -63.569  37.510 -45.157  1.00  0.00     0.010 C
HETATM   12  C13 UNL     1     -63.003  37.631 -42.862  1.00  0.00     0.010 C
HETATM   13  C8  UNL     1     -64.308  38.713 -44.588  1.00  0.00    -0.010 C
HETATM   14  C9  UNL     1     -65.780  38.361 -44.759  1.00  0.00     0.011 C
HETATM   15  C12 UNL     1     -64.029  38.728 -43.114  1.00  0.00    -0.010 C
HETATM   16  C10 UNL     1     -66.039  37.592 -43.500  1.00  0.00     0.017 C
HETATM   17  C11 UNL     1     -65.281  38.280 -42.405  1.00  0.00     0.011 C
ENDBRANCH   5   8
ENDBRANCH   2   5
TORSDOF 2
ENDMDL