MODEL 2
REMARK VINA RESULT: -4.455699381      2.480      4.010
REMARK  3 active torsions:
REMARK  status: ('A' for Active; 'I' for Inactive)
REMARK    1  A    between atoms: C2_2  and  N1_4
REMARK    2  A    between atoms: C2_2  and  C4_8
REMARK    3  A    between atoms: C4_8  and  N2_9
ROOT
HETATM    1  N2  UNL     1     -63.852  37.940 -44.435  1.00  0.00     0.090 N
HETATM    2  C5  UNL     1     -63.398  36.764 -43.818  1.00  0.00     0.272 C
HETATM    3  C6  UNL     1     -64.398  35.609 -43.782  1.00  0.00     0.030 C
HETATM    4  C7  UNL     1     -65.795  35.997 -43.533  1.00  0.00     0.002 C
HETATM    5  C8  UNL     1     -66.802  35.656 -44.576  1.00  0.00     0.000 C
HETATM    6  C9  UNL     1     -66.320  35.212 -45.902  1.00  0.00     0.000 C
HETATM    7  C10 UNL     1     -65.559  36.118 -46.760  1.00  0.00     0.002 C
HETATM    8  C11 UNL     1     -65.367  37.518 -46.340  1.00  0.00     0.030 C
HETATM    9  C12 UNL     1     -63.933  37.775 -45.873  1.00  0.00     0.272 C
ENDROOT
BRANCH   1  10
HETATM   10  C4  UNL     1     -63.101  39.084 -44.139  1.00  0.00     0.309 C
BRANCH  10  11
HETATM   11  C2  UNL     1     -63.573  40.153 -43.264  1.00  0.00     0.142 C
HETATM   12  C1  UNL     1     -65.131  40.046 -43.235  1.00  0.00     0.047 C
HETATM   13  C3  UNL     1     -63.193  39.840 -41.798  1.00  0.00     0.047 C
BRANCH  11  14
HETATM   14  N1  UNL     1     -63.283  41.500 -43.506  1.00  0.00    -0.069 N
ATOM     15  H13 UNL     1     -62.471  41.639 -44.108  1.00  0.00     0.275 HD
ATOM     16  H12 UNL     1     -63.964  41.961 -44.109  1.00  0.00     0.275 HD
ATOM     17  H11 UNL     1     -63.190  41.938 -42.589  1.00  0.00     0.275 HD
ENDBRANCH  11  14
ENDBRANCH  10  11
ENDBRANCH   1  10
TORSDOF 3
ENDMDL