MODEL 2
REMARK VINA RESULT: -4.551317618      1.154      1.537
REMARK  4 active torsions:
REMARK  status: ('A' for Active; 'I' for Inactive)
REMARK    1  A    between atoms: N1_1  and  C1_5
REMARK    2  A    between atoms: C1_5  and  C2_6
REMARK    3  A    between atoms: C5_9  and  O1_10
REMARK    4  A    between atoms: O1_10  and  C6_11
ROOT
HETATM    1  C2  UNL     1     -63.860  37.543 -44.439  1.00  0.00    -0.013 A
HETATM    2  C3  UNL     1     -65.319  37.401 -44.736  1.00  0.00     0.014 C
HETATM    3  C4  UNL     1     -65.521  37.082 -46.222  1.00  0.00     0.033 C
HETATM    4  C5  UNL     1     -65.022  38.295 -46.975  1.00  0.00     0.122 C
HETATM    5  C10 UNL     1     -63.591  38.597 -46.713  1.00  0.00     0.037 C
HETATM    6  C11 UNL     1     -63.008  38.044 -45.485  1.00  0.00    -0.001 A
HETATM    7  C12 UNL     1     -63.246  38.886 -44.220  1.00  0.00     0.017 A
ENDROOT
BRANCH   1   8
HETATM    8  C1  UNL     1     -63.305  36.435 -43.547  1.00  0.00     0.239 C
BRANCH   8   9
HETATM    9  N1  UNL     1     -64.392  35.642 -43.060  1.00  0.00    -0.079 N
ATOM     10  H13 UNL     1     -64.127  34.668 -42.912  1.00  0.00     0.274 HD
ATOM     11  H12 UNL     1     -64.639  35.871 -42.097  1.00  0.00     0.274 HD
ATOM     12  H11 UNL     1     -65.184  35.736 -43.696  1.00  0.00     0.274 HD
ENDBRANCH   8   9
ENDBRANCH   1   8
BRANCH   4  13
HETATM   13  O1  UNL     1     -65.214  38.199 -48.331  1.00  0.00    -0.381 OA
BRANCH  13  14
HETATM   14  C6  UNL     1     -64.138  37.753 -49.046  1.00  0.00     0.122 C
HETATM   15  C7  UNL     1     -64.201  38.311 -50.473  1.00  0.00     0.032 C
HETATM   16  C8  UNL     1     -63.744  36.963 -50.962  1.00  0.00     0.005 C
HETATM   17  C9  UNL     1     -64.270  36.377 -49.658  1.00  0.00     0.032 C
ENDBRANCH  13  14
ENDBRANCH   4  13
TORSDOF 4
ENDMDL