MODEL 1
REMARK VINA RESULT: -4.668931096      0.000      0.000
REMARK  3 active torsions:
REMARK  status: ('A' for Active; 'I' for Inactive)
REMARK    1  A    between atoms: C2_2  and  C3_3
REMARK    2  A    between atoms: C8_9  and  C9_10
REMARK    3  A    between atoms: C9_10  and  N1_11
ROOT
HETATM    1  C3  UNL     1     -65.260  35.775 -45.071  1.00  0.00    -0.006 C
HETATM    2  C4  UNL     1     -64.577  35.462 -43.737  1.00  0.00     0.031 C
HETATM    3  C5  UNL     1     -63.416  36.391 -43.488  1.00  0.00     0.169 C
HETATM    4  O1  UNL     1     -63.586  37.617 -44.147  1.00  0.00    -0.380 OA
HETATM    5  C6  UNL     1     -64.904  37.996 -44.151  1.00  0.00     0.065 C
HETATM    6  C7  UNL     1     -65.464  38.223 -42.784  1.00  0.00     0.044 C
HETATM    7  C8  UNL     1     -65.125  39.695 -42.940  1.00  0.00     0.017 C
HETATM    8  C10 UNL     1     -65.106  39.476 -44.430  1.00  0.00     0.044 C
HETATM    9  C11 UNL     1     -65.767  37.168 -45.085  1.00  0.00     0.020 C
HETATM   10  C12 UNL     1     -65.581  37.741 -46.474  1.00  0.00     0.013 C
ENDROOT
BRANCH   7  11
HETATM   11  C9  UNL     1     -66.216  40.632 -42.460  1.00  0.00     0.234 C
BRANCH  11  12
HETATM   12  N1  UNL     1     -65.751  41.431 -41.342  1.00  0.00    -0.079 N
ATOM     13  H13 UNL     1     -66.109  41.082 -40.452  1.00  0.00     0.274 HD
ATOM     14  H12 UNL     1     -64.754  41.296 -41.170  1.00  0.00     0.274 HD
ATOM     15  H11 UNL     1     -65.981  42.415 -41.482  1.00  0.00     0.274 HD
ENDBRANCH  11  12
ENDBRANCH   7  11
BRANCH   1  16
HETATM   16  C2  UNL     1     -66.260  34.714 -45.379  1.00  0.00     0.000 C
HETATM   17  C1  UNL     1     -65.792  33.321 -45.328  1.00  0.00     0.005 C
ENDBRANCH   1  16
TORSDOF 3
ENDMDL