MODEL 2
REMARK VINA RESULT: -4.564479255      1.699      4.415
REMARK  2 active torsions:
REMARK  status: ('A' for Active; 'I' for Inactive)
REMARK    1  A    between atoms: C2_2  and  C3_3
REMARK    2  A    between atoms: C3_3  and  N1_4
ROOT
HETATM    1  N1  UNL     1     -65.472  37.444 -44.456  1.00  0.00     0.116 N
HETATM    2  C4  UNL     1     -65.571  36.858 -45.686  1.00  0.00     0.229 C
HETATM    3  C5  UNL     1     -66.628  37.189 -46.671  1.00  0.00     0.036 C
HETATM    4  C6  UNL     1     -66.995  35.851 -47.309  1.00  0.00     0.002 C
HETATM    5  C7  UNL     1     -66.070  34.832 -46.631  1.00  0.00     0.007 C
HETATM    6  C8  UNL     1     -66.091  35.444 -45.277  1.00  0.00     0.022 C
HETATM    7  C9  UNL     1     -65.019  35.094 -44.339  1.00  0.00     0.064 C
HETATM    8  C10 UNL     1     -64.930  36.391 -43.562  1.00  0.00     0.243 C
HETATM    9  C11 UNL     1     -63.488  36.611 -43.240  1.00  0.00     0.066 C
HETATM   10  C12 UNL     1     -65.723  36.396 -42.366  1.00  0.00     0.101 C
HETATM   11  N2  UNL     1     -66.371  36.389 -41.405  1.00  0.00    -0.195 NA
ENDROOT
BRANCH   1  12
HETATM   12  C3  UNL     1     -64.820  38.614 -44.112  1.00  0.00     0.275 C
BRANCH  12  13
HETATM   13  C2  UNL     1     -65.496  39.803 -43.579  1.00  0.00     0.026 C
HETATM   14  C1  UNL     1     -64.855  40.460 -42.398  1.00  0.00     0.007 C
ENDBRANCH  12  13
ENDBRANCH   1  12
TORSDOF 2
ENDMDL