MODEL 1
REMARK VINA RESULT: -4.771915103      0.000      0.000
REMARK  3 active torsions:
REMARK  status: ('A' for Active; 'I' for Inactive)
REMARK    1  A    between atoms: C3_3  and  S1_6
REMARK    2  A    between atoms: S1_6  and  C6_7
REMARK    3  A    between atoms: C6_7  and  C7_8
ROOT
HETATM    1  C1  UNL     1     -66.003  31.954 -44.989  1.00  0.00     0.013 C
HETATM    2  C2  UNL     1     -66.121  33.145 -45.141  1.00  0.00    -0.097 C
HETATM    3  C3  UNL     1     -66.261  34.605 -45.341  1.00  0.00     0.063 C
HETATM    4  C4  UNL     1     -66.007  34.856 -46.827  1.00  0.00     0.040 C
HETATM    5  C5  UNL     1     -67.670  34.978 -44.975  1.00  0.00     0.040 C
ENDROOT
BRANCH   3   6
HETATM    6  S1  UNL     1     -65.009  35.504 -44.436  1.00  0.00    -0.146 SA
BRANCH   6   7
HETATM    7  C6  UNL     1     -64.479  37.032 -45.234  1.00  0.00     0.085 C
BRANCH   7   8
HETATM    8  C7  UNL     1     -63.443  37.656 -44.285  1.00  0.00     0.034 C
HETATM    9  C8  UNL     1     -64.069  37.471 -42.894  1.00  0.00     0.016 C
HETATM   10  C9  UNL     1     -63.043  38.059 -41.943  1.00  0.00     0.045 C
HETATM   11  C10 UNL     1     -63.005  39.532 -42.193  1.00  0.00     0.060 C
HETATM   12  N1  UNL     1     -63.015  39.963 -43.512  1.00  0.00    -0.382 N
HETATM   13  C11 UNL     1     -63.168  39.080 -44.574  1.00  0.00     0.065 C
ATOM     14  H1  UNL     1     -62.906  40.958 -43.708  1.00  0.00     0.164 HD
ENDBRANCH   7   8
ENDBRANCH   6   7
ENDBRANCH   3   6
TORSDOF 3
ENDMDL