MODEL 2
REMARK VINA RESULT: -4.073534838      0.144      1.182
REMARK  3 active torsions:
REMARK  status: ('A' for Active; 'I' for Inactive)
REMARK    1  A    between atoms: C2_2  and  N1_3
REMARK    2  A    between atoms: C2_2  and  C7_9
REMARK    3  A    between atoms: N1_3  and  C3_5
ROOT
HETATM    1  C1  UNL     1     -63.014  39.647 -46.366  1.00  0.00     0.032 C
HETATM    2  C2  UNL     1     -63.848  38.386 -46.120  1.00  0.00     0.078 C
ENDROOT
BRANCH   2   3
HETATM    3  N1  UNL     1     -63.315  37.493 -45.197  1.00  0.00    -0.410 N
ATOM      4  H1  UNL     1     -62.494  36.949 -45.463  1.00  0.00     0.154 HD
BRANCH   3   5
HETATM    5  C3  UNL     1     -63.853  37.306 -43.921  1.00  0.00     0.015 C
HETATM    6  C4  UNL     1     -65.198  38.005 -43.710  1.00  0.00     0.037 C
HETATM    7  C5  UNL     1     -64.123  35.800 -43.762  1.00  0.00     0.037 C
HETATM    8  C6  UNL     1     -63.003  37.696 -42.743  1.00  0.00     0.037 C
ENDBRANCH   3   5
ENDBRANCH   2   3
BRANCH   2   9
HETATM    9  C7  UNL     1     -63.942  37.683 -47.470  1.00  0.00     0.017 C
HETATM   10  C8  UNL     1     -63.796  38.673 -48.571  1.00  0.00     0.008 C
HETATM   11  C9  UNL     1     -64.210  38.253 -49.918  1.00  0.00     0.010 C
HETATM   12  C10 UNL     1     -64.132  36.791 -50.211  1.00  0.00     0.074 C
HETATM   13  S1  UNL     1     -65.252  35.918 -49.068  1.00  0.00    -0.169 SA
HETATM   14  C11 UNL     1     -65.191  36.871 -47.496  1.00  0.00     0.080 C
ENDBRANCH   2   9
TORSDOF 3
ENDMDL