MODEL 2
REMARK VINA RESULT: -4.364867150      2.592      3.599
REMARK  3 active torsions:
REMARK  status: ('A' for Active; 'I' for Inactive)
REMARK    1  A    between atoms: N1_1  and  C1_5
REMARK    2  A    between atoms: N2_8  and  C4_9
REMARK    3  A    between atoms: C4_9  and  C5_10
ROOT
HETATM    1  C1  UNL     1     -63.048  39.133 -42.518  1.00  0.00     0.186 C
HETATM    2  C2  UNL     1     -64.048  39.597 -43.563  1.00  0.00     0.063 C
HETATM    3  C3  UNL     1     -64.913  38.403 -43.987  1.00  0.00     0.274 C
HETATM    4  N2  UNL     1     -64.127  37.411 -44.664  1.00  0.00     0.088 N
HETATM    5  C11 UNL     1     -63.024  37.024 -43.857  1.00  0.00     0.274 C
HETATM    6  C12 UNL     1     -63.039  37.637 -42.479  1.00  0.00     0.063 C
ENDROOT
BRANCH   4   7
HETATM    7  C4  UNL     1     -63.735  37.765 -45.986  1.00  0.00     0.277 C
BRANCH   7   8
HETATM    8  C5  UNL     1     -64.919  37.952 -46.918  1.00  0.00     0.014 C
HETATM    9  C6  UNL     1     -64.787  39.187 -47.732  1.00  0.00     0.006 C
HETATM   10  C7  UNL     1     -63.946  39.070 -48.964  1.00  0.00     0.000 C
HETATM   11  C8  UNL     1     -64.493  37.898 -49.782  1.00  0.00     0.000 C
HETATM   12  C9  UNL     1     -64.213  36.658 -48.940  1.00  0.00     0.000 C
HETATM   13  C10 UNL     1     -65.151  36.710 -47.754  1.00  0.00     0.006 C
ENDBRANCH   7   8
ENDBRANCH   4   7
BRANCH   1  14
HETATM   14  N1  UNL     1     -63.413  39.733 -41.265  1.00  0.00    -0.075 N
ATOM     15  H13 UNL     1     -62.685  40.339 -40.889  1.00  0.00     0.274 HD
ATOM     16  H12 UNL     1     -64.142  40.440 -41.361  1.00  0.00     0.274 HD
ATOM     17  H11 UNL     1     -63.673  38.982 -40.625  1.00  0.00     0.274 HD
ENDBRANCH   1  14
TORSDOF 3
ENDMDL