MODEL 3
REMARK VINA RESULT: -8.285004186      1.934      3.844
REMARK  8 active torsions:
REMARK  status: ('A' for Active; 'I' for Inactive)
REMARK    1  A    between atoms: C2_2  and  C3_3
REMARK    2  A    between atoms: C3_3  and  C4_4
REMARK    3  A    between atoms: C4_4  and  C5_5
REMARK    4  A    between atoms: C4_4  and  C7_7
REMARK    5  A    between atoms: C9_9  and  C10_10
REMARK    6  A    between atoms: C11_12  and  O2_13
REMARK    7  A    between atoms: C18_23  and  O5_24
REMARK    8  A    between atoms: C20_28  and  O7_29
ROOT
HETATM    1  C10 UNL     1       2.557   4.807  34.165  1.00  0.00     0.112 A
HETATM    2  O1  UNL     1       3.060   5.436  35.189  1.00  0.00    -0.285 OA
HETATM    3  C11 UNL     1       3.088   4.645  36.220  1.00  0.00     0.193 A
HETATM    4  C12 UNL     1       2.575   3.424  35.863  1.00  0.00     0.046 A
HETATM    5  C13 UNL     1       2.224   3.510  34.532  1.00  0.00     0.115 A
HETATM    6  O3  UNL     1       1.689   2.262  34.130  1.00  0.00    -0.334 OA
HETATM    7  C14 UNL     1       1.071   1.789  35.305  1.00  0.00     0.215 C
HETATM    8  C15 UNL     1       0.798   0.368  35.390  1.00  0.00     0.192 C
HETATM    9  O4  UNL     1       0.649  -0.432  34.435  1.00  0.00    -0.289 OA
HETATM   10  C16 UNL     1       0.685  -0.196  36.742  1.00  0.00     0.050 A
HETATM   11  C17 UNL     1       0.220  -1.386  37.275  1.00  0.00     0.081 A
HETATM   12  C18 UNL     1       0.386  -1.324  38.653  1.00  0.00     0.184 A
HETATM   13  O6  UNL     1       0.926  -0.145  38.916  1.00  0.00    -0.289 OA
HETATM   14  C19 UNL     1       1.117   0.547  37.826  1.00  0.00     0.099 A
HETATM   15  C20 UNL     1       1.699   1.924  37.657  1.00  0.00     0.188 C
HETATM   16  C21 UNL     1       2.235   2.059  36.279  1.00  0.00     0.099 C
ENDROOT
BRANCH   1  17
HETATM   17  C9  UNL     1       2.366   5.375  32.829  1.00  0.00     0.043 C
HETATM   18  C7  UNL     1       1.237   5.526  32.207  1.00  0.00    -0.077 C
HETATM   19  C8  UNL     1      -0.063   5.110  32.773  1.00  0.00     0.044 C
BRANCH  18  20
HETATM   20  C4  UNL     1       1.213   6.136  30.819  1.00  0.00     0.014 C
BRANCH  20  21
HETATM   21  C3  UNL     1      -0.105   5.815  30.239  1.00  0.00     0.009 C
BRANCH  21  22
HETATM   22  C2  UNL     1      -0.911   6.896  29.630  1.00  0.00    -0.004 C
HETATM   23  C1  UNL     1      -2.273   6.909  30.367  1.00  0.00     0.005 C
ENDBRANCH  21  22
ENDBRANCH  20  21
BRANCH  20  24
HETATM   24  C5  UNL     1       2.438   5.784  30.068  1.00  0.00     0.005 C
HETATM   25  C6  UNL     1       2.449   6.125  28.614  1.00  0.00     0.006 C
ENDBRANCH  20  24
ENDBRANCH  18  20
ENDBRANCH   1  17
BRANCH   3  26
HETATM   26  O2  UNL     1       3.553   4.939  37.505  1.00  0.00    -0.340 OA
ATOM     27  H2  UNL     1       3.948   4.341  38.128  1.00  0.00     0.220 HD
ENDBRANCH   3  26
BRANCH  15  28
HETATM   28  O7  UNL     1       2.792   1.989  38.538  1.00  0.00    -0.388 OA
ATOM     29  H7  UNL     1       2.775   2.864  38.907  1.00  0.00     0.210 HD
ENDBRANCH  15  28
BRANCH  12  30
HETATM   30  O5  UNL     1       0.034  -2.331  39.512  1.00  0.00    -0.341 OA
ATOM     31  H5  UNL     1       0.010  -2.238  40.456  1.00  0.00     0.220 HD
ENDBRANCH  12  30
TORSDOF 8
ENDMDL