MODEL 5
REMARK VINA RESULT: -5.616238928      3.892      7.996
REMARK  8 active torsions:
REMARK  status: ('A' for Active; 'I' for Inactive)
REMARK    1  A    between atoms: O1_2  and  C2_3
REMARK    2  A    between atoms: C4_5  and  C5_6
REMARK    3  A    between atoms: C6_7  and  C7_8
REMARK    4  A    between atoms: C12_14  and  C13_15
REMARK    5  A    between atoms: N2_19  and  C17_20
REMARK    6  A    between atoms: N3_21  and  O2_23
REMARK    7  A    between atoms: C19_26  and  O3_27
REMARK    8  A    between atoms: C21_29  and  O4_30
ROOT
HETATM    1  C5  UNL     1      -1.176  -2.866  34.267  1.00  0.00     0.059 A
HETATM    2  C6  UNL     1      -0.401  -3.395  33.218  1.00  0.00    -0.004 A
HETATM    3  C10 UNL     1      -1.278  -3.733  32.242  1.00  0.00     0.077 A
HETATM    4  C11 UNL     1      -0.996  -4.276  30.938  1.00  0.00     0.102 C
HETATM    5  N1  UNL     1      -0.769  -4.720  29.861  1.00  0.00    -0.191 NA
HETATM    6  C12 UNL     1      -2.609  -3.439  32.678  1.00  0.00     0.043 A
HETATM    7  N2  UNL     1      -2.483  -2.923  33.890  1.00  0.00    -0.307 N
ENDROOT
BRANCH   2   8
HETATM    8  C7  UNL     1       1.066  -3.697  33.314  1.00  0.00     0.014 C
HETATM    9  C8  UNL     1       1.846  -3.117  32.119  1.00  0.00     0.015 C
HETATM   10  C9  UNL     1       1.215  -5.225  33.065  1.00  0.00     0.015 C
ENDBRANCH   2   8
BRANCH   6  11
HETATM   11  C13 UNL     1      -3.734  -3.633  31.793  1.00  0.00     0.038 C
HETATM   12  C14 UNL     1      -4.122  -5.036  31.323  1.00  0.00     0.011 C
HETATM   13  C15 UNL     1      -5.573  -4.411  31.263  1.00  0.00     0.001 C
HETATM   14  C16 UNL     1      -5.080  -3.818  32.634  1.00  0.00     0.011 C
ENDBRANCH   6  11
BRANCH   1  15
HETATM   15  C4  UNL     1      -0.630  -2.205  35.448  1.00  0.00    -0.003 A
HETATM   16  C3  UNL     1      -0.584  -2.865  36.673  1.00  0.00     0.053 A
HETATM   17  C2  UNL     1      -0.150  -2.241  37.850  1.00  0.00     0.104 A
HETATM   18  C21 UNL     1       0.242  -0.943  37.775  1.00  0.00     0.133 A
HETATM   19  C19 UNL     1       0.221  -0.217  36.568  1.00  0.00     0.104 A
HETATM   20  C18 UNL     1      -0.219  -0.877  35.459  1.00  0.00     0.053 A
BRANCH  17  21
HETATM   21  O1  UNL     1      -0.131  -2.947  39.036  1.00  0.00    -0.353 OA
HETATM   22  C1  UNL     1      -0.851  -4.178  39.148  1.00  0.00     0.210 C
ENDBRANCH  17  21
BRANCH  18  23
HETATM   23  O4  UNL     1       0.697  -0.230  38.895  1.00  0.00    -0.356 OA
ATOM     24  H4  UNL     1       1.619  -0.065  39.053  1.00  0.00     0.218 HD
ENDBRANCH  18  23
BRANCH  19  25
HETATM   25  O3  UNL     1       0.631   1.080  36.548  1.00  0.00    -0.353 OA
HETATM   26  C20 UNL     1       1.685   1.710  35.927  1.00  0.00     0.210 C
ENDBRANCH  19  25
ENDBRANCH   1  15
BRANCH   7  27
HETATM   27  C17 UNL     1      -3.496  -2.388  34.754  1.00  0.00     0.212 C
HETATM   28  N3  UNL     1      -3.856  -1.128  34.586  1.00  0.00    -0.264 N
ATOM     29  H3  UNL     1      -3.424  -0.554  33.862  1.00  0.00     0.194 HD
BRANCH  28  30
HETATM   30  O2  UNL     1      -4.842  -0.600  35.422  1.00  0.00    -0.289 OA
ATOM     31  H2  UNL     1      -5.401   0.090  35.084  1.00  0.00     0.244 HD
ENDBRANCH  28  30
ENDBRANCH   7  27
TORSDOF 8
ENDMDL