MODEL 1
REMARK VINA RESULT: -8.439017203      0.000      0.000
REMARK  9 active torsions:
REMARK  status: ('A' for Active; 'I' for Inactive)
REMARK    1  A    between atoms: C2_2  and  C3_3
REMARK    2  A    between atoms: C3_3  and  C4_4
REMARK    3  A    between atoms: C5_5  and  C6_6
REMARK    4  A    between atoms: C7_7  and  O1_8
REMARK    5  A    between atoms: C8_10  and  C9_11
REMARK    6  A    between atoms: N1_12  and  C10_14
REMARK    7  A    between atoms: C10_14  and  C11_15
REMARK    8  A    between atoms: C16_22  and  O4_23
REMARK    9  A    between atoms: C22_30  and  O5_31
ROOT
HETATM    1  C6  UNL     1       2.286   3.979  34.766  1.00  0.00     0.033 A
HETATM    2  C7  UNL     1       3.022   4.729  35.751  1.00  0.00     0.093 A
HETATM    3  C8  UNL     1       3.156   4.311  37.003  1.00  0.00     0.048 A
HETATM    4  C14 UNL     1       2.531   3.091  37.383  1.00  0.00     0.107 A
HETATM    5  O2  UNL     1       2.690   2.767  38.680  1.00  0.00    -0.271 OA
HETATM    6  C15 UNL     1       2.161   1.708  39.141  1.00  0.00     0.322 A
HETATM    7  O3  UNL     1       2.281   1.360  40.349  1.00  0.00    -0.257 OA
HETATM    8  C16 UNL     1       1.434   0.929  38.258  1.00  0.00     0.153 A
HETATM    9  C17 UNL     1       1.206   1.176  36.882  1.00  0.00     0.021 A
HETATM   10  C18 UNL     1       0.429   0.208  36.181  1.00  0.00    -0.073 C
HETATM   11  C19 UNL     1       0.443  -0.342  34.835  1.00  0.00     0.044 C
HETATM   12  C20 UNL     1      -1.010   0.055  36.771  1.00  0.00     0.044 C
HETATM   13  C21 UNL     1       1.813   2.343  36.483  1.00  0.00     0.046 A
HETATM   14  C22 UNL     1       1.694   2.795  35.166  1.00  0.00     0.092 A
ENDROOT
BRANCH   3  15
HETATM   15  C9  UNL     1       4.199   4.811  37.943  1.00  0.00     0.104 C
HETATM   16  N1  UNL     1       4.579   5.905  38.320  1.00  0.00    -0.378 N
ATOM     17  H1  UNL     1       5.328   5.702  38.981  1.00  0.00     0.164 HD
BRANCH  16  18
HETATM   18  C10 UNL     1       4.501   7.272  38.297  1.00  0.00     0.064 C
BRANCH  18  19
HETATM   19  C11 UNL     1       5.754   8.013  37.838  1.00  0.00     0.016 C
HETATM   20  C12 UNL     1       6.670   8.038  39.077  1.00  0.00     0.015 C
HETATM   21  C13 UNL     1       6.458   7.188  36.791  1.00  0.00     0.015 C
ENDBRANCH  18  19
ENDBRANCH  16  18
ENDBRANCH   3  15
BRANCH   2  22
HETATM   22  O1  UNL     1       3.541   5.917  35.274  1.00  0.00    -0.359 OA
ATOM     23  H1  UNL     1       3.656   6.581  35.943  1.00  0.00     0.217 HD
ENDBRANCH   2  22
BRANCH   1  24
HETATM   24  C5  UNL     1       2.197   4.586  33.497  1.00  0.00     0.025 C
HETATM   25  C4  UNL     1       1.321   5.103  32.647  1.00  0.00     0.051 C
BRANCH  25  26
HETATM   26  C3  UNL     1       1.977   5.603  31.392  1.00  0.00    -0.156 C
BRANCH  26  27
HETATM   27  C2  UNL     1       2.464   5.941  30.409  1.00  0.00     0.080 C
HETATM   28  C1  UNL     1       1.318   6.096  29.238  1.00  0.00     0.017 C
ENDBRANCH  26  27
ENDBRANCH  25  26
ENDBRANCH   1  24
BRANCH  14  29
HETATM   29  O5  UNL     1       0.977   2.063  34.288  1.00  0.00    -0.359 OA
ATOM     30  H5  UNL     1       0.350   1.421  34.599  1.00  0.00     0.217 HD
ENDBRANCH  14  29
BRANCH   8  31
HETATM   31  O4  UNL     1       0.858  -0.246  38.804  1.00  0.00    -0.355 OA
ATOM     32  H4  UNL     1       0.668  -0.939  38.183  1.00  0.00     0.218 HD
ENDBRANCH   8  31
TORSDOF 9
ENDMDL