MODEL 1
REMARK VINA RESULT: -5.819833213      0.000      0.000
REMARK  8 active torsions:
REMARK  status: ('A' for Active; 'I' for Inactive)
REMARK    1  A    between atoms: C2_2  and  C3_3
REMARK    2  A    between atoms: C3_3  and  C4_4
REMARK    3  A    between atoms: C8_8  and  O1_9
REMARK    4  A    between atoms: C9_12  and  C10_13
REMARK    5  A    between atoms: C13_20  and  C14_21
REMARK    6  A    between atoms: C15_22  and  O4_23
REMARK    7  A    between atoms: C18_26  and  O5_27
REMARK    8  A    between atoms: C20_30  and  O6_31
ROOT
HETATM    1  C4  UNL     1      -4.655   8.402  31.695  1.00  0.00    -0.017 C
HETATM    2  C5  UNL     1      -3.482   7.791  31.798  1.00  0.00    -0.045 A
HETATM    3  C6  UNL     1      -2.687   7.610  30.555  1.00  0.00     0.083 A
HETATM    4  C7  UNL     1      -1.415   6.916  30.780  1.00  0.00     0.040 A
HETATM    5  C8  UNL     1      -0.443   6.543  29.900  1.00  0.00     0.193 A
HETATM    6  O2  UNL     1       0.522   5.945  30.551  1.00  0.00    -0.283 OA
HETATM    7  C9  UNL     1       0.236   5.903  31.825  1.00  0.00     0.134 A
HETATM    8  C12 UNL     1      -0.986   6.508  32.020  1.00  0.00     0.117 A
HETATM    9  O3  UNL     1      -1.763   6.748  33.121  1.00  0.00    -0.333 OA
HETATM   10  C13 UNL     1      -3.037   7.331  33.124  1.00  0.00     0.197 A
ENDROOT
BRANCH  10  11
HETATM   11  C14 UNL     1      -3.136   8.417  34.162  1.00  0.00     0.042 A
HETATM   12  C15 UNL     1      -4.217   8.486  35.015  1.00  0.00     0.082 A
HETATM   13  C17 UNL     1      -4.285   9.486  35.954  1.00  0.00     0.074 A
HETATM   14  C18 UNL     1      -3.287  10.449  36.079  1.00  0.00     0.071 A
HETATM   15  C19 UNL     1      -2.212  10.383  35.230  1.00  0.00     0.074 A
HETATM   16  C20 UNL     1      -2.134   9.371  34.274  1.00  0.00     0.082 A
BRANCH  12  17
HETATM   17  O4  UNL     1      -5.239   7.551  34.934  1.00  0.00    -0.355 OA
HETATM   18  C16 UNL     1      -6.598   7.941  34.975  1.00  0.00     0.210 C
ENDBRANCH  12  17
BRANCH  14  19
HETATM   19  O5  UNL     1      -3.329  11.470  37.016  1.00  0.00    -0.361 OA
ATOM     20  H5  UNL     1      -2.630  12.103  37.128  1.00  0.00     0.217 HD
ENDBRANCH  14  19
BRANCH  16  21
HETATM   21  O6  UNL     1      -1.040   9.318  33.425  1.00  0.00    -0.355 OA
HETATM   22  C21 UNL     1      -0.947  10.194  32.324  1.00  0.00     0.210 C
ENDBRANCH  16  21
ENDBRANCH  10  11
BRANCH   1  23
HETATM   23  C3  UNL     1      -5.178   8.898  30.393  1.00  0.00     0.053 C
BRANCH  23  24
HETATM   24  C2  UNL     1      -6.645   8.718  30.283  1.00  0.00    -0.033 C
HETATM   25  C1  UNL     1      -7.414   8.241  31.250  1.00  0.00     0.007 C
ENDBRANCH  23  24
ENDBRANCH   1  23
BRANCH   7  26
HETATM   26  C10 UNL     1       1.081   5.312  32.844  1.00  0.00     0.036 C
HETATM   27  C11 UNL     1       2.542   5.544  32.849  1.00  0.00     0.070 C
HETATM   28  N1  UNL     1       0.582   4.572  33.770  1.00  0.00    -0.400 N
ATOM     29  H12 UNL     1      -0.426   4.412  33.766  1.00  0.00     0.156 HD
ATOM     30  H11 UNL     1       1.176   4.156  34.487  1.00  0.00     0.156 HD
ENDBRANCH   7  26
BRANCH   5  31
HETATM   31  O1  UNL     1      -0.443   6.749  28.521  1.00  0.00    -0.340 OA
ATOM     32  H1  UNL     1      -0.140   6.143  27.857  1.00  0.00     0.220 HD
ENDBRANCH   5  31
TORSDOF 8
ENDMDL