MODEL 4
REMARK VINA RESULT: -8.392358701      4.022      8.796
REMARK  8 active torsions:
REMARK  status: ('A' for Active; 'I' for Inactive)
REMARK    1  A    between atoms: C2_2  and  O1_3
REMARK    2  A    between atoms: C2_2  and  C3_5
REMARK    3  A    between atoms: C6_10  and  C7_11
REMARK    4  A    between atoms: C9_13  and  C10_14
REMARK    5  A    between atoms: C13_17  and  O2_18
REMARK    6  A    between atoms: O2_18  and  C14_19
REMARK    7  A    between atoms: C14_19  and  C15_20
REMARK    8  A    between atoms: C21_29  and  O5_30
ROOT
HETATM    1  C7  UNL     1      -2.385   7.624  33.317  1.00  0.00     0.093 A
HETATM    2  C8  UNL     1      -2.581   7.326  31.999  1.00  0.00     0.050 A
HETATM    3  C9  UNL     1      -1.517   6.552  31.522  1.00  0.00     0.007 A
HETATM    4  C13 UNL     1      -0.681   6.414  32.637  1.00  0.00     0.192 A
HETATM    5  O4  UNL     1      -1.240   7.060  33.651  1.00  0.00    -0.287 OA
ENDROOT
BRANCH   1   6
HETATM    6  C6  UNL     1      -3.206   8.409  34.251  1.00  0.00     0.047 A
HETATM    7  C5  UNL     1      -4.516   7.944  34.462  1.00  0.00     0.104 A
HETATM    8  N1  UNL     1      -5.389   8.551  35.252  1.00  0.00    -0.374 N
HETATM    9  C4  UNL     1      -5.041   9.673  35.901  1.00  0.00     0.100 A
ATOM     10  H1  UNL     1      -6.326   8.165  35.367  1.00  0.00     0.164 HD
HETATM   11  C3  UNL     1      -3.795  10.182  35.745  1.00  0.00     0.019 A
HETATM   12  C21 UNL     1      -2.850   9.535  34.894  1.00  0.00     0.090 A
BRANCH  11  13
HETATM   13  C2  UNL     1      -3.347  11.419  36.427  1.00  0.00     0.151 C
HETATM   14  C1  UNL     1      -4.002  12.623  35.765  1.00  0.00     0.044 C
BRANCH  13  15
HETATM   15  O1  UNL     1      -3.660  11.326  37.781  1.00  0.00    -0.391 OA
ATOM     16  H1  UNL     1      -2.936  10.989  38.294  1.00  0.00     0.210 HD
ENDBRANCH  13  15
ENDBRANCH  11  13
BRANCH  12  17
HETATM   17  O5  UNL     1      -1.633  10.101  34.777  1.00  0.00    -0.359 OA
ATOM     18  H5  UNL     1      -0.914   9.539  34.512  1.00  0.00     0.217 HD
ENDBRANCH  12  17
ENDBRANCH   1   6
BRANCH   3  19
HETATM   19  C10 UNL     1      -1.333   6.004  30.158  1.00  0.00     0.023 A
HETATM   20  C11 UNL     1      -1.152   7.025  29.025  1.00  0.00     0.010 A
HETATM   21  C12 UNL     1       0.023   6.234  29.483  1.00  0.00     0.010 A
ENDBRANCH   3  19
BRANCH   4  22
HETATM   22  O2  UNL     1       0.467   5.775  32.732  1.00  0.00    -0.327 OA
BRANCH  22  23
HETATM   23  C14 UNL     1       1.669   5.349  32.789  1.00  0.00     0.211 C
BRANCH  23  24
HETATM   24  C15 UNL     1       1.947   4.281  33.873  1.00  0.00     0.171 C
HETATM   25  C16 UNL     1       3.354   4.482  34.370  1.00  0.00     0.038 C
HETATM   26  C17 UNL     1       3.448   5.217  35.672  1.00  0.00     0.031 C
HETATM   27  C18 UNL     1       2.358   4.718  36.593  1.00  0.00     0.050 C
HETATM   28  C19 UNL     1       2.339   5.441  37.906  1.00  0.00     0.036 C
HETATM   29  C20 UNL     1       2.429   3.235  36.799  1.00  0.00     0.036 C
HETATM   30  N2  UNL     1       1.106   5.024  35.884  1.00  0.00    -0.091 NA
HETATM   31  O3  UNL     1       0.999   4.235  34.833  1.00  0.00    -0.278 OA
ENDBRANCH  23  24
ENDBRANCH  22  23
ENDBRANCH   4  22
TORSDOF 8
ENDMDL