MODEL 4
REMARK VINA RESULT: -8.431112605      3.245      8.536
REMARK  9 active torsions:
REMARK  status: ('A' for Active; 'I' for Inactive)
REMARK    1  A    between atoms: O1_1  and  C1_3
REMARK    2  A    between atoms: C5_7  and  C6_8
REMARK    3  A    between atoms: C6_8  and  N1_9
REMARK    4  A    between atoms: C6_8  and  C16_28
REMARK    5  A    between atoms: N2_11  and  C7_13
REMARK    6  A    between atoms: C9_15  and  O2_16
REMARK    7  A    between atoms: N3_18  and  C10_19
REMARK    8  A    between atoms: C10_19  and  N4_20
REMARK    9  A    between atoms: C15_25  and  O3_26
ROOT
HETATM    1  N1  UNL     1      -2.407   8.864  31.306  1.00  0.00    -0.326 N
ATOM      2  H1  UNL     1      -2.576   9.852  31.118  1.00  0.00     0.181 HD
HETATM    3  N2  UNL     1      -1.456   8.322  30.709  1.00  0.00    -0.300 N
ATOM      4  H2  UNL     1      -0.920   8.914  30.075  1.00  0.00     0.186 HD
ENDROOT
BRANCH   1   5
HETATM    5  C6  UNL     1      -3.292   8.207  32.246  1.00  0.00     0.136 C
BRANCH   5   6
HETATM    6  C5  UNL     1      -2.832   8.492  33.607  1.00  0.00    -0.031 A
HETATM    7  C4  UNL     1      -2.256   7.514  34.385  1.00  0.00     0.009 A
HETATM    8  C3  UNL     1      -1.820   7.756  35.651  1.00  0.00     0.003 A
HETATM    9  C2  UNL     1      -1.938   9.009  36.221  1.00  0.00     0.036 A
HETATM   10  C1  UNL     1      -2.521   9.983  35.429  1.00  0.00     0.066 A
HETATM   11  C22 UNL     1      -2.965   9.752  34.149  1.00  0.00     0.045 A
BRANCH  10  12
HETATM   12  O1  UNL     1      -2.658  11.271  35.976  1.00  0.00    -0.361 OA
ATOM     13  H1  UNL     1      -2.294  11.998  35.485  1.00  0.00     0.217 HD
ENDBRANCH  10  12
ENDBRANCH   5   6
BRANCH   5  14
HETATM   14  C16 UNL     1      -4.696   8.693  31.960  1.00  0.00     0.014 C
HETATM   15  C17 UNL     1      -5.710   8.173  32.945  1.00  0.00     0.007 C
HETATM   16  C18 UNL     1      -6.999   8.940  32.696  1.00  0.00     0.000 C
HETATM   17  C19 UNL     1      -7.450   8.530  31.287  1.00  0.00     0.000 C
HETATM   18  C20 UNL     1      -6.440   9.078  30.312  1.00  0.00     0.000 C
HETATM   19  C21 UNL     1      -5.117   8.363  30.536  1.00  0.00     0.007 C
ENDBRANCH   5  14
ENDBRANCH   1   5
BRANCH   3  20
HETATM   20  C7  UNL     1      -1.045   6.985  30.815  1.00  0.00     0.103 A
HETATM   21  C8  UNL     1      -1.733   5.919  30.280  1.00  0.00     0.091 A
HETATM   22  C9  UNL     1      -1.062   4.757  30.565  1.00  0.00     0.147 A
HETATM   23  N3  UNL     1       0.033   5.103  31.272  1.00  0.00    -0.279 N
HETATM   24  C15 UNL     1       0.058   6.434  31.431  1.00  0.00     0.174 A
BRANCH  22  25
HETATM   25  O2  UNL     1      -1.436   3.449  30.196  1.00  0.00    -0.346 OA
ATOM     26  H2  UNL     1      -0.947   2.649  30.351  1.00  0.00     0.219 HD
ENDBRANCH  22  25
BRANCH  23  27
HETATM   27  C10 UNL     1       1.017   4.126  31.755  1.00  0.00     0.406 C
BRANCH  27  28
HETATM   28  N4  UNL     1       0.966   3.982  33.175  1.00  0.00     0.106 N
HETATM   29  C11 UNL     1       0.993   2.583  33.588  1.00  0.00     0.274 C
HETATM   30  C12 UNL     1       1.113   2.723  35.087  1.00  0.00     0.032 C
HETATM   31  C13 UNL     1       2.070   3.868  35.251  1.00  0.00     0.032 C
HETATM   32  C14 UNL     1       2.136   4.519  33.858  1.00  0.00     0.274 C
ENDBRANCH  27  28
ENDBRANCH  23  27
BRANCH  24  33
HETATM   33  O3  UNL     1       1.002   7.217  32.091  1.00  0.00    -0.344 OA
ATOM     34  H3  UNL     1       1.874   7.355  31.742  1.00  0.00     0.219 HD
ENDBRANCH  24  33
ENDBRANCH   3  20
TORSDOF 9
ENDMDL