MODEL 5
REMARK VINA RESULT: -7.575203189      0.847      1.124
REMARK  9 active torsions:
REMARK  status: ('A' for Active; 'I' for Inactive)
REMARK    1  A    between atoms: O1_2  and  C2_3
REMARK    2  A    between atoms: C4_5  and  O2_6
REMARK    3  A    between atoms: C6_9  and  O3_10
REMARK    4  A    between atoms: C7_12  and  C8_13
REMARK    5  A    between atoms: C8_13  and  C9_14
REMARK    6  A    between atoms: C10_15  and  C12_17
REMARK    7  A    between atoms: C12_17  and  C13_18
REMARK    8  A    between atoms: C19_25  and  O4_26
REMARK    9  A    between atoms: C21_29  and  O5_30
ROOT
HETATM    1  C2  UNL     1       3.142   4.179  38.135  1.00  0.00     0.105 A
HETATM    2  C3  UNL     1       2.725   4.487  36.886  1.00  0.00     0.077 A
HETATM    3  C4  UNL     1       1.918   3.602  36.116  1.00  0.00     0.082 A
HETATM    4  C5  UNL     1       1.574   2.401  36.711  1.00  0.00     0.047 A
HETATM    5  C6  UNL     1       0.783   1.486  36.047  1.00  0.00     0.087 A
HETATM    6  C7  UNL     1       0.405   0.266  36.628  1.00  0.00     0.003 A
HETATM    7  C17 UNL     1       0.839  -0.028  37.907  1.00  0.00     0.088 A
HETATM    8  C18 UNL     1       0.486  -1.261  38.558  1.00  0.00     0.103 C
HETATM    9  N1  UNL     1       0.217  -2.259  39.086  1.00  0.00    -0.191 NA
HETATM   10  C19 UNL     1       1.628   0.881  38.571  1.00  0.00     0.101 A
HETATM   11  C20 UNL     1       2.019   2.096  38.019  1.00  0.00     0.051 A
HETATM   12  C21 UNL     1       2.794   2.969  38.725  1.00  0.00     0.115 A
ENDROOT
BRANCH   6  13
HETATM   13  C8  UNL     1      -0.416  -0.699  35.882  1.00  0.00     0.070 C
BRANCH  13  14
HETATM   14  C9  UNL     1      -1.814  -0.770  36.153  1.00  0.00    -0.019 C
HETATM   15  C10 UNL     1      -2.814  -1.326  35.574  1.00  0.00    -0.084 C
HETATM   16  C11 UNL     1      -2.919  -2.142  34.354  1.00  0.00     0.043 C
BRANCH  15  17
HETATM   17  C12 UNL     1      -4.184  -1.129  36.268  1.00  0.00     0.060 C
BRANCH  17  18
HETATM   18  C13 UNL     1      -4.570   0.297  36.154  1.00  0.00    -0.020 C
HETATM   19  C14 UNL     1      -5.178   0.912  37.151  1.00  0.00    -0.091 C
HETATM   20  C15 UNL     1      -5.545   2.340  36.990  1.00  0.00     0.042 C
HETATM   21  C16 UNL     1      -5.472   0.150  38.392  1.00  0.00     0.042 C
ENDBRANCH  17  18
ENDBRANCH  15  17
ENDBRANCH  13  14
ENDBRANCH   6  13
BRANCH  10  22
HETATM   22  O4  UNL     1       2.070   0.598  39.867  1.00  0.00    -0.358 OA
ATOM     23  H4  UNL     1       2.709   1.166  40.280  1.00  0.00     0.217 HD
ENDBRANCH  10  22
BRANCH   5  24
HETATM   24  O3  UNL     1       0.339   1.749  34.771  1.00  0.00    -0.359 OA
ATOM     25  H3  UNL     1      -0.209   1.121  34.316  1.00  0.00     0.217 HD
ENDBRANCH   5  24
BRANCH  12  26
HETATM   26  O5  UNL     1       3.234   2.675  40.006  1.00  0.00    -0.352 OA
HETATM   27  C22 UNL     1       3.616   3.733  40.910  1.00  0.00     0.210 C
ENDBRANCH  12  26
BRANCH   3  28
HETATM   28  O2  UNL     1       1.543   3.961  34.895  1.00  0.00    -0.360 OA
ATOM     29  H2  UNL     1       0.881   3.451  34.442  1.00  0.00     0.217 HD
ENDBRANCH   3  28
BRANCH   1  30
HETATM   30  O1  UNL     1       3.928   5.049  38.875  1.00  0.00    -0.353 OA
HETATM   31  C1  UNL     1       4.278   6.292  38.301  1.00  0.00     0.210 C
ENDBRANCH   1  30
TORSDOF 9
ENDMDL