MODEL 1
REMARK VINA RESULT: -9.154919692      0.000      0.000
REMARK  10 active torsions:
REMARK  status: ('A' for Active; 'I' for Inactive)
REMARK    1  A    between atoms: C3_3  and  C5_5
REMARK    2  A    between atoms: C5_5  and  C6_6
REMARK    3  A    between atoms: C6_6  and  C7_7
REMARK    4  A    between atoms: C7_7  and  C8_8
REMARK    5  A    between atoms: C8_8  and  O1_9
REMARK    6  A    between atoms: C8_8  and  C9_11
REMARK    7  A    between atoms: C15_18  and  O3_19
REMARK    8  A    between atoms: C16_21  and  N1_22
REMARK    9  A    between atoms: N1_22  and  O4_24
REMARK   10  A    between atoms: C17_26  and  O5_27
ROOT
HETATM    1  C9  UNL     1       2.766   2.848  36.606  1.00  0.00     0.019 C
HETATM    2  C10 UNL     1       1.614   1.939  36.394  1.00  0.00     0.014 C
HETATM    3  C11 UNL     1       1.493   1.389  34.992  1.00  0.00     0.066 C
HETATM    4  C12 UNL     1       1.305   2.583  34.099  1.00  0.00     0.064 A
HETATM    5  O2  UNL     1       0.359   2.661  33.211  1.00  0.00    -0.313 OA
HETATM    6  C13 UNL     1       0.239   3.730  32.455  1.00  0.00     0.095 A
HETATM    7  C14 UNL     1      -0.758   3.836  31.503  1.00  0.00     0.077 A
HETATM    8  C15 UNL     1      -0.845   4.978  30.733  1.00  0.00     0.099 A
HETATM    9  C16 UNL     1       0.046   6.020  30.892  1.00  0.00     0.121 A
HETATM   10  C17 UNL     1       1.041   5.920  31.835  1.00  0.00     0.114 A
HETATM   11  C18 UNL     1       1.126   4.788  32.600  1.00  0.00     0.084 A
HETATM   12  C19 UNL     1       2.139   4.728  33.535  1.00  0.00     0.196 A
HETATM   13  O6  UNL     1       2.964   5.666  33.699  1.00  0.00    -0.287 OA
HETATM   14  C20 UNL     1       2.221   3.587  34.302  1.00  0.00     0.023 A
HETATM   15  C21 UNL     1       3.298   3.474  35.327  1.00  0.00     0.052 C
ENDROOT
BRANCH   1  16
HETATM   16  C8  UNL     1       2.501   3.963  37.569  1.00  0.00     0.122 C
BRANCH  16  17
HETATM   17  C7  UNL     1       3.447   4.052  38.714  1.00  0.00     0.032 C
BRANCH  17  18
HETATM   18  C6  UNL     1       4.041   5.433  38.890  1.00  0.00     0.007 C
BRANCH  18  19
HETATM   19  C5  UNL     1       4.357   6.077  37.558  1.00  0.00     0.033 C
BRANCH  19  20
HETATM   20  C3  UNL     1       5.582   6.901  37.721  1.00  0.00    -0.088 C
HETATM   21  C2  UNL     1       5.896   7.432  38.886  1.00  0.00    -0.029 C
HETATM   22  C1  UNL     1       7.120   8.250  39.026  1.00  0.00     0.036 C
HETATM   23  C4  UNL     1       6.473   7.141  36.564  1.00  0.00     0.043 C
ENDBRANCH  19  20
ENDBRANCH  18  19
ENDBRANCH  17  18
ENDBRANCH  16  17
BRANCH  16  24
HETATM   24  O1  UNL     1       1.203   3.913  38.094  1.00  0.00    -0.395 OA
ATOM     25  H1  UNL     1       0.608   3.747  37.373  1.00  0.00     0.210 HD
ENDBRANCH  16  24
ENDBRANCH   1  16
BRANCH  10  26
HETATM   26  O5  UNL     1       1.972   6.931  32.048  1.00  0.00    -0.357 OA
ATOM     27  H5  UNL     1       2.395   7.066  32.888  1.00  0.00     0.217 HD
ENDBRANCH  10  26
BRANCH   9  28
HETATM   28  N1  UNL     1      -0.028   7.203  30.106  1.00  0.00    -0.264 N
ATOM     29  H1  UNL     1       0.769   7.533  29.561  1.00  0.00     0.194 HD
BRANCH  28  30
HETATM   30  O4  UNL     1      -1.114   7.818  30.114  1.00  0.00    -0.289 OA
ATOM     31  H4  UNL     1      -1.147   8.622  30.618  1.00  0.00     0.244 HD
ENDBRANCH  28  30
ENDBRANCH   9  28
BRANCH   8  32
HETATM   32  O3  UNL     1      -1.842   5.096  29.776  1.00  0.00    -0.358 OA
ATOM     33  H3  UNL     1      -2.424   5.847  29.786  1.00  0.00     0.217 HD
ENDBRANCH   8  32
TORSDOF 10
ENDMDL