MODEL 3
REMARK VINA RESULT: -9.406572841      1.491      1.977
REMARK  9 active torsions:
REMARK  status: ('A' for Active; 'I' for Inactive)
REMARK    1  A    between atoms: O1_1  and  O2_3
REMARK    2  A    between atoms: O2_3  and  C1_4
REMARK    3  A    between atoms: C3_6  and  N1_7
REMARK    4  A    between atoms: C12_16  and  N2_17
REMARK    5  A    between atoms: N2_17  and  C13_19
REMARK    6  A    between atoms: C13_19  and  O3_20
REMARK    7  A    between atoms: C13_19  and  C14_22
REMARK    8  A    between atoms: C16_24  and  O4_25
REMARK    9  A    between atoms: N3_27  and  C17_28
ROOT
HETATM    1  N2  UNL     1       0.223   5.833  29.840  1.00  0.00    -0.358 N
ATOM      2  H2  UNL     1       0.161   5.165  29.072  1.00  0.00     0.162 HD
ENDROOT
BRANCH   1   3
HETATM    3  C12 UNL     1       0.692   5.363  31.068  1.00  0.00     0.067 A
HETATM    4  C1  UNL     1      -0.045   4.475  31.803  1.00  0.00     0.135 A
HETATM    5  C2  UNL     1       0.430   4.022  33.013  1.00  0.00     0.071 A
HETATM    6  C3  UNL     1       1.648   4.438  33.527  1.00  0.00     0.033 A
HETATM    7  C10 UNL     1       2.384   5.320  32.799  1.00  0.00     0.031 A
HETATM    8  C11 UNL     1       1.897   5.778  31.570  1.00  0.00     0.034 A
BRANCH   4   9
HETATM    9  O2  UNL     1      -1.264   4.020  31.352  1.00  0.00    -0.198 OA
BRANCH   9  10
HETATM   10  O1  UNL     1      -1.359   3.528  30.119  1.00  0.00    -0.245 OA
ATOM     11  H1  UNL     1      -0.568   3.381  29.615  1.00  0.00     0.254 HD
ENDBRANCH   9  10
ENDBRANCH   4   9
BRANCH   6  12
HETATM   12  N1  UNL     1       2.083   3.928  34.784  1.00  0.00    -0.381 N
HETATM   13  C4  UNL     1       3.003   2.836  34.833  1.00  0.00     0.123 C
HETATM   14  C5  UNL     1       2.143   1.579  35.032  1.00  0.00     0.020 C
HETATM   15  C6  UNL     1       1.202   1.869  36.183  1.00  0.00     0.002 C
HETATM   16  C7  UNL     1       1.888   2.526  37.334  1.00  0.00     0.002 C
HETATM   17  C8  UNL     1       2.026   4.006  37.245  1.00  0.00     0.020 C
HETATM   18  C9  UNL     1       1.508   4.606  35.952  1.00  0.00     0.123 C
ENDBRANCH   6  12
ENDBRANCH   1   3
BRANCH   1  19
HETATM   19  C13 UNL     1      -0.182   7.197  29.577  1.00  0.00     0.254 C
BRANCH  19  20
HETATM   20  O3  UNL     1      -0.579   7.250  28.241  1.00  0.00    -0.372 OA
ATOM     21  H3  UNL     1      -1.288   6.625  28.141  1.00  0.00     0.212 HD
ENDBRANCH  19  20
BRANCH  19  22
HETATM   22  C14 UNL     1      -1.291   7.631  30.467  1.00  0.00     0.009 A
HETATM   23  C15 UNL     1      -2.641   7.424  30.236  1.00  0.00     0.069 A
HETATM   24  C16 UNL     1      -3.338   7.985  31.312  1.00  0.00     0.142 A
HETATM   25  N3  UNL     1      -2.469   8.511  32.163  1.00  0.00    -0.333 N
HETATM   26  C22 UNL     1      -1.231   8.305  31.667  1.00  0.00     0.105 A
BRANCH  24  27
HETATM   27  O4  UNL     1      -4.713   7.980  31.444  1.00  0.00    -0.346 OA
ATOM     28  H4  UNL     1      -5.190   8.421  32.137  1.00  0.00     0.219 HD
ENDBRANCH  24  27
BRANCH  25  29
HETATM   29  C17 UNL     1      -2.749   9.194  33.415  1.00  0.00     0.091 C
HETATM   30  C18 UNL     1      -2.579   8.323  34.614  1.00  0.00     0.026 C
HETATM   31  C19 UNL     1      -1.922   9.191  35.689  1.00  0.00     0.002 C
HETATM   32  C20 UNL     1      -2.042  10.618  35.146  1.00  0.00     0.002 C
HETATM   33  C21 UNL     1      -1.833  10.347  33.658  1.00  0.00     0.026 C
ENDBRANCH  25  29
ENDBRANCH  19  22
ENDBRANCH   1  19
TORSDOF 9
ENDMDL