MODEL 3
REMARK VINA RESULT: -7.955733935      2.777      6.989
REMARK  9 active torsions:
REMARK  status: ('A' for Active; 'I' for Inactive)
REMARK    1  A    between atoms: C2_2  and  C3_3
REMARK    2  A    between atoms: C3_3  and  N1_4
REMARK    3  A    between atoms: C4_6  and  C5_7
REMARK    4  A    between atoms: C6_8  and  O1_9
REMARK    5  A    between atoms: C8_12  and  O2_13
REMARK    6  A    between atoms: C14_19  and  O3_20
REMARK    7  A    between atoms: C16_22  and  O4_23
REMARK    8  A    between atoms: C18_25  and  O5_26
REMARK    9  A    between atoms: C20_29  and  O6_30
ROOT
HETATM    1  C5  UNL     1       1.606   3.198  36.165  1.00  0.00     0.026 A
HETATM    2  C6  UNL     1       2.404   4.160  36.826  1.00  0.00     0.081 A
HETATM    3  C7  UNL     1       2.946   3.924  38.063  1.00  0.00     0.075 A
HETATM    4  C8  UNL     1       2.745   2.740  38.730  1.00  0.00     0.082 A
HETATM    5  C10 UNL     1       1.973   1.803  38.096  1.00  0.00     0.012 A
HETATM    6  C11 UNL     1       1.750   0.607  38.739  1.00  0.00     0.027 A
HETATM    7  C12 UNL     1       0.987  -0.379  38.175  1.00  0.00    -0.017 A
HETATM    8  C13 UNL     1       0.798  -1.556  38.886  1.00  0.00     0.052 A
HETATM    9  C14 UNL     1       0.015  -2.572  38.339  1.00  0.00     0.105 A
HETATM   10  C16 UNL     1      -0.552  -2.384  37.103  1.00  0.00     0.135 A
HETATM   11  C18 UNL     1      -0.351  -1.195  36.399  1.00  0.00     0.115 A
HETATM   12  C19 UNL     1       0.417  -0.170  36.914  1.00  0.00     0.044 A
HETATM   13  C20 UNL     1       0.618   1.023  36.231  1.00  0.00     0.091 A
HETATM   14  C21 UNL     1       1.408   2.016  36.834  1.00  0.00     0.025 A
ENDROOT
BRANCH   1  15
HETATM   15  C4  UNL     1       1.108   3.530  34.844  1.00  0.00     0.098 C
HETATM   16  N1  UNL     1       1.895   3.368  33.798  1.00  0.00    -0.398 N
ATOM     17  H1  UNL     1       2.843   3.019  33.937  1.00  0.00     0.158 HD
BRANCH  16  18
HETATM   18  C3  UNL     1       1.445   3.677  32.455  1.00  0.00     0.118 C
BRANCH  18  19
HETATM   19  C2  UNL     1       0.951   5.135  32.424  1.00  0.00     0.015 C
HETATM   20  C1  UNL     1       1.940   5.986  31.669  1.00  0.00     0.006 C
ENDBRANCH  18  19
ENDBRANCH  16  18
ENDBRANCH   1  15
BRANCH   2  21
HETATM   21  O1  UNL     1       2.630   5.362  36.192  1.00  0.00    -0.360 OA
ATOM     22  H1  UNL     1       3.357   5.897  36.491  1.00  0.00     0.217 HD
ENDBRANCH   2  21
BRANCH  13  23
HETATM   23  O6  UNL     1       0.076   1.218  35.035  1.00  0.00    -0.359 OA
ATOM     24  H6  UNL     1      -0.261   2.072  34.788  1.00  0.00     0.217 HD
ENDBRANCH  13  23
BRANCH   4  25
HETATM   25  O2  UNL     1       3.311   2.537  39.987  1.00  0.00    -0.355 OA
HETATM   26  C9  UNL     1       3.750   3.655  40.743  1.00  0.00     0.210 C
ENDBRANCH   4  25
BRANCH  11  27
HETATM   27  O5  UNL     1      -0.941  -1.063  35.162  1.00  0.00    -0.357 OA
ATOM     28  H5  UNL     1      -0.536  -0.479  34.532  1.00  0.00     0.217 HD
ENDBRANCH  11  27
BRANCH  10  29
HETATM   29  O4  UNL     1      -1.332  -3.358  36.520  1.00  0.00    -0.351 OA
HETATM   30  C17 UNL     1      -2.705  -3.566  36.780  1.00  0.00     0.210 C
ENDBRANCH  10  29
BRANCH   9  31
HETATM   31  O3  UNL     1      -0.146  -3.702  39.060  1.00  0.00    -0.353 OA
HETATM   32  C15 UNL     1      -0.661  -4.151  40.206  1.00  0.00     0.210 C
ENDBRANCH   9  31
TORSDOF 9
ENDMDL