MODEL 5
REMARK VINA RESULT: -7.269263909      7.496      9.213
REMARK  13 active torsions:
REMARK  status: ('A' for Active; 'I' for Inactive)
REMARK    1  A    between atoms: C2_2  and  C3_3
REMARK    2  A    between atoms: C3_3  and  C4_6
REMARK       I    between atoms: C4_6  and  N1_8
REMARK    3  A    between atoms: N1_8  and  C5_10
REMARK    4  A    between atoms: C5_10  and  C6_11
REMARK    5  A    between atoms: C6_11  and  C7_12
REMARK    6  A    between atoms: C7_12  and  C8_13
REMARK    7  A    between atoms: C8_13  and  C9_14
REMARK    8  A    between atoms: C9_14  and  N2_15
REMARK       I    between atoms: N2_15  and  C10_17
REMARK    9  A    between atoms: C10_17  and  C11_19
REMARK   10  A    between atoms: C11_19  and  C12_20
REMARK   11  A    between atoms: C12_20  and  C13_21
REMARK   12  A    between atoms: C18_26  and  C19_27
REMARK   13  A    between atoms: C19_27  and  O3_28
ROOT
HETATM    1  N2  UNL     1      16.477  19.046  26.287  1.00  0.00    -0.361 N
ATOM      2  H2  UNL     1      16.759  18.512  25.464  1.00  0.00     0.162 HD
HETATM    3  C10 UNL     1      17.028  18.740  27.548  1.00  0.00     0.217 C
HETATM    4  O2  UNL     1      16.676  19.394  28.554  1.00  0.00    -0.274 OA
ENDROOT
BRANCH   1   5
HETATM    5  C9  UNL     1      15.515  20.110  26.159  1.00  0.00     0.122 C
BRANCH   5   6
HETATM    6  C8  UNL     1      15.920  21.190  25.197  1.00  0.00     0.020 C
BRANCH   6   7
HETATM    7  C7  UNL     1      15.320  22.486  25.712  1.00  0.00     0.003 C
BRANCH   7   8
HETATM    8  C6  UNL     1      14.088  22.880  24.889  1.00  0.00     0.020 C
BRANCH   8   9
HETATM    9  C5  UNL     1      12.888  22.582  25.744  1.00  0.00     0.122 C
BRANCH   9  10
HETATM   10  N1  UNL     1      11.696  22.398  24.955  1.00  0.00    -0.358 N
HETATM   11  C4  UNL     1      10.609  21.676  25.504  1.00  0.00     0.256 C
HETATM   12  O1  UNL     1      10.730  21.218  26.674  1.00  0.00    -0.270 OA
ATOM     13  H1  UNL     1      11.637  22.784  24.012  1.00  0.00     0.162 HD
BRANCH  11  14
HETATM   14  C3  UNL     1       9.359  21.465  24.718  1.00  0.00     0.192 C
HETATM   15 CL1  UNL     1       8.206  22.727  25.156  1.00  0.00    -0.091 Cl
HETATM   16 CL2  UNL     1       9.773  21.531  22.978  1.00  0.00    -0.091 Cl
BRANCH  14  17
HETATM   17  C2  UNL     1       8.754  20.119  24.982  1.00  0.00     0.048 C
HETATM   18  C1  UNL     1       7.987  19.611  23.778  1.00  0.00     0.009 C
ENDBRANCH  14  17
ENDBRANCH  11  14
ENDBRANCH   9  10
ENDBRANCH   8   9
ENDBRANCH   7   8
ENDBRANCH   6   7
ENDBRANCH   5   6
ENDBRANCH   1   5
BRANCH   3  19
HETATM   19  C11 UNL     1      18.021  17.639  27.638  1.00  0.00     0.103 C
BRANCH  19  20
HETATM   20  C12 UNL     1      19.179  17.994  26.728  1.00  0.00     0.014 C
BRANCH  20  21
HETATM   21  C13 UNL     1      20.437  17.552  27.415  1.00  0.00    -0.004 C
HETATM   22  C14 UNL     1      21.650  18.276  26.927  1.00  0.00    -0.009 C
HETATM   23  C15 UNL     1      22.658  17.925  28.030  1.00  0.00     0.010 C
HETATM   24  C17 UNL     1      21.556  19.618  27.620  1.00  0.00     0.010 C
HETATM   25  C16 UNL     1      21.730  18.769  28.890  1.00  0.00    -0.007 C
HETATM   26  C18 UNL     1      20.441  18.009  28.877  1.00  0.00     0.018 C
BRANCH  26  27
HETATM   27  C19 UNL     1      20.445  16.827  29.812  1.00  0.00     0.169 C
BRANCH  27  28
HETATM   28  O3  UNL     1      20.904  17.237  31.062  1.00  0.00    -0.400 OA
ATOM     29  H3  UNL     1      21.489  16.575  31.410  1.00  0.00     0.209 HD
ENDBRANCH  27  28
ENDBRANCH  26  27
ENDBRANCH  20  21
ENDBRANCH  19  20
ENDBRANCH   3  19
TORSDOF 13
ENDMDL