MODEL 4
REMARK VINA RESULT: -8.010639111      4.114      6.550
REMARK  11 active torsions:
REMARK  status: ('A' for Active; 'I' for Inactive)
REMARK       I    between atoms: C1_2  and  N1_4
REMARK    1  A    between atoms: N1_4  and  C2_6
REMARK    2  A    between atoms: N2_11  and  C7_12
REMARK    3  A    between atoms: C7_12  and  C8_13
REMARK    4  A    between atoms: C8_13  and  N3_14
REMARK    5  A    between atoms: N3_14  and  C9_17
REMARK    6  A    between atoms: C9_17  and  C10_18
REMARK    7  A    between atoms: C10_18  and  C11_19
REMARK    8  A    between atoms: C11_19  and  C12_20
REMARK    9  A    between atoms: C12_20  and  C13_21
REMARK   10  A    between atoms: C13_21  and  C14_22
REMARK   11  A    between atoms: C18_27  and  C19_28
ROOT
HETATM    1  C2  UNL     1      22.447  21.734  24.324  1.00  0.00     0.105 C
HETATM    2  C3  UNL     1      22.408  21.018  25.660  1.00  0.00     0.012 C
HETATM    3  C4  UNL     1      22.940  19.623  25.555  1.00  0.00     0.013 C
HETATM    4  C5  UNL     1      22.122  18.875  24.524  1.00  0.00     0.021 C
HETATM    5  C6  UNL     1      21.261  17.840  25.283  1.00  0.00     0.278 C
HETATM    6  N2  UNL     1      20.186  18.627  25.843  1.00  0.00     0.095 N
HETATM    7  C15 UNL     1      20.187  19.920  25.274  1.00  0.00     0.229 C
HETATM    8  C16 UNL     1      20.952  20.949  26.079  1.00  0.00     0.043 C
HETATM    9  C17 UNL     1      20.988  19.731  23.995  1.00  0.00     0.041 C
HETATM   10  C18 UNL     1      21.436  21.061  23.449  1.00  0.00     0.116 C
ENDROOT
BRANCH   6  11
HETATM   11  C7  UNL     1      18.973  17.889  25.832  1.00  0.00     0.300 C
BRANCH  11  12
HETATM   12  C8  UNL     1      18.211  17.957  27.117  1.00  0.00     0.262 C
BRANCH  12  13
HETATM   13  N3  UNL     1      18.098  16.697  27.808  1.00  0.00    -0.073 N
ATOM     14  H32 UNL     1      17.334  16.712  28.483  1.00  0.00     0.277 HD
ATOM     15  H31 UNL     1      17.752  15.965  27.188  1.00  0.00     0.277 HD
BRANCH  13  16
HETATM   16  C9  UNL     1      19.337  16.312  28.431  1.00  0.00     0.232 C
BRANCH  16  17
HETATM   17  C10 UNL     1      19.862  17.332  29.381  1.00  0.00     0.027 C
BRANCH  17  18
HETATM   18  C11 UNL     1      21.264  17.752  29.300  1.00  0.00     0.002 C
BRANCH  18  19
HETATM   19  C12 UNL     1      22.035  18.138  30.486  1.00  0.00     0.001 C
BRANCH  19  20
HETATM   20  C13 UNL     1      23.288  18.907  30.336  1.00  0.00     0.015 C
BRANCH  20  21
HETATM   21  C14 UNL     1      23.592  19.134  28.839  1.00  0.00     0.114 C
HETATM   22 CL1  UNL     1      24.592  20.581  28.634  1.00  0.00    -0.130 Cl
ENDBRANCH  20  21
ENDBRANCH  19  20
ENDBRANCH  18  19
ENDBRANCH  17  18
ENDBRANCH  16  17
ENDBRANCH  13  16
ENDBRANCH  12  13
ENDBRANCH  11  12
ENDBRANCH   6  11
BRANCH  10  23
HETATM   23  C19 UNL     1      21.795  20.952  22.036  1.00  0.00     0.179 C
HETATM   24  O2  UNL     1      21.233  21.651  21.118  1.00  0.00    -0.648 OA
HETATM   25  O3  UNL     1      22.772  20.083  21.564  1.00  0.00    -0.648 OA
ENDBRANCH  10  23
BRANCH   1  26
HETATM   26  N1  UNL     1      23.756  21.761  23.762  1.00  0.00    -0.327 N
HETATM   27  C1  UNL     1      24.649  22.828  24.043  1.00  0.00     0.398 C
HETATM   28  O1  UNL     1      24.269  23.774  24.811  1.00  0.00    -0.233 OA
HETATM   29  F1  UNL     1      25.898  22.882  23.525  1.00  0.00    -0.142 F
ATOM     30  H1  UNL     1      24.056  21.002  23.150  1.00  0.00     0.165 HD
ENDBRANCH   1  26
TORSDOF 11
ENDMDL