MODEL 2
REMARK VINA RESULT: -8.051371464      1.502      1.626
REMARK  12 active torsions:
REMARK  status: ('A' for Active; 'I' for Inactive)
REMARK       I    between atoms: C2_2  and  N1_4
REMARK    1  A    between atoms: N1_4  and  C3_5
REMARK    2  A    between atoms: C3_5  and  C4_6
REMARK    3  A    between atoms: C4_6  and  C5_7
REMARK    4  A    between atoms: C5_7  and  C6_8
REMARK    5  A    between atoms: C6_8  and  C7_9
REMARK    6  A    between atoms: C7_9  and  C8_10
REMARK       I    between atoms: C8_10  and  N2_12
REMARK    7  A    between atoms: N2_12  and  C9_13
REMARK    8  A    between atoms: C9_13  and  C10_14
REMARK    9  A    between atoms: C11_15  and  C12_16
REMARK   10  A    between atoms: C12_16  and  C13_17
REMARK   11  A    between atoms: C13_17  and  C14_18
REMARK       I    between atoms: C14_18  and  N3_20
REMARK       I    between atoms: N3_20  and  C15_22
REMARK   12  A    between atoms: C15_22  and  C16_24
ROOT
HETATM    1  C10 UNL     1      20.682  17.613  30.080  1.00  0.00     0.028 C
HETATM    2  C11 UNL     1      21.809  18.436  29.715  1.00  0.00    -0.024 C
ENDROOT
BRANCH   1   3
HETATM    3  C9  UNL     1      19.797  16.901  29.113  1.00  0.00     0.186 C
BRANCH   3   4
HETATM    4  N2  UNL     1      18.923  17.813  28.566  1.00  0.00    -0.384 NA
HETATM    5  C8  UNL     1      18.066  18.700  28.039  1.00  0.00     0.291 C
HETATM    6  O2  UNL     1      16.973  19.163  28.557  1.00  0.00    -0.257 OA
BRANCH   5   7
HETATM    7  C7  UNL     1      18.371  19.272  26.650  1.00  0.00     0.119 C
BRANCH   7   8
HETATM    8  C6  UNL     1      19.621  20.043  26.723  1.00  0.00     0.011 C
BRANCH   8   9
HETATM    9  C5  UNL     1      20.296  20.213  25.412  1.00  0.00     0.007 C
BRANCH   9  10
HETATM   10  C4  UNL     1      20.326  18.873  24.698  1.00  0.00     0.060 C
BRANCH  10  11
HETATM   11  C3  UNL     1      21.592  18.792  23.914  1.00  0.00     0.159 C
BRANCH  11  12
HETATM   12  N1  UNL     1      21.989  20.030  23.380  1.00  0.00    -0.388 NA
HETATM   13  C2  UNL     1      22.367  21.206  22.873  1.00  0.00     0.286 C
HETATM   14  C1  UNL     1      23.545  21.930  23.527  1.00  0.00     0.135 C
HETATM   15  O1  UNL     1      21.859  21.819  21.888  1.00  0.00    -0.258 OA
ENDBRANCH  11  12
ENDBRANCH  10  11
ENDBRANCH   9  10
ENDBRANCH   8   9
ENDBRANCH   7   8
ENDBRANCH   5   7
ENDBRANCH   3   4
ENDBRANCH   1   3
BRANCH   2  16
HETATM   16  C12 UNL     1      22.797  18.053  28.718  1.00  0.00     0.036 C
BRANCH  16  17
HETATM   17  C13 UNL     1      22.970  18.874  27.482  1.00  0.00     0.107 C
BRANCH  17  18
HETATM   18  C14 UNL     1      23.874  20.047  27.802  1.00  0.00     0.224 C
HETATM   19  O3  UNL     1      24.817  19.877  28.564  1.00  0.00    -0.273 OA
HETATM   20  N3  UNL     1      23.616  21.347  27.225  1.00  0.00    -0.295 N
HETATM   21  C15 UNL     1      24.441  22.454  27.554  1.00  0.00     0.262 C
ATOM     22  H3  UNL     1      22.836  21.469  26.579  1.00  0.00     0.171 HD
HETATM   23  O4  UNL     1      25.490  22.247  28.219  1.00  0.00    -0.270 OA
BRANCH  21  24
HETATM   24  C16 UNL     1      24.076  23.808  27.139  1.00  0.00     0.190 C
HETATM   25  C17 UNL     1      25.095  24.381  26.154  1.00  0.00     0.061 C
HETATM   26 CL1  UNL     1      24.066  24.837  28.623  1.00  0.00    -0.091 Cl
HETATM   27 CL2  UNL     1      22.485  23.834  26.378  1.00  0.00    -0.091 Cl
ENDBRANCH  21  24
ENDBRANCH  17  18
ENDBRANCH  16  17
ENDBRANCH   2  16
TORSDOF 12
ENDMDL