MODEL 3
REMARK VINA RESULT: -6.860538096      3.621      7.629
REMARK  14 active torsions:
REMARK  status: ('A' for Active; 'I' for Inactive)
REMARK    1  A    between atoms: C2_2  and  N1_3
REMARK    2  A    between atoms: N1_3  and  C3_5
REMARK    3  A    between atoms: C3_5  and  N2_7
REMARK    4  A    between atoms: N2_7  and  C4_9
REMARK    5  A    between atoms: C4_9  and  C5_10
REMARK    6  A    between atoms: C5_10  and  C6_11
REMARK    7  A    between atoms: C6_11  and  C7_12
REMARK    8  A    between atoms: C7_12  and  C8_13
REMARK    9  A    between atoms: C8_13  and  C9_14
REMARK   10  A    between atoms: C9_14  and  C10_15
REMARK       I    between atoms: C10_15  and  N3_17
REMARK   11  A    between atoms: N3_17  and  C11_19
REMARK   12  A    between atoms: C11_19  and  C12_20
REMARK   13  A    between atoms: C12_20  and  N4_21
REMARK   14  A    between atoms: C16_25  and  C17_26
ROOT
HETATM    1  C9  UNL     1      22.640  18.228  30.364  1.00  0.00     0.103 C
ENDROOT
BRANCH   1   2
HETATM    2  C8  UNL     1      21.217  17.866  30.288  1.00  0.00     0.009 C
BRANCH   2   3
HETATM    3  C7  UNL     1      20.665  17.468  28.979  1.00  0.00     0.001 C
BRANCH   3   4
HETATM    4  C6  UNL     1      19.601  16.398  29.105  1.00  0.00     0.002 C
BRANCH   4   5
HETATM    5  C5  UNL     1      19.213  15.733  27.829  1.00  0.00     0.020 C
BRANCH   5   6
HETATM    6  C4  UNL     1      18.727  16.690  26.759  1.00  0.00     0.122 C
BRANCH   6   7
HETATM    7  N2  UNL     1      17.510  17.359  27.161  1.00  0.00    -0.367 N
ATOM      8  H2  UNL     1      16.719  16.773  27.426  1.00  0.00     0.161 HD
BRANCH   7   9
HETATM    9  C3  UNL     1      17.327  18.759  27.218  1.00  0.00     0.167 C
HETATM   10  S1  UNL     1      15.774  19.330  27.302  1.00  0.00    -0.041 SA
BRANCH   9  11
HETATM   11  N1  UNL     1      18.355  19.721  27.210  1.00  0.00    -0.368 N
ATOM     12  H1  UNL     1      18.794  20.002  28.086  1.00  0.00     0.161 HD
BRANCH  11  13
HETATM   13  C2  UNL     1      18.794  20.315  25.954  1.00  0.00     0.117 C
HETATM   14  C1  UNL     1      20.216  20.757  26.065  1.00  0.00     0.026 C
ENDBRANCH  11  13
ENDBRANCH   9  11
ENDBRANCH   7   9
ENDBRANCH   6   7
ENDBRANCH   5   6
ENDBRANCH   4   5
ENDBRANCH   3   4
ENDBRANCH   2   3
ENDBRANCH   1   2
BRANCH   1  15
HETATM   15  C10 UNL     1      23.316  18.618  29.123  1.00  0.00     0.217 C
HETATM   16  O1  UNL     1      24.062  17.840  28.532  1.00  0.00    -0.274 OA
HETATM   17  N3  UNL     1      23.109  19.923  28.595  1.00  0.00    -0.359 N
ATOM     18  H3  UNL     1      22.481  20.544  29.106  1.00  0.00     0.162 HD
BRANCH  17  19
HETATM   19  C11 UNL     1      23.724  20.438  27.384  1.00  0.00     0.152 C
BRANCH  19  20
HETATM   20  C12 UNL     1      24.701  21.506  27.762  1.00  0.00     0.292 C
BRANCH  20  21
HETATM   21  N4  UNL     1      24.789  22.511  26.741  1.00  0.00     0.095 N
HETATM   22  C13 UNL     1      23.572  22.475  25.950  1.00  0.00     0.273 C
HETATM   23  C14 UNL     1      22.949  23.830  26.017  1.00  0.00     0.032 C
HETATM   24  C15 UNL     1      24.224  24.698  26.191  1.00  0.00     0.038 C
HETATM   25  C16 UNL     1      25.015  23.836  27.205  1.00  0.00     0.236 C
BRANCH  25  26
HETATM   26  C17 UNL     1      24.570  24.191  28.569  1.00  0.00     0.150 C
HETATM   27 CL1  UNL     1      24.225  25.957  28.675  1.00  0.00    -0.128 Cl
ENDBRANCH  25  26
ENDBRANCH  20  21
ENDBRANCH  19  20
ENDBRANCH  17  19
ENDBRANCH   1  15
TORSDOF 14
ENDMDL