MODEL 3
REMARK VINA RESULT: -7.296439825      4.736      8.317
REMARK  14 active torsions:
REMARK  status: ('A' for Active; 'I' for Inactive)
REMARK    1  A    between atoms: C2_2  and  C3_3
REMARK    2  A    between atoms: C3_3  and  C4_4
REMARK    3  A    between atoms: C4_4  and  C5_5
REMARK    4  A    between atoms: C5_5  and  C6_6
REMARK    5  A    between atoms: C6_6  and  N1_7
REMARK    6  A    between atoms: N1_7  and  C7_9
REMARK    7  A    between atoms: C7_9  and  N2_11
REMARK    8  A    between atoms: N2_11  and  C8_13
REMARK    9  A    between atoms: C8_13  and  C9_14
REMARK   10  A    between atoms: C9_14  and  C10_15
REMARK   11  A    between atoms: C10_15  and  C11_16
REMARK   12  A    between atoms: C11_16  and  N3_17
REMARK   13  A    between atoms: N3_17  and  S2_19
REMARK   14  A    between atoms: S2_19  and  C12_22
ROOT
HETATM    1  C10 UNL     1      17.027  19.739  26.406  1.00  0.00     0.022 C
ENDROOT
BRANCH   1   2
HETATM    2  C9  UNL     1      15.716  20.339  26.075  1.00  0.00     0.021 C
BRANCH   2   3
HETATM    3  C8  UNL     1      14.654  20.281  27.121  1.00  0.00     0.122 C
BRANCH   3   4
HETATM    4  N2  UNL     1      13.918  21.552  27.195  1.00  0.00    -0.367 N
ATOM      5  H2  UNL     1      14.452  22.414  27.084  1.00  0.00     0.161 HD
BRANCH   4   6
HETATM    6  C7  UNL     1      12.532  21.667  27.408  1.00  0.00     0.167 C
HETATM    7  S1  UNL     1      11.595  22.262  26.196  1.00  0.00    -0.041 SA
BRANCH   6   8
HETATM    8  N1  UNL     1      11.903  21.277  28.609  1.00  0.00    -0.367 N
ATOM      9  H1  UNL     1      11.814  21.985  29.338  1.00  0.00     0.161 HD
BRANCH   8  10
HETATM   10  C6  UNL     1      11.376  19.973  28.897  1.00  0.00     0.122 C
BRANCH  10  11
HETATM   11  C5  UNL     1      10.172  20.068  29.762  1.00  0.00     0.020 C
BRANCH  11  12
HETATM   12  C4  UNL     1      10.240  21.342  30.584  1.00  0.00     0.005 C
BRANCH  12  13
HETATM   13  C3  UNL     1       9.326  21.236  31.774  1.00  0.00     0.026 C
BRANCH  13  14
HETATM   14  C2  UNL     1       8.745  19.870  31.756  1.00  0.00    -0.037 C
HETATM   15  C1  UNL     1       8.029  19.449  32.787  1.00  0.00     0.007 C
ENDBRANCH  13  14
ENDBRANCH  12  13
ENDBRANCH  11  12
ENDBRANCH  10  11
ENDBRANCH   8  10
ENDBRANCH   6   8
ENDBRANCH   4   6
ENDBRANCH   3   4
ENDBRANCH   2   3
ENDBRANCH   1   2
BRANCH   1  16
HETATM   16  C11 UNL     1      17.073  18.933  27.647  1.00  0.00     0.132 C
BRANCH  16  17
HETATM   17  N3  UNL     1      17.114  17.530  27.364  1.00  0.00    -0.319 N
ATOM     18  H3  UNL     1      16.312  16.901  27.380  1.00  0.00     0.172 HD
BRANCH  17  19
HETATM   19  S2  UNL     1      18.734  17.072  26.990  1.00  0.00     0.230 S
HETATM   20  O1  UNL     1      18.891  15.607  27.290  1.00  0.00    -0.206 OA
HETATM   21  O2  UNL     1      19.034  17.315  25.537  1.00  0.00    -0.206 OA
BRANCH  19  22
HETATM   22  C12 UNL     1      19.929  18.010  27.919  1.00  0.00     0.129 C
HETATM   23  C13 UNL     1      20.075  17.312  29.249  1.00  0.00     0.027 C
HETATM   24  C14 UNL     1      21.241  17.762  30.051  1.00  0.00     0.080 C
HETATM   25  C15 UNL     1      22.386  18.285  29.216  1.00  0.00     0.243 C
HETATM   26  F1  UNL     1      22.126  19.631  28.982  1.00  0.00    -0.206 F
HETATM   27  F2  UNL     1      23.599  18.131  29.806  1.00  0.00    -0.206 F
HETATM   28  C16 UNL     1      22.388  17.552  27.880  1.00  0.00     0.080 C
HETATM   29  C17 UNL     1      21.178  18.108  27.119  1.00  0.00     0.027 C
ENDBRANCH  19  22
ENDBRANCH  17  19
ENDBRANCH  16  17
ENDBRANCH   1  16
TORSDOF 14
ENDMDL