MODEL 3
REMARK VINA RESULT: -7.914982418      1.377      1.675
REMARK  12 active torsions:
REMARK  status: ('A' for Active; 'I' for Inactive)
REMARK    1  A    between atoms: C2_2  and  C3_4
REMARK       I    between atoms: C3_4  and  N1_6
REMARK    2  A    between atoms: N1_6  and  C4_8
REMARK    3  A    between atoms: C4_8  and  C5_9
REMARK    4  A    between atoms: C5_9  and  C6_10
REMARK    5  A    between atoms: C6_10  and  C7_11
REMARK    6  A    between atoms: C7_11  and  C8_12
REMARK    7  A    between atoms: C8_12  and  N2_13
REMARK       I    between atoms: N2_13  and  C9_15
REMARK    8  A    between atoms: C9_15  and  C10_17
REMARK    9  A    between atoms: C10_17  and  C11_18
REMARK   10  A    between atoms: C11_18  and  C12_19
REMARK   11  A    between atoms: C12_19  and  C13_20
REMARK   12  A    between atoms: C13_20  and  C14_21
ROOT
HETATM    1  N2  UNL     1      23.413  19.361  29.893  1.00  0.00    -0.361 N
ATOM      2  H2  UNL     1      23.309  20.175  30.498  1.00  0.00     0.162 HD
HETATM    3  C9  UNL     1      23.960  19.583  28.619  1.00  0.00     0.217 C
HETATM    4  O2  UNL     1      24.119  18.637  27.826  1.00  0.00    -0.274 OA
ENDROOT
BRANCH   1   5
HETATM    5  C8  UNL     1      22.989  18.103  30.420  1.00  0.00     0.122 C
BRANCH   5   6
HETATM    6  C7  UNL     1      21.493  17.967  30.574  1.00  0.00     0.020 C
BRANCH   6   7
HETATM    7  C6  UNL     1      20.854  17.751  29.211  1.00  0.00     0.003 C
BRANCH   7   8
HETATM    8  C5  UNL     1      19.770  16.766  29.177  1.00  0.00     0.020 C
BRANCH   8   9
HETATM    9  C4  UNL     1      18.840  16.624  28.056  1.00  0.00     0.123 C
BRANCH   9  10
HETATM   10  N1  UNL     1      18.519  17.722  27.214  1.00  0.00    -0.356 N
HETATM   11  C3  UNL     1      17.716  18.853  27.386  1.00  0.00     0.258 C
HETATM   12  O1  UNL     1      17.109  19.066  28.458  1.00  0.00    -0.267 OA
ATOM     13  H1  UNL     1      18.965  17.676  26.297  1.00  0.00     0.162 HD
BRANCH  11  14
HETATM   14  C2  UNL     1      17.527  19.854  26.349  1.00  0.00     0.069 C
HETATM   15  C1  UNL     1      18.533  20.451  25.774  1.00  0.00     0.037 C
HETATM   16 BR1  UNL     1      15.760  20.312  25.807  1.00  0.00    -0.046 Br
ENDBRANCH  11  14
ENDBRANCH   9  10
ENDBRANCH   8   9
ENDBRANCH   7   8
ENDBRANCH   6   7
ENDBRANCH   5   6
ENDBRANCH   1   5
BRANCH   3  17
HETATM   17  C10 UNL     1      24.366  20.938  28.171  1.00  0.00     0.103 C
BRANCH  17  18
HETATM   18  C11 UNL     1      23.335  21.547  27.270  1.00  0.00     0.009 C
BRANCH  18  19
HETATM   19  C12 UNL     1      23.603  23.009  26.995  1.00  0.00     0.002 C
BRANCH  19  20
HETATM   20  C13 UNL     1      24.527  23.630  28.017  1.00  0.00     0.033 C
BRANCH  20  21
HETATM   21  C14 UNL     1      24.311  25.130  27.961  1.00  0.00     0.186 C
HETATM   22  C15 UNL     1      22.899  25.420  27.497  1.00  0.00     0.034 C
HETATM   23  C16 UNL     1      22.425  26.549  28.411  1.00  0.00     0.029 C
HETATM   24  C17 UNL     1      23.715  26.988  29.062  1.00  0.00     0.233 C
HETATM   25  N3  UNL     1      24.380  25.705  29.309  1.00  0.00    -0.071 N
ATOM     26  H32 UNL     1      23.988  25.136  30.058  1.00  0.00     0.277 HD
ATOM     27  H31 UNL     1      25.309  25.756  29.726  1.00  0.00     0.277 HD
ENDBRANCH  20  21
ENDBRANCH  19  20
ENDBRANCH  18  19
ENDBRANCH  17  18
ENDBRANCH   3  17
TORSDOF 12
ENDMDL