MODEL 5
REMARK VINA RESULT: -6.557557338      1.554      2.999
REMARK  14 active torsions:
REMARK  status: ('A' for Active; 'I' for Inactive)
REMARK    1  A    between atoms: C2_2  and  C3_3
REMARK    2  A    between atoms: C3_3  and  C5_5
REMARK    3  A    between atoms: C3_3  and  N1_7
REMARK       I    between atoms: N1_7  and  C7_9
REMARK    4  A    between atoms: C7_9  and  C8_11
REMARK    5  A    between atoms: C8_11  and  C9_12
REMARK    6  A    between atoms: C8_11  and  N2_16
REMARK    7  A    between atoms: C9_12  and  C10_13
REMARK    8  A    between atoms: N2_16  and  C13_18
REMARK    9  A    between atoms: C13_18  and  N3_20
REMARK   10  A    between atoms: N3_20  and  C14_21
REMARK   11  A    between atoms: N3_20  and  N4_24
REMARK   12  A    between atoms: C14_21  and  C15_22
REMARK   13  A    between atoms: N4_24  and  C16_26
REMARK   14  A    between atoms: C16_26  and  C17_27
ROOT
HETATM    1  C8  UNL     1      22.409  19.859  27.039  1.00  0.00     0.176 C
ENDROOT
BRANCH   1   2
HETATM    2  C7  UNL     1      23.006  21.175  26.637  1.00  0.00     0.241 C
HETATM    3  N1  UNL     1      23.485  22.141  27.543  1.00  0.00    -0.350 N
ATOM      4  H1  UNL     1      23.430  21.946  28.542  1.00  0.00     0.163 HD
HETATM    5  O1  UNL     1      23.087  21.436  25.382  1.00  0.00    -0.271 OA
BRANCH   3   6
HETATM    6  C3  UNL     1      24.052  23.398  27.111  1.00  0.00     0.028 C
HETATM    7  C4  UNL     1      22.975  24.209  26.448  1.00  0.00     0.038 C
BRANCH   6   8
HETATM    8  C2  UNL     1      24.553  24.184  28.324  1.00  0.00     0.026 C
HETATM    9  C1  UNL     1      23.708  25.397  28.522  1.00  0.00     0.007 C
ENDBRANCH   6   8
BRANCH   6  10
HETATM   10  C5  UNL     1      25.257  23.186  26.202  1.00  0.00     0.026 C
HETATM   11  C6  UNL     1      26.496  23.025  27.017  1.00  0.00     0.007 C
ENDBRANCH   6  10
ENDBRANCH   3   6
ENDBRANCH   1   2
BRANCH   1  12
HETATM   12  C9  UNL     1      22.617  19.685  28.553  1.00  0.00     0.039 C
BRANCH  12  13
HETATM   13  C10 UNL     1      22.493  18.284  29.029  1.00  0.00    -0.012 A
HETATM   14  C11 UNL     1      21.326  18.002  29.964  1.00  0.00     0.005 A
HETATM   15  C12 UNL     1      22.727  18.046  30.513  1.00  0.00     0.005 A
ENDBRANCH  12  13
ENDBRANCH   1  12
BRANCH   1  16
HETATM   16  N2  UNL     1      20.972  19.964  26.892  1.00  0.00    -0.353 N
ATOM     17  H2  UNL     1      20.483  20.596  27.525  1.00  0.00     0.162 HD
BRANCH  16  18
HETATM   18  C13 UNL     1      20.188  19.264  25.945  1.00  0.00     0.189 C
HETATM   19  S1  UNL     1      20.926  18.450  24.763  1.00  0.00    -0.039 SA
BRANCH  18  20
HETATM   20  N3  UNL     1      18.758  19.300  25.984  1.00  0.00    -0.267 N
BRANCH  20  21
HETATM   21  C14 UNL     1      18.056  20.534  25.814  1.00  0.00     0.166 C
BRANCH  21  22
HETATM   22  C15 UNL     1      16.582  20.500  25.711  1.00  0.00     0.136 C
HETATM   23 CL1  UNL     1      15.794  21.958  25.141  1.00  0.00    -0.129 Cl
ENDBRANCH  21  22
ENDBRANCH  20  21
BRANCH  20  24
HETATM   24  N4  UNL     1      18.103  18.103  26.251  1.00  0.00    -0.310 N
ATOM     25  H4  UNL     1      17.475  17.684  25.565  1.00  0.00     0.186 HD
BRANCH  24  26
HETATM   26  C16 UNL     1      18.331  17.485  27.497  1.00  0.00     0.095 C
BRANCH  26  27
HETATM   27  C17 UNL     1      19.046  16.146  27.361  1.00  0.00     0.160 C
HETATM   28 CL2  UNL     1      19.072  15.242  28.885  1.00  0.00    -0.125 Cl
ENDBRANCH  26  27
ENDBRANCH  24  26
ENDBRANCH  20  24
ENDBRANCH  18  20
ENDBRANCH  16  18
ENDBRANCH   1  16
TORSDOF 14
ENDMDL