MODEL 3
REMARK VINA RESULT: -8.310717908      2.600      5.941
REMARK  11 active torsions:
REMARK  status: ('A' for Active; 'I' for Inactive)
REMARK       I    between atoms: N1_2  and  C2_4
REMARK    1  A    between atoms: C2_4  and  C3_6
REMARK    2  A    between atoms: C3_6  and  C4_7
REMARK    3  A    between atoms: C4_7  and  C5_8
REMARK       I    between atoms: C5_8  and  N2_10
REMARK    4  A    between atoms: N2_10  and  C6_12
REMARK    5  A    between atoms: C6_12  and  C7_13
REMARK    6  A    between atoms: C6_12  and  C14_20
REMARK    7  A    between atoms: C7_13  and  C8_14
REMARK    8  A    between atoms: C14_20  and  C15_21
REMARK    9  A    between atoms: C14_20  and  N3_25
REMARK   10  A    between atoms: C15_21  and  C16_22
REMARK       I    between atoms: N3_25  and  C19_26
REMARK   11  A    between atoms: C19_26  and  C20_28
ROOT
HETATM    1  C6  UNL     1      21.480  20.167  26.187  1.00  0.00     0.049 C
ENDROOT
BRANCH   1   2
HETATM    2  N2  UNL     1      20.260  19.566  26.471  1.00  0.00    -0.328 N
HETATM    3  C5  UNL     1      20.055  18.123  26.384  1.00  0.00     0.222 C
HETATM    4  O2  UNL     1      21.109  17.452  26.062  1.00  0.00    -0.273 OA
ATOM      5  H2  UNL     1      19.476  20.156  26.750  1.00  0.00     0.168 HD
BRANCH   3   6
HETATM    6  C4  UNL     1      18.830  17.391  26.598  1.00  0.00     0.112 C
BRANCH   6   7
HETATM    7  C3  UNL     1      18.032  17.706  27.827  1.00  0.00     0.112 C
BRANCH   7   8
HETATM    8  C2  UNL     1      17.006  18.741  27.574  1.00  0.00     0.217 C
HETATM    9  N1  UNL     1      16.480  19.052  26.297  1.00  0.00    -0.365 N
HETATM   10  C1  UNL     1      15.500  20.081  26.121  1.00  0.00     0.149 C
ATOM     11  H1  UNL     1      16.808  18.532  25.483  1.00  0.00     0.161 HD
HETATM   12  O1  UNL     1      16.591  19.371  28.579  1.00  0.00    -0.274 OA
ENDBRANCH   7   8
ENDBRANCH   6   7
ENDBRANCH   3   6
ENDBRANCH   1   2
BRANCH   1  13
HETATM   13  C7  UNL     1      21.425  21.182  25.033  1.00  0.00     0.065 C
BRANCH  13  14
HETATM   14  C8  UNL     1      21.918  20.686  23.729  1.00  0.00    -0.009 C
HETATM   15  C9  UNL     1      22.994  19.635  24.077  1.00  0.00     0.005 C
HETATM   16  C10 UNL     1      23.205  18.651  22.982  1.00  0.00     0.000 C
HETATM   17  C11 UNL     1      22.830  19.201  21.624  1.00  0.00     0.000 C
HETATM   18  C12 UNL     1      21.362  19.509  21.630  1.00  0.00     0.000 C
HETATM   19  C13 UNL     1      20.884  19.748  23.059  1.00  0.00     0.005 C
ENDBRANCH  13  14
ENDBRANCH   1  13
BRANCH   1  20
HETATM   20  C14 UNL     1      22.408  20.626  27.260  1.00  0.00     0.111 C
BRANCH  20  21
HETATM   21  C15 UNL     1      23.095  21.909  27.159  1.00  0.00     0.079 C
BRANCH  21  22
HETATM   22  C16 UNL     1      24.566  21.975  26.939  1.00  0.00    -0.016 C
HETATM   23  C17 UNL     1      24.923  23.000  25.874  1.00  0.00     0.010 C
HETATM   24  C18 UNL     1      25.261  22.347  28.251  1.00  0.00     0.010 C
ENDBRANCH  21  22
ENDBRANCH  20  21
BRANCH  20  25
HETATM   25  N3  UNL     1      22.820  19.622  28.108  1.00  0.00    -0.372 NA
HETATM   26  C19 UNL     1      23.233  18.622  28.950  1.00  0.00     0.305 C
HETATM   27  O3  UNL     1      24.071  17.698  28.726  1.00  0.00    -0.256 OA
BRANCH  26  28
HETATM   28  C20 UNL     1      22.657  18.538  30.356  1.00  0.00     0.233 C
HETATM   29 CL1  UNL     1      21.015  17.853  30.143  1.00  0.00    -0.119 Cl
ENDBRANCH  26  28
ENDBRANCH  20  25
ENDBRANCH   1  20
TORSDOF 11
ENDMDL