MODEL 4
REMARK VINA RESULT: -8.464726500      2.986      7.928
REMARK  13 active torsions:
REMARK  status: ('A' for Active; 'I' for Inactive)
REMARK    1  A    between atoms: N2_9  and  C5_11
REMARK    2  A    between atoms: C5_11  and  C6_12
REMARK    3  A    between atoms: C6_12  and  C7_13
REMARK    4  A    between atoms: C7_13  and  C8_14
REMARK    5  A    between atoms: C8_14  and  C9_15
REMARK    6  A    between atoms: C9_15  and  C10_16
REMARK    7  A    between atoms: C10_16  and  C11_17
REMARK    8  A    between atoms: C11_17  and  C12_18
REMARK    9  A    between atoms: C12_18  and  C13_19
REMARK   10  A    between atoms: C13_19  and  C14_20
REMARK   11  A    between atoms: C14_20  and  N3_21
REMARK   12  A    between atoms: C17_24  and  N4_25
REMARK   13  A    between atoms: N4_25  and  C18_27
ROOT
HETATM    1  C11 UNL     1      23.793  19.699  29.295  1.00  0.00     0.000 C
ENDROOT
BRANCH   1   2
HETATM    2  C10 UNL     1      22.580  18.789  29.102  1.00  0.00     0.000 C
BRANCH   2   3
HETATM    3  C9  UNL     1      22.200  18.203  30.425  1.00  0.00     0.000 C
BRANCH   3   4
HETATM    4  C8  UNL     1      20.985  17.296  30.289  1.00  0.00     0.000 C
BRANCH   4   5
HETATM    5  C7  UNL     1      19.992  17.855  29.297  1.00  0.00     0.002 C
BRANCH   5   6
HETATM    6  C6  UNL     1      19.520  16.692  28.431  1.00  0.00     0.020 C
BRANCH   6   7
HETATM    7  C5  UNL     1      19.505  17.095  26.969  1.00  0.00     0.121 C
BRANCH   7   8
HETATM    8  N2  UNL     1      19.893  18.480  26.828  1.00  0.00    -0.375 N
HETATM    9  C4  UNL     1      20.613  18.895  25.863  1.00  0.00     0.146 C
HETATM   10  C1  UNL     1      21.038  20.323  25.679  1.00  0.00     0.301 C
HETATM   11  N1  UNL     1      21.186  18.205  24.759  1.00  0.00    -0.375 N
HETATM   12  F1  UNL     1      20.171  20.874  24.757  1.00  0.00    -0.198 F
HETATM   13  F2  UNL     1      21.069  21.015  26.851  1.00  0.00    -0.198 F
HETATM   14  C2  UNL     1      22.405  20.146  25.050  1.00  0.00     0.107 C
HETATM   15  C3  UNL     1      22.159  19.008  24.082  1.00  0.00     0.127 C
ATOM     16  H1  UNL     1      20.935  17.256  24.483  1.00  0.00     0.160 HD
ATOM     17  H2  UNL     1      19.579  19.151  27.529  1.00  0.00     0.160 HD
ENDBRANCH   7   8
ENDBRANCH   6   7
ENDBRANCH   5   6
ENDBRANCH   4   5
ENDBRANCH   3   4
ENDBRANCH   2   3
ENDBRANCH   1   2
BRANCH   1  18
HETATM   18  C12 UNL     1      24.101  20.527  28.087  1.00  0.00     0.002 C
BRANCH  18  19
HETATM   19  C13 UNL     1      25.082  21.637  28.287  1.00  0.00     0.030 C
BRANCH  19  20
HETATM   20  C14 UNL     1      24.745  22.956  27.716  1.00  0.00     0.272 C
BRANCH  20  21
HETATM   21  N3  UNL     1      25.472  23.394  26.577  1.00  0.00     0.090 N
HETATM   22  C15 UNL     1      26.893  23.437  26.761  1.00  0.00     0.274 C
HETATM   23  C16 UNL     1      27.082  24.760  27.512  1.00  0.00     0.057 C
HETATM   24  C17 UNL     1      26.215  25.664  26.650  1.00  0.00     0.129 C
HETATM   25  C21 UNL     1      25.086  24.743  26.244  1.00  0.00     0.297 C
BRANCH  24  26
HETATM   26  N4  UNL     1      25.777  26.844  27.345  1.00  0.00    -0.220 N
ATOM     27  H4  UNL     1      26.325  27.703  27.306  1.00  0.00     0.178 HD
BRANCH  26  28
HETATM   28  C18 UNL     1      24.680  26.796  28.018  1.00  0.00     0.678 A
HETATM   29  N5  UNL     1      23.442  27.115  27.574  1.00  0.00    -0.201 N
HETATM   30  C19 UNL     1      22.550  26.941  28.556  1.00  0.00     0.123 A
ATOM     31  H5  UNL     1      23.222  27.439  26.633  1.00  0.00     0.183 HD
HETATM   32  C20 UNL     1      23.217  26.499  29.669  1.00  0.00     0.123 A
HETATM   33  N6  UNL     1      24.514  26.419  29.314  1.00  0.00    -0.201 N
ATOM     34  H6  UNL     1      25.268  26.118  29.933  1.00  0.00     0.183 HD
ENDBRANCH  26  28
ENDBRANCH  24  26
ENDBRANCH  20  21
ENDBRANCH  19  20
ENDBRANCH  18  19
ENDBRANCH   1  18
TORSDOF 13
ENDMDL