MODEL 3
REMARK VINA RESULT: -7.672006247      4.225      7.823
REMARK  12 active torsions:
REMARK  status: ('A' for Active; 'I' for Inactive)
REMARK    1  A    between atoms: C2_2  and  C4_4
REMARK    2  A    between atoms: C4_4  and  C5_5
REMARK    3  A    between atoms: C4_4  and  N2_11
REMARK    4  A    between atoms: C5_5  and  N1_6
REMARK    5  A    between atoms: N1_6  and  C6_8
REMARK    6  A    between atoms: C6_8  and  C7_9
REMARK       I    between atoms: N2_11  and  C8_13
REMARK    7  A    between atoms: C8_13  and  C9_15
REMARK    8  A    between atoms: C9_15  and  C10_16
REMARK    9  A    between atoms: C9_15  and  N3_23
REMARK   10  A    between atoms: C10_16  and  C11_17
REMARK       I    between atoms: N3_23  and  C17_25
REMARK   11  A    between atoms: C17_25  and  C18_27
REMARK   12  A    between atoms: C19_28  and  C20_29
ROOT
HETATM    1  C9  UNL     1      19.335  19.310  25.973  1.00  0.00     0.177 C
ENDROOT
BRANCH   1   2
HETATM    2  C8  UNL     1      20.248  19.167  24.823  1.00  0.00     0.240 C
HETATM    3  N2  UNL     1      20.848  20.293  24.221  1.00  0.00    -0.353 N
ATOM      4  H2  UNL     1      20.624  21.209  24.610  1.00  0.00     0.163 HD
HETATM    5  O1  UNL     1      20.480  18.018  24.398  1.00  0.00    -0.271 OA
BRANCH   3   6
HETATM    6  C4  UNL     1      21.754  20.253  23.096  1.00  0.00     0.105 C
BRANCH   6   7
HETATM    7  C2  UNL     1      20.945  20.191  21.833  1.00  0.00     0.002 C
HETATM    8  C1  UNL     1      21.480  19.019  21.017  1.00  0.00     0.011 C
HETATM    9  C3  UNL     1      21.044  21.394  20.949  1.00  0.00     0.011 C
ENDBRANCH   6   7
BRANCH   6  10
HETATM   10  C5  UNL     1      22.800  21.303  23.145  1.00  0.00     0.139 C
BRANCH  10  11
HETATM   11  N1  UNL     1      22.613  22.371  24.057  1.00  0.00    -0.417 N
ATOM     12  H1  UNL     1      21.735  22.888  24.106  1.00  0.00     0.153 HD
BRANCH  11  13
HETATM   13  C6  UNL     1      23.719  22.686  24.905  1.00  0.00     0.145 C
BRANCH  13  14
HETATM   14  C7  UNL     1      23.517  21.913  26.215  1.00  0.00     0.241 C
HETATM   15  F1  UNL     1      22.223  21.990  26.655  1.00  0.00    -0.254 F
ENDBRANCH  13  14
ENDBRANCH  11  13
ENDBRANCH  10  11
ENDBRANCH   6  10
ENDBRANCH   3   6
ENDBRANCH   1   2
BRANCH   1  16
HETATM   16  C10 UNL     1      20.063  19.590  27.274  1.00  0.00     0.039 C
BRANCH  16  17
HETATM   17  C11 UNL     1      20.846  18.378  27.795  1.00  0.00    -0.012 C
HETATM   18  C12 UNL     1      20.151  17.838  28.980  1.00  0.00     0.005 C
HETATM   19  C13 UNL     1      20.929  17.596  30.223  1.00  0.00     0.000 C
HETATM   20  C14 UNL     1      22.153  18.432  30.396  1.00  0.00     0.000 C
HETATM   21  C15 UNL     1      22.993  18.199  29.127  1.00  0.00     0.000 C
HETATM   22  C16 UNL     1      22.243  18.877  28.028  1.00  0.00     0.005 C
ENDBRANCH  16  17
ENDBRANCH   1  16
BRANCH   1  23
HETATM   23  N3  UNL     1      18.544  20.529  25.670  1.00  0.00    -0.344 N
HETATM   24  C17 UNL     1      17.135  20.521  25.770  1.00  0.00     0.241 C
HETATM   25  O2  UNL     1      16.564  19.465  26.122  1.00  0.00    -0.269 OA
ATOM     26  H3  UNL     1      19.023  21.384  25.386  1.00  0.00     0.163 HD
BRANCH  24  27
HETATM   27  C18 UNL     1      16.343  21.694  25.478  1.00  0.00     0.071 C
HETATM   28  C19 UNL     1      15.062  21.558  25.209  1.00  0.00    -0.006 C
BRANCH  28  29
HETATM   29  C20 UNL     1      14.213  22.761  24.901  1.00  0.00     0.142 C
HETATM   30 CL1  UNL     1      12.492  22.362  25.081  1.00  0.00    -0.126 Cl
ENDBRANCH  28  29
ENDBRANCH  24  27
ENDBRANCH   1  23
TORSDOF 12
ENDMDL