MODEL 2
REMARK VINA RESULT: -8.306909198      1.087      1.619
REMARK  6 active torsions:
REMARK  status: ('A' for Active; 'I' for Inactive)
REMARK    1  A    between atoms: C1_4  and  N2_5
REMARK    2  A    between atoms: C1_4  and  C8_17
REMARK    3  A    between atoms: N2_5  and  C2_7
REMARK    4  A    between atoms: C2_7  and  C3_8
REMARK    5  A    between atoms: C3_8  and  N3_9
REMARK    6  A    between atoms: N3_9  and  N4_11
ROOT
HETATM    1  N2  UNL     1      44.606 -46.512  66.455  1.00  0.00    -0.374 N
ATOM      2  H2  UNL     1      43.605 -46.632  66.614  1.00  0.00     0.161 HD
ENDROOT
BRANCH   1   3
HETATM    3  C1  UNL     1      45.488 -46.362  67.555  1.00  0.00     0.105 C
HETATM    4  N1  UNL     1      46.732 -46.080  67.369  1.00  0.00    -0.385 N
ATOM      5  H12 UNL     1      47.061 -45.969  66.410  1.00  0.00     0.157 HD
ATOM      6  H11 UNL     1      47.367 -45.972  68.161  1.00  0.00     0.157 HD
BRANCH   3   7
HETATM    7  C8  UNL     1      45.020 -46.519  68.925  1.00  0.00     0.007 A
HETATM    8  C9  UNL     1      43.674 -46.377  69.235  1.00  0.00     0.015 A
HETATM    9  C10 UNL     1      43.205 -46.521  70.526  1.00  0.00     0.001 A
HETATM   10  C11 UNL     1      44.069 -46.815  71.562  1.00  0.00     0.000 A
HETATM   11  C12 UNL     1      45.405 -46.954  71.243  1.00  0.00     0.001 A
HETATM   12  C13 UNL     1      45.879 -46.811  69.957  1.00  0.00     0.015 A
ENDBRANCH   3   7
ENDBRANCH   1   3
BRANCH   1  13
HETATM   13  C2  UNL     1      45.132 -46.493  65.109  1.00  0.00     0.142 C
BRANCH  13  14
HETATM   14  C3  UNL     1      44.957 -45.100  64.488  1.00  0.00     0.158 C
BRANCH  14  15
HETATM   15  N3  UNL     1      46.211 -44.557  64.078  1.00  0.00    -0.337 N
ATOM     16  H3  UNL     1      46.583 -43.701  64.489  1.00  0.00     0.180 HD
BRANCH  15  17
HETATM   17  N4  UNL     1      46.878 -45.227  63.126  1.00  0.00    -0.328 N
HETATM   18  C4  UNL     1      46.400 -45.175  61.793  1.00  0.00     0.168 C
HETATM   19  C5  UNL     1      47.282 -46.121  60.966  1.00  0.00     0.189 C
HETATM   20  O1  UNL     1      47.694 -47.211  61.689  1.00  0.00    -0.388 OA
HETATM   21  C6  UNL     1      48.496 -46.926  62.765  1.00  0.00     0.189 C
HETATM   22  C7  UNL     1      48.244 -45.510  63.299  1.00  0.00     0.168 C
ENDBRANCH  15  17
ENDBRANCH  14  15
ENDBRANCH  13  14
ENDBRANCH   1  13
TORSDOF 6
ENDMDL