MODEL 4
REMARK VINA RESULT: -8.541310469      1.306      1.870
REMARK  6 active torsions:
REMARK  status: ('A' for Active; 'I' for Inactive)
REMARK    1  A    between atoms: C5_7  and  N2_8
REMARK    2  A    between atoms: N2_8  and  C6_10
REMARK    3  A    between atoms: C6_10  and  C7_11
REMARK    4  A    between atoms: C7_11  and  C8_12
REMARK    5  A    between atoms: C8_12  and  N3_13
REMARK    6  A    between atoms: C8_12  and  C9_17
ROOT
HETATM    1  C6  UNL     1      46.333 -45.681  65.852  1.00  0.00     0.140 C
ENDROOT
BRANCH   1   2
HETATM    2  N2  UNL     1      47.196 -46.404  64.971  1.00  0.00    -0.226 N
ATOM      3  H2  UNL     1      47.798 -47.150  65.320  1.00  0.00     0.177 HD
BRANCH   2   4
HETATM    4  C5  UNL     1      47.192 -46.082  63.713  1.00  0.00     0.678 A
HETATM    5  N1  UNL     1      46.596 -44.964  63.266  1.00  0.00    -0.202 N
HETATM    6  C4  UNL     1      46.565 -44.590  61.974  1.00  0.00     0.108 A
ATOM      7  H1  UNL     1      46.137 -44.362  63.949  1.00  0.00     0.183 HD
HETATM    8  C3  UNL     1      47.182 -45.399  61.044  1.00  0.00     0.042 A
HETATM    9  C2  UNL     1      47.798 -46.546  61.472  1.00  0.00     0.024 A
HETATM   10  C1  UNL     1      48.471 -47.432  60.466  1.00  0.00     0.068 C
HETATM   11  N4  UNL     1      47.788 -46.857  62.780  1.00  0.00    -0.196 N
ATOM     12  H4  UNL     1      48.250 -47.714  63.081  1.00  0.00     0.184 HD
ENDBRANCH   2   4
ENDBRANCH   1   2
BRANCH   1  13
HETATM   13  C7  UNL     1      46.401 -46.125  67.274  1.00  0.00     0.058 C
BRANCH  13  14
HETATM   14  C8  UNL     1      45.404 -47.203  67.610  1.00  0.00     0.218 C
BRANCH  14  15
HETATM   15  N3  UNL     1      44.299 -47.217  66.668  1.00  0.00    -0.071 N
ATOM     16  H33 UNL     1      44.556 -46.773  65.785  1.00  0.00     0.275 HD
ATOM     17  H32 UNL     1      44.114 -48.159  66.322  1.00  0.00     0.275 HD
ATOM     18  H31 UNL     1      43.462 -46.795  67.069  1.00  0.00     0.275 HD
ENDBRANCH  14  15
BRANCH  14  19
HETATM   19  C9  UNL     1      44.881 -46.959  68.965  1.00  0.00    -0.028 A
HETATM   20  C10 UNL     1      43.571 -46.552  69.197  1.00  0.00     0.009 A
HETATM   21  C11 UNL     1      43.141 -46.340  70.499  1.00  0.00     0.001 A
HETATM   22  C12 UNL     1      43.979 -46.523  71.566  1.00  0.00     0.000 A
HETATM   23  C13 UNL     1      45.275 -46.924  71.353  1.00  0.00     0.001 A
HETATM   24  C14 UNL     1      45.704 -47.135  70.054  1.00  0.00     0.009 A
ENDBRANCH  14  19
ENDBRANCH  13  14
ENDBRANCH   1  13
TORSDOF 6
ENDMDL