MODEL 4
REMARK VINA RESULT: -8.271979329      1.275      2.002
REMARK  7 active torsions:
REMARK  status: ('A' for Active; 'I' for Inactive)
REMARK    1  A    between atoms: N1_2  and  C2_4
REMARK    2  A    between atoms: C2_4  and  C3_5
REMARK    3  A    between atoms: C2_4  and  C4_10
REMARK    4  A    between atoms: C3_5  and  N2_6
REMARK    5  A    between atoms: C4_10  and  O1_11
REMARK    6  A    between atoms: O1_11  and  C5_12
REMARK    7  A    between atoms: C8_15  and  C9_16
ROOT
HETATM    1  C5  UNL     1      45.956 -46.454  65.245  1.00  0.00     0.068 A
HETATM    2  C6  UNL     1      46.812 -46.046  66.260  1.00  0.00     0.037 A
HETATM    3  C7  UNL     1      46.382 -46.141  67.579  1.00  0.00     0.016 A
HETATM    4  C8  UNL     1      45.144 -46.625  67.882  1.00  0.00    -0.009 A
HETATM    5  C13 UNL     1      44.290 -47.031  66.901  1.00  0.00     0.016 A
HETATM    6  C14 UNL     1      44.707 -46.941  65.590  1.00  0.00     0.037 A
ENDROOT
BRANCH   1   7
HETATM    7  O1  UNL     1      46.389 -46.356  63.936  1.00  0.00    -0.349 OA
BRANCH   7   8
HETATM    8  C4  UNL     1      47.757 -46.069  63.661  1.00  0.00     0.202 C
BRANCH   8   9
HETATM    9  C2  UNL     1      48.032 -46.343  62.217  1.00  0.00     0.126 C
BRANCH   9  10
HETATM   10  N1  UNL     1      48.302 -47.728  61.950  1.00  0.00    -0.418 N
HETATM   11  C1  UNL     1      49.466 -48.250  62.591  1.00  0.00     0.140 C
ATOM     12  H1  UNL     1      47.708 -48.296  61.346  1.00  0.00     0.153 HD
ENDBRANCH   9  10
BRANCH   9  13
HETATM   13  C3  UNL     1      46.906 -45.785  61.371  1.00  0.00     0.256 C
BRANCH  13  14
HETATM   14  N2  UNL     1      46.914 -44.337  61.574  1.00  0.00    -0.077 N
ATOM     15  H23 UNL     1      46.440 -44.046  62.429  1.00  0.00     0.274 HD
ATOM     16  H22 UNL     1      47.835 -43.966  61.807  1.00  0.00     0.274 HD
ATOM     17  H21 UNL     1      46.514 -43.925  60.730  1.00  0.00     0.274 HD
ENDBRANCH  13  14
ENDBRANCH   9  13
ENDBRANCH   8   9
ENDBRANCH   7   8
ENDBRANCH   1   7
BRANCH   4  18
HETATM   18  C9  UNL     1      44.745 -46.696  69.296  1.00  0.00     0.042 A
HETATM   19  C10 UNL     1      45.596 -47.005  70.343  1.00  0.00     0.031 A
HETATM   20  C11 UNL     1      44.848 -46.972  71.503  1.00  0.00     0.019 A
HETATM   21  C12 UNL     1      43.540 -46.641  71.166  1.00  0.00     0.088 A
HETATM   22  N3  UNL     1      43.549 -46.490  69.835  1.00  0.00    -0.365 N
ATOM     23  H3  UNL     1      42.723 -46.242  69.292  1.00  0.00     0.165 HD
ENDBRANCH   4  18
TORSDOF 7
ENDMDL