MODEL 4
REMARK VINA RESULT: -8.050053124      1.657      1.859
REMARK  6 active torsions:
REMARK  status: ('A' for Active; 'I' for Inactive)
REMARK    1  A    between atoms: N1_1  and  N2_4
REMARK    2  A    between atoms: N3_6  and  C1_8
REMARK    3  A    between atoms: N5_14  and  C5_16
REMARK    4  A    between atoms: C5_16  and  C6_17
REMARK    5  A    between atoms: C6_17  and  O1_18
REMARK    6  A    between atoms: O1_18  and  C7_19
ROOT
HETATM    1  C1  UNL     1      47.977 -46.221  61.942  1.00  0.00     0.054 A
HETATM    2  C2  UNL     1      46.813 -45.722  61.392  1.00  0.00     0.048 A
HETATM    3  C3  UNL     1      45.793 -45.423  62.279  1.00  0.00     0.092 A
HETATM    4  N4  UNL     1      45.916 -45.606  63.606  1.00  0.00    -0.352 N
ATOM      5  H4  UNL     1      45.131 -45.368  64.213  1.00  0.00     0.166 HD
HETATM    6  C4  UNL     1      47.045 -46.091  64.160  1.00  0.00     0.102 A
HETATM    7  N5  UNL     1      47.128 -46.251  65.418  1.00  0.00    -0.374 N
ATOM      8  H5  UNL     1      47.988 -46.620  65.826  1.00  0.00     0.161 HD
HETATM    9  C13 UNL     1      48.094 -46.404  63.302  1.00  0.00     0.079 A
ENDROOT
BRANCH   7  10
HETATM   10  C5  UNL     1      46.017 -45.915  66.273  1.00  0.00     0.148 C
BRANCH  10  11
HETATM   11  C6  UNL     1      45.324 -47.123  66.825  1.00  0.00     0.195 C
BRANCH  11  12
HETATM   12  O1  UNL     1      44.204 -46.799  67.617  1.00  0.00    -0.350 OA
BRANCH  12  13
HETATM   13  C7  UNL     1      44.365 -46.797  68.994  1.00  0.00     0.068 A
HETATM   14  C8  UNL     1      45.562 -47.165  69.607  1.00  0.00     0.037 A
HETATM   15  C9  UNL     1      45.670 -47.145  70.995  1.00  0.00     0.003 A
HETATM   16  C10 UNL     1      44.619 -46.767  71.786  1.00  0.00     0.000 A
HETATM   17  C11 UNL     1      43.450 -46.408  71.171  1.00  0.00     0.003 A
HETATM   18  C12 UNL     1      43.315 -46.420  69.798  1.00  0.00     0.037 A
ENDBRANCH  12  13
ENDBRANCH  11  12
ENDBRANCH  10  11
ENDBRANCH   7  10
BRANCH   1  19
HETATM   19  N3  UNL     1      49.048 -46.541  61.080  1.00  0.00    -0.287 N
HETATM   20  N2  UNL     1      49.347 -47.703  60.710  1.00  0.00    -0.249 N
ATOM     21  H2  UNL     1      50.145 -47.817  60.085  1.00  0.00     0.207 HD
ATOM     22  H3  UNL     1      49.622 -45.772  60.732  1.00  0.00     0.188 HD
BRANCH  20  23
HETATM   23  N1  UNL     1      48.657 -48.841  61.100  1.00  0.00    -0.331 N
ATOM     24  H12 UNL     1      47.965 -49.210  60.447  1.00  0.00     0.178 HD
ATOM     25  H11 UNL     1      48.804 -49.318  61.989  1.00  0.00     0.178 HD
ENDBRANCH  20  23
ENDBRANCH   1  19
TORSDOF 6
ENDMDL