MODEL 4
REMARK VINA RESULT: -5.911397576      2.455      3.930
REMARK  6 active torsions:
REMARK  status: ('A' for Active; 'I' for Inactive)
REMARK    1  A    between atoms: C2_2  and  N1_3
REMARK    2  A    between atoms: N1_3  and  C3_5
REMARK    3  A    between atoms: C3_5  and  C5_13
REMARK    4  A    between atoms: N2_6  and  N3_8
REMARK    5  A    between atoms: C10_18  and  O1_19
REMARK    6  A    between atoms: O1_19  and  C11_20
ROOT
HETATM    1  C3  UNL     1      49.934 -46.645  62.679  1.00  0.00     0.129 C
HETATM    2  N2  UNL     1      50.056 -47.900  62.692  1.00  0.00    -0.283 N
ATOM      3  H2  UNL     1      50.981 -48.284  62.888  1.00  0.00     0.188 HD
ENDROOT
BRANCH   1   4
HETATM    4  N1  UNL     1      51.060 -45.812  62.927  1.00  0.00    -0.375 N
ATOM      5  H1  UNL     1      51.658 -46.029  63.724  1.00  0.00     0.161 HD
BRANCH   4   6
HETATM    6  C2  UNL     1      51.396 -44.681  62.108  1.00  0.00     0.116 C
HETATM    7  C1  UNL     1      51.180 -43.405  62.852  1.00  0.00     0.026 C
ENDBRANCH   4   6
ENDBRANCH   1   4
BRANCH   1   8
HETATM    8  C5  UNL     1      48.666 -45.991  62.443  1.00  0.00     0.042 A
HETATM    9  C6  UNL     1      48.018 -45.389  63.537  1.00  0.00     0.018 A
HETATM   10  C7  UNL     1      46.807 -44.772  63.398  1.00  0.00     0.001 A
HETATM   11  C8  UNL     1      46.176 -44.721  62.178  1.00  0.00     0.003 A
HETATM   12  C9  UNL     1      46.811 -45.311  61.103  1.00  0.00     0.038 A
HETATM   13  C10 UNL     1      48.044 -45.950  61.197  1.00  0.00     0.082 A
BRANCH  13  14
HETATM   14  O1  UNL     1      48.642 -46.528  60.119  1.00  0.00    -0.351 OA
BRANCH  14  15
HETATM   15  C11 UNL     1      48.117 -47.349  59.140  1.00  0.00     0.171 C
HETATM   16  C12 UNL     1      49.035 -47.803  58.066  1.00  0.00     0.034 C
ENDBRANCH  14  15
ENDBRANCH  13  14
ENDBRANCH   1   8
BRANCH   2  17
HETATM   17  N3  UNL     1      49.028 -48.794  62.461  1.00  0.00    -0.274 N
HETATM   18  C4  UNL     1      49.110 -49.719  61.595  1.00  0.00     0.215 C
HETATM   19  N4  UNL     1      48.027 -50.596  61.408  1.00  0.00    -0.065 NA
HETATM   20  N5  UNL     1      50.290 -49.873  60.812  1.00  0.00    -0.065 NA
ATOM     21  H3  UNL     1      48.170 -48.708  63.007  1.00  0.00     0.189 HD
ENDBRANCH   2  17
TORSDOF 6
ENDMDL