MODEL 2
REMARK VINA RESULT: -6.869267276      1.920      3.438
REMARK  6 active torsions:
REMARK  status: ('A' for Active; 'I' for Inactive)
REMARK    1  A    between atoms: N1_2  and  C2_4
REMARK    2  A    between atoms: C4_6  and  C5_7
REMARK    3  A    between atoms: C5_7  and  N2_8
REMARK    4  A    between atoms: N2_8  and  C6_11
REMARK    5  A    between atoms: C6_11  and  C7_12
REMARK    6  A    between atoms: C12_17  and  O1_18
ROOT
HETATM    1  N2  UNL     1      45.948 -46.635  63.720  1.00  0.00    -0.066 N
ATOM      2  H21 UNL     1      45.759 -47.574  63.369  1.00  0.00     0.277 HD
ATOM      3  H22 UNL     1      46.799 -46.841  64.243  1.00  0.00     0.277 HD
ENDROOT
BRANCH   1   4
HETATM    4  C5  UNL     1      44.898 -46.156  64.569  1.00  0.00     0.291 C
BRANCH   4   5
HETATM    5  C4  UNL     1      45.254 -46.298  65.985  1.00  0.00     0.055 A
HETATM    6  C3  UNL     1      44.640 -46.920  67.032  1.00  0.00     0.077 A
HETATM    7  C2  UNL     1      45.434 -46.761  68.156  1.00  0.00     0.117 A
HETATM    8  N4  UNL     1      46.516 -46.038  67.745  1.00  0.00    -0.286 N
HETATM    9  N3  UNL     1      46.436 -45.755  66.493  1.00  0.00    -0.302 N
ATOM     10  H4  UNL     1      47.286 -45.758  68.352  1.00  0.00     0.188 HD
ATOM     11  H3  UNL     1      47.123 -45.223  65.958  1.00  0.00     0.186 HD
BRANCH   7  12
HETATM   12  N1  UNL     1      45.256 -47.159  69.365  1.00  0.00    -0.380 N
HETATM   13  C1  UNL     1      45.924 -46.775  70.527  1.00  0.00     0.147 C
ATOM     14  H1  UNL     1      44.522 -47.854  69.493  1.00  0.00     0.160 HD
ENDBRANCH   7  12
ENDBRANCH   4   5
ENDBRANCH   1   4
BRANCH   1  15
HETATM   15  C6  UNL     1      46.182 -45.706  62.663  1.00  0.00     0.274 C
BRANCH  15  16
HETATM   16  C7  UNL     1      47.605 -45.415  62.477  1.00  0.00     0.001 A
HETATM   17  C8  UNL     1      48.199 -44.227  62.906  1.00  0.00     0.011 A
HETATM   18  C9  UNL     1      49.577 -44.051  62.860  1.00  0.00     0.001 A
HETATM   19  C10 UNL     1      50.359 -45.071  62.380  1.00  0.00     0.003 A
HETATM   20  C11 UNL     1      49.764 -46.266  61.948  1.00  0.00     0.037 A
HETATM   21  C12 UNL     1      48.401 -46.466  61.983  1.00  0.00     0.076 A
BRANCH  21  22
HETATM   22  O1  UNL     1      47.839 -47.648  61.546  1.00  0.00    -0.355 OA
HETATM   23  C13 UNL     1      48.588 -48.514  60.763  1.00  0.00     0.210 C
ENDBRANCH  21  22
ENDBRANCH  15  16
ENDBRANCH   1  15
TORSDOF 6
ENDMDL