MODEL 2
REMARK VINA RESULT: -6.958086137      3.670      5.599
REMARK  6 active torsions:
REMARK  status: ('A' for Active; 'I' for Inactive)
REMARK    1  A    between atoms: O1_2  and  C2_3
REMARK    2  A    between atoms: C7_8  and  C8_9
REMARK    3  A    between atoms: C8_9  and  C9_10
REMARK    4  A    between atoms: C9_10  and  N1_11
REMARK    5  A    between atoms: C9_10  and  C10_15
REMARK    6  A    between atoms: C10_15  and  C11_19
ROOT
HETATM    1  C9  UNL     1      48.188 -45.103  63.363  1.00  0.00     0.239 C
ENDROOT
BRANCH   1   2
HETATM    2  C8  UNL     1      46.900 -44.651  63.944  1.00  0.00     0.080 C
BRANCH   2   3
HETATM    3  C7  UNL     1      46.280 -45.503  64.950  1.00  0.00    -0.022 A
HETATM    4  C2  UNL     1      45.118 -46.178  64.589  1.00  0.00     0.074 A
HETATM    5  C3  UNL     1      44.455 -47.011  65.456  1.00  0.00     0.037 A
HETATM    6  C4  UNL     1      44.931 -47.208  66.738  1.00  0.00     0.003 A
HETATM    7  C5  UNL     1      46.081 -46.553  67.125  1.00  0.00     0.001 A
HETATM    8  C6  UNL     1      46.731 -45.719  66.231  1.00  0.00     0.010 A
BRANCH   4   9
HETATM    9  O1  UNL     1      44.599 -46.014  63.315  1.00  0.00    -0.355 OA
HETATM   10  C1  UNL     1      43.637 -45.048  63.004  1.00  0.00     0.210 C
ENDBRANCH   4   9
ENDBRANCH   2   3
ENDBRANCH   1   2
BRANCH   1  11
HETATM   11  N1  UNL     1      48.964 -44.058  62.752  1.00  0.00    -0.069 N
ATOM     12  H13 UNL     1      49.051 -44.220  61.748  1.00  0.00     0.275 HD
ATOM     13  H12 UNL     1      48.439 -43.183  62.743  1.00  0.00     0.275 HD
ATOM     14  H11 UNL     1      49.884 -43.916  63.169  1.00  0.00     0.275 HD
ENDBRANCH   1  11
BRANCH   1  15
HETATM   15  C10 UNL     1      47.918 -46.126  62.322  1.00  0.00     0.060 C
HETATM   16  N2  UNL     1      47.039 -45.839  61.425  1.00  0.00    -0.399 N
ATOM     17  H22 UNL     1      46.549 -44.945  61.435  1.00  0.00     0.156 HD
ATOM     18  H21 UNL     1      46.853 -46.542  60.710  1.00  0.00     0.156 HD
BRANCH  15  19
HETATM   19  C11 UNL     1      48.624 -47.414  62.309  1.00  0.00     0.056 A
HETATM   20  C12 UNL     1      49.513 -47.868  63.256  1.00  0.00     0.033 A
HETATM   21  C13 UNL     1      49.966 -49.127  62.885  1.00  0.00     0.019 A
HETATM   22  C14 UNL     1      49.331 -49.405  61.706  1.00  0.00     0.088 A
HETATM   23  N3  UNL     1      48.530 -48.371  61.374  1.00  0.00    -0.364 N
ATOM     24  H3  UNL     1      47.945 -48.323  60.540  1.00  0.00     0.165 HD
ENDBRANCH  15  19
ENDBRANCH   1  15
TORSDOF 6
ENDMDL