MODEL 1
REMARK VINA RESULT: -6.574037419      0.000      0.000
REMARK  6 active torsions:
REMARK  status: ('A' for Active; 'I' for Inactive)
REMARK    1  A    between atoms: N1_2  and  C2_5
REMARK    2  A    between atoms: C2_5  and  C3_6
REMARK    3  A    between atoms: C3_6  and  N2_7
REMARK    4  A    between atoms: C3_6  and  C4_11
REMARK    5  A    between atoms: C4_11  and  C5_12
REMARK    6  A    between atoms: C10_17  and  O1_18
ROOT
HETATM    1  C5  UNL     1      46.055 -45.709  64.922  1.00  0.00    -0.045 A
HETATM    2  C6  UNL     1      44.766 -45.241  64.616  1.00  0.00     0.008 A
HETATM    3  C7  UNL     1      44.313 -45.162  63.317  1.00  0.00     0.002 A
HETATM    4  C8  UNL     1      45.115 -45.543  62.265  1.00  0.00     0.015 A
HETATM    5  C9  UNL     1      46.383 -46.004  62.563  1.00  0.00     0.008 A
HETATM    6  C10 UNL     1      47.201 -46.398  61.501  1.00  0.00     0.079 A
HETATM    7  C12 UNL     1      48.456 -46.861  61.794  1.00  0.00     0.037 A
HETATM    8  C13 UNL     1      48.936 -46.953  63.081  1.00  0.00     0.004 A
HETATM    9  C14 UNL     1      48.122 -46.561  64.140  1.00  0.00     0.013 A
HETATM   10  C15 UNL     1      46.860 -46.092  63.865  1.00  0.00    -0.017 A
ENDROOT
BRANCH   1  11
HETATM   11  C4  UNL     1      46.455 -45.732  66.312  1.00  0.00     0.074 C
BRANCH  11  12
HETATM   12  C3  UNL     1      45.396 -46.358  67.235  1.00  0.00     0.213 C
BRANCH  12  13
HETATM   13  C2  UNL     1      45.769 -46.163  68.682  1.00  0.00     0.264 C
BRANCH  13  14
HETATM   14  N1  UNL     1      45.345 -47.241  69.534  1.00  0.00    -0.077 N
HETATM   15  C1  UNL     1      45.786 -47.072  70.875  1.00  0.00     0.267 C
ATOM     16  H12 UNL     1      45.638 -48.143  69.159  1.00  0.00     0.276 HD
ATOM     17  H11 UNL     1      44.334 -47.369  69.492  1.00  0.00     0.276 HD
ENDBRANCH  13  14
ENDBRANCH  12  13
BRANCH  12  18
HETATM   18  N2  UNL     1      45.244 -47.777  66.915  1.00  0.00    -0.073 N
ATOM     19  H23 UNL     1      45.684 -48.369  67.619  1.00  0.00     0.274 HD
ATOM     20  H22 UNL     1      44.280 -48.087  67.030  1.00  0.00     0.274 HD
ATOM     21  H21 UNL     1      45.595 -47.983  65.979  1.00  0.00     0.274 HD
ENDBRANCH  12  18
ENDBRANCH  11  12
ENDBRANCH   1  11
BRANCH   6  22
HETATM   22  O1  UNL     1      46.686 -46.292  60.227  1.00  0.00    -0.355 OA
HETATM   23  C11 UNL     1      47.039 -47.050  59.114  1.00  0.00     0.210 C
ENDBRANCH   6  22
TORSDOF 6
ENDMDL