MODEL 5
REMARK VINA RESULT: -6.664739973      3.034      4.423
REMARK  5 active torsions:
REMARK  status: ('A' for Active; 'I' for Inactive)
REMARK    1  A    between atoms: N1_2  and  C3_4
REMARK    2  A    between atoms: C3_4  and  C4_5
REMARK    3  A    between atoms: C4_5  and  N2_6
REMARK       I    between atoms: N2_6  and  C5_8
REMARK       I    between atoms: C5_8  and  N4_12
REMARK    4  A    between atoms: N4_12  and  N5_14
REMARK    5  A    between atoms: C6_16  and  C7_17
ROOT
HETATM    1  N2  UNL     1      49.005 -45.460  61.888  1.00  0.00    -0.224 N
ATOM      2  H2  UNL     1      49.309 -45.448  60.914  1.00  0.00     0.177 HD
HETATM    3  C5  UNL     1      48.203 -46.501  62.361  1.00  0.00     0.686 C
HETATM    4  N3  UNL     1      48.229 -47.651  61.827  1.00  0.00    -0.234 N
ATOM      5  H31 UNL     1      47.644 -48.411  62.172  1.00  0.00     0.174 HD
ATOM      6  H32 UNL     1      48.850 -47.819  61.035  1.00  0.00     0.174 HD
HETATM    7  N4  UNL     1      47.336 -46.266  63.467  1.00  0.00    -0.133 N
ATOM      8  H4  UNL     1      47.761 -45.973  64.347  1.00  0.00     0.205 HD
ENDROOT
BRANCH   1   9
HETATM    9  C4  UNL     1      49.402 -44.400  62.783  1.00  0.00     0.168 C
BRANCH   9  10
HETATM   10  C3  UNL     1      50.811 -43.921  62.505  1.00  0.00     0.291 C
BRANCH  10  11
HETATM   11  N1  UNL     1      51.074 -42.704  63.216  1.00  0.00     0.081 N
HETATM   12  C1  UNL     1      51.063 -41.581  62.300  1.00  0.00     0.309 C
HETATM   13  C2  UNL     1      52.343 -42.720  63.914  1.00  0.00     0.309 C
ENDBRANCH  10  11
ENDBRANCH   9  10
ENDBRANCH   1   9
BRANCH   7  14
HETATM   14  N5  UNL     1      45.988 -46.404  63.436  1.00  0.00    -0.297 N
HETATM   15  C6  UNL     1      45.159 -46.483  64.349  1.00  0.00     0.119 C
ATOM     16  H5  UNL     1      45.589 -46.450  62.498  1.00  0.00     0.186 HD
BRANCH  15  17
HETATM   17  C7  UNL     1      45.278 -46.464  65.778  1.00  0.00    -0.019 A
HETATM   18  C8  UNL     1      44.266 -46.978  66.591  1.00  0.00     0.013 A
HETATM   19  C9  UNL     1      44.376 -46.962  67.959  1.00  0.00     0.001 A
HETATM   20  C10 UNL     1      45.477 -46.442  68.597  1.00  0.00     0.000 A
HETATM   21  C11 UNL     1      46.478 -45.934  67.831  1.00  0.00     0.001 A
HETATM   22  C12 UNL     1      46.368 -45.951  66.433  1.00  0.00     0.013 A
ENDBRANCH  15  17
ENDBRANCH   7  14
TORSDOF 5
ENDMDL