MODEL 2
REMARK VINA RESULT: -7.242721500      4.275      6.314
REMARK  5 active torsions:
REMARK  status: ('A' for Active; 'I' for Inactive)
REMARK    1  A    between atoms: C2_2  and  C4_4
REMARK    2  A    between atoms: C4_4  and  N1_5
REMARK    3  A    between atoms: N1_5  and  C5_7
REMARK    4  A    between atoms: C8_10  and  S1_11
REMARK    5  A    between atoms: S1_11  and  N2_12
ROOT
HETATM    1  C5  UNL     1      45.879 -46.446  66.782  1.00  0.00     0.052 A
HETATM    2  C6  UNL     1      46.578 -45.910  67.856  1.00  0.00     0.032 A
HETATM    3  C7  UNL     1      46.050 -45.804  69.122  1.00  0.00     0.027 A
HETATM    4  C8  UNL     1      44.744 -46.263  69.318  1.00  0.00     0.081 A
HETATM    5  C9  UNL     1      44.015 -46.800  68.280  1.00  0.00     0.054 A
HETATM    6  C10 UNL     1      44.590 -46.884  67.031  1.00  0.00     0.074 A
HETATM    7  N3  UNL     1      43.854 -47.433  65.956  1.00  0.00    -0.100 NA
ENDROOT
BRANCH   1   8
HETATM    8  N1  UNL     1      46.463 -46.536  65.489  1.00  0.00    -0.388 N
ATOM      9  H1  UNL     1      46.640 -47.453  65.078  1.00  0.00     0.159 HD
BRANCH   8  10
HETATM   10  C4  UNL     1      46.807 -45.349  64.753  1.00  0.00     0.123 C
BRANCH  10  11
HETATM   11  C2  UNL     1      45.812 -45.154  63.634  1.00  0.00    -0.005 C
HETATM   12  C1  UNL     1      44.667 -44.268  64.032  1.00  0.00     0.011 C
HETATM   13  C3  UNL     1      46.547 -44.658  62.417  1.00  0.00     0.011 C
ENDBRANCH  10  11
ENDBRANCH   8  10
ENDBRANCH   1   8
BRANCH   4  14
HETATM   14  S1  UNL     1      44.081 -46.127  70.917  1.00  0.00     0.256 S
HETATM   15  O1  UNL     1      44.350 -44.767  71.509  1.00  0.00    -0.201 OA
HETATM   16  O2  UNL     1      42.597 -46.329  70.854  1.00  0.00    -0.201 OA
BRANCH  14  17
HETATM   17  N2  UNL     1      44.758 -47.378  71.885  1.00  0.00    -0.324 N
ATOM     18  H22 UNL     1      44.254 -48.201  72.219  1.00  0.00     0.169 HD
ATOM     19  H21 UNL     1      45.737 -47.150  72.060  1.00  0.00     0.169 HD
ENDBRANCH  14  17
ENDBRANCH   4  14
TORSDOF 5
ENDMDL