MODEL 5
REMARK VINA RESULT: -5.859190994      1.949      2.741
REMARK  4 active torsions:
REMARK  status: ('A' for Active; 'I' for Inactive)
REMARK    1  A    between atoms: N1_1  and  C1_5
REMARK    2  A    between atoms: C1_5  and  C2_6
REMARK    3  A    between atoms: C6_10  and  C7_11
REMARK    4  A    between atoms: C7_11  and  N2_12
ROOT
HETATM    1  C2  UNL     1      -9.401 -32.177  18.459  1.00  0.00     0.017 C
HETATM    2  C3  UNL     1     -10.424 -31.189  19.075  1.00  0.00     0.007 C
HETATM    3  C4  UNL     1     -11.394 -31.016  17.956  1.00  0.00     0.001 C
HETATM    4  C5  UNL     1     -10.533 -31.077  16.702  1.00  0.00     0.007 C
HETATM    5  C6  UNL     1      -9.100 -31.354  17.192  1.00  0.00     0.020 C
ENDROOT
BRANCH   5   6
HETATM    6  C7  UNL     1      -8.367 -32.129  16.148  1.00  0.00     0.281 C
BRANCH   6   7
HETATM    7  N2  UNL     1      -7.383 -31.486  15.387  1.00  0.00     0.122 N
HETATM    8  C8  UNL     1      -7.364 -32.130  14.015  1.00  0.00     0.280 C
HETATM    9  C9  UNL     1      -8.291 -31.017  13.606  1.00  0.00     0.100 C
HETATM   10  C10 UNL     1      -7.483 -30.270  14.692  1.00  0.00     0.406 C
HETATM   11  F1  UNL     1      -8.079 -29.163  15.160  1.00  0.00    -0.216 F
ENDBRANCH   6   7
ENDBRANCH   5   6
BRANCH   1  12
HETATM   12  C1  UNL     1      -8.253 -32.259  19.404  1.00  0.00     0.234 C
BRANCH  12  13
HETATM   13  N1  UNL     1      -7.987 -33.536  19.987  1.00  0.00    -0.079 N
ATOM     14  H13 UNL     1      -8.849 -33.919  20.375  1.00  0.00     0.274 HD
ATOM     15  H12 UNL     1      -7.795 -34.215  19.249  1.00  0.00     0.274 HD
ATOM     16  H11 UNL     1      -7.248 -33.577  20.689  1.00  0.00     0.274 HD
ENDBRANCH  12  13
ENDBRANCH   1  12
TORSDOF 4
ENDMDL