MODEL 1
REMARK VINA RESULT: -6.178894803      0.000      0.000
REMARK  3 active torsions:
REMARK  status: ('A' for Active; 'I' for Inactive)
REMARK    1  A    between atoms: C2_2  and  C3_3
REMARK    2  A    between atoms: C3_3  and  N1_4
REMARK    3  A    between atoms: C6_7  and  C7_8
ROOT
HETATM    1  N1  UNL     1      -8.710 -31.994  16.550  1.00  0.00    -0.232 NA
HETATM    2  C4  UNL     1      -7.632 -32.529  17.403  1.00  0.00     0.114 C
HETATM    3  C5  UNL     1      -8.340 -33.048  18.643  1.00  0.00     0.026 C
HETATM    4  C6  UNL     1      -8.827 -31.808  19.365  1.00  0.00     0.044 C
HETATM    5  C8  UNL     1      -9.716 -31.015  18.484  1.00  0.00     0.040 C
HETATM    6  C9  UNL     1      -9.733 -29.589  19.078  1.00  0.00     0.039 C
HETATM    7  C10 UNL     1     -11.176 -31.450  18.535  1.00  0.00     0.039 C
HETATM    8  N2  UNL     1      -9.270 -30.860  17.129  1.00  0.00    -0.345 N
ATOM      9  H2  UNL     1      -9.357 -29.978  16.625  1.00  0.00     0.175 HD
ENDROOT
BRANCH   1  10
HETATM   10  C3  UNL     1      -7.996 -31.535  15.350  1.00  0.00     0.139 C
BRANCH  10  11
HETATM   11  C2  UNL     1      -8.583 -30.353  14.725  1.00  0.00    -0.021 C
HETATM   12  C1  UNL     1      -7.914 -29.270  14.396  1.00  0.00     0.008 C
ENDBRANCH  10  11
ENDBRANCH   1  10
BRANCH   4  13
HETATM   13  C7  UNL     1      -9.423 -32.244  20.655  1.00  0.00     0.229 C
HETATM   14  F1  UNL     1      -9.443 -33.615  20.804  1.00  0.00    -0.255 F
ENDBRANCH   4  13
TORSDOF 3
ENDMDL