MODEL 5
REMARK VINA RESULT: -5.935058025      2.716      5.151
REMARK  3 active torsions:
REMARK  status: ('A' for Active; 'I' for Inactive)
REMARK    1  A    between atoms: C5_6  and  C6_7
REMARK    2  A    between atoms: C6_7  and  N1_8
REMARK    3  A    between atoms: N1_8  and  C7_10
ROOT
HETATM    1  F1  UNL     1      -8.443 -31.083  12.902  1.00  0.00    -0.249 F
HETATM    2  C1  UNL     1      -7.767 -30.784  14.060  1.00  0.00     0.171 C
HETATM    3  C2  UNL     1      -7.293 -32.072  14.689  1.00  0.00     0.042 C
HETATM    4  C3  UNL     1      -8.377 -32.538  15.627  1.00  0.00    -0.007 A
HETATM    5  C4  UNL     1      -7.987 -32.451  17.085  1.00  0.00     0.011 A
HETATM    6  C5  UNL     1      -8.965 -31.348  17.293  1.00  0.00     0.008 A
HETATM    7  C10 UNL     1      -9.326 -31.380  15.801  1.00  0.00    -0.002 A
HETATM    8  C11 UNL     1      -8.752 -30.210  15.042  1.00  0.00     0.042 C
ENDROOT
BRANCH   6   9
HETATM    9  C6  UNL     1     -10.145 -31.610  18.199  1.00  0.00     0.119 C
BRANCH   9  10
HETATM   10  N1  UNL     1     -10.117 -30.889  19.412  1.00  0.00    -0.417 N
ATOM     11  H1  UNL     1     -10.581 -29.986  19.512  1.00  0.00     0.153 HD
BRANCH  10  12
HETATM   12  C7  UNL     1      -9.407 -31.490  20.487  1.00  0.00     0.076 A
HETATM   13  C8  UNL     1     -10.021 -32.524  21.371  1.00  0.00     0.027 A
HETATM   14  C9  UNL     1      -8.941 -32.921  20.395  1.00  0.00     0.027 A
ENDBRANCH  10  12
ENDBRANCH   9  10
ENDBRANCH   6   9
TORSDOF 3
ENDMDL