MODEL 1
REMARK VINA RESULT: -5.438862673      0.000      0.000
REMARK  3 active torsions:
REMARK  status: ('A' for Active; 'I' for Inactive)
REMARK    1  A    between atoms: C1_2  and  C2_3
REMARK    2  A    between atoms: C2_3  and  N1_4
REMARK    3  A    between atoms: N1_4  and  C3_7
ROOT
HETATM    1  N1  UNL     1      -8.341 -33.116  17.135  1.00  0.00    -0.070 N
ATOM      2  H11 UNL     1      -7.502 -33.593  16.805  1.00  0.00     0.277 HD
ATOM      3  H12 UNL     1      -8.933 -33.925  17.317  1.00  0.00     0.277 HD
ENDROOT
BRANCH   1   4
HETATM    4  C2  UNL     1      -8.900 -32.296  16.106  1.00  0.00     0.243 C
BRANCH   4   5
HETATM    5  C1  UNL     1      -7.941 -31.866  15.029  1.00  0.00     0.112 C
HETATM    6 BR1  UNL     1      -8.041 -29.956  14.729  1.00  0.00    -0.095 Br
ENDBRANCH   4   5
ENDBRANCH   1   4
BRANCH   1   7
HETATM    7  C3  UNL     1      -8.069 -32.379  18.371  1.00  0.00     0.186 C
HETATM    8  C4  UNL     1      -9.223 -31.417  18.528  1.00  0.00     0.033 C
HETATM    9  C5  UNL     1      -9.844 -31.638  19.866  1.00  0.00     0.002 C
HETATM   10  C6  UNL     1      -8.879 -32.507  20.623  1.00  0.00     0.002 C
HETATM   11  C7  UNL     1      -8.150 -33.304  19.568  1.00  0.00     0.033 C
ENDBRANCH   1   7
TORSDOF 3
ENDMDL