MODEL 3
REMARK VINA RESULT: -5.984107721      1.408      1.735
REMARK  4 active torsions:
REMARK  status: ('A' for Active; 'I' for Inactive)
REMARK    1  A    between atoms: N1_1  and  C1_5
REMARK    2  A    between atoms: C1_5  and  C2_6
REMARK    3  A    between atoms: C1_5  and  C5_9
REMARK    4  A    between atoms: C1_5  and  C8_12
ROOT
HETATM    1  C1  UNL     1      -9.051 -31.400  16.561  1.00  0.00     0.136 C
ENDROOT
BRANCH   1   2
HETATM    2  N1  UNL     1      -9.832 -32.653  16.392  1.00  0.00    -0.069 N
ATOM      3  H13 UNL     1     -10.377 -32.690  15.531  1.00  0.00     0.275 HD
ATOM      4  H12 UNL     1      -9.261 -33.475  16.201  1.00  0.00     0.275 HD
ATOM      5  H11 UNL     1     -10.392 -32.724  17.240  1.00  0.00     0.275 HD
ENDBRANCH   1   2
BRANCH   1   6
HETATM    6  C2  UNL     1      -9.277 -30.633  15.280  1.00  0.00     0.022 A
HETATM    7  C3  UNL     1      -8.350 -29.536  14.903  1.00  0.00     0.007 A
HETATM    8  C4  UNL     1      -8.336 -30.781  14.101  1.00  0.00     0.007 A
ENDBRANCH   1   6
BRANCH   1   9
HETATM    9  C5  UNL     1      -7.639 -31.882  16.615  1.00  0.00     0.022 A
HETATM   10  C6  UNL     1      -6.878 -32.197  17.818  1.00  0.00     0.007 A
HETATM   11  C7  UNL     1      -7.247 -33.289  16.781  1.00  0.00     0.007 A
ENDBRANCH   1   9
BRANCH   1  12
HETATM   12  C8  UNL     1      -9.618 -30.702  17.703  1.00  0.00     0.042 A
HETATM   13  C9  UNL     1     -10.931 -30.873  18.317  1.00  0.00     0.029 A
HETATM   14  C10 UNL     1      -9.635 -31.052  19.136  1.00  0.00     0.089 A
HETATM   15 CL1  UNL     1      -9.237 -32.584  19.847  1.00  0.00    -0.125 Cl
ENDBRANCH   1  12
TORSDOF 4
ENDMDL