MODEL 3
REMARK VINA RESULT: -6.056033803      1.595      3.773
REMARK  3 active torsions:
REMARK  status: ('A' for Active; 'I' for Inactive)
REMARK    1  A    between atoms: C2_2  and  C3_3
REMARK    2  A    between atoms: C3_3  and  C4_4
REMARK    3  A    between atoms: C4_4  and  C5_5
ROOT
HETATM    1  C5  UNL     1      -8.888 -31.909  17.361  1.00  0.00     0.026 C
HETATM    2  C6  UNL     1      -9.802 -32.844  16.606  1.00  0.00     0.245 C
HETATM    3  N1  UNL     1     -11.137 -32.350  16.731  1.00  0.00    -0.071 N
ATOM      4  H11 UNL     1     -11.776 -33.056  17.097  1.00  0.00     0.277 HD
ATOM      5  H12 UNL     1     -11.580 -32.208  15.823  1.00  0.00     0.277 HD
HETATM    6  C7  UNL     1     -11.136 -31.166  17.520  1.00  0.00     0.276 C
HETATM    7  C8  UNL     1      -9.801 -31.028  18.187  1.00  0.00     0.140 C
HETATM    8  F1  UNL     1      -9.360 -29.777  18.461  1.00  0.00    -0.240 F
HETATM    9  C9  UNL     1      -9.547 -31.953  19.348  1.00  0.00     0.033 A
HETATM   10  C10 UNL     1      -8.157 -31.906  19.864  1.00  0.00     0.014 A
HETATM   11  C11 UNL     1      -8.363 -32.598  18.593  1.00  0.00     0.007 A
ENDROOT
BRANCH   1  12
HETATM   12  C4  UNL     1      -7.882 -31.181  16.537  1.00  0.00     0.015 C
BRANCH  12  13
HETATM   13  C3  UNL     1      -7.798 -31.716  15.146  1.00  0.00     0.001 C
BRANCH  13  14
HETATM   14  C2  UNL     1      -8.165 -30.721  14.091  1.00  0.00    -0.005 C
HETATM   15  C1  UNL     1      -8.026 -29.298  14.495  1.00  0.00     0.005 C
ENDBRANCH  13  14
ENDBRANCH  12  13
ENDBRANCH   1  12
TORSDOF 3
ENDMDL