MODEL 4
REMARK VINA RESULT: -5.064669025      1.774      2.696
REMARK  4 active torsions:
REMARK  status: ('A' for Active; 'I' for Inactive)
REMARK    1  A    between atoms: N1_1  and  C1_5
REMARK    2  A    between atoms: C1_5  and  C2_6
REMARK    3  A    between atoms: C2_6  and  C3_7
REMARK    4  A    between atoms: C3_7  and  C4_8
ROOT
HETATM    1  C2  UNL     1      -8.550 -30.089  15.726  1.00  0.00     0.027 C
ENDROOT
BRANCH   1   2
HETATM    2  C1  UNL     1      -8.043 -29.812  14.304  1.00  0.00     0.229 C
BRANCH   2   3
HETATM    3  N1  UNL     1      -8.224 -30.950  13.455  1.00  0.00    -0.079 N
ATOM      4  H13 UNL     1      -8.350 -30.674  12.482  1.00  0.00     0.274 HD
ATOM      5  H12 UNL     1      -7.361 -31.484  13.357  1.00  0.00     0.274 HD
ATOM      6  H11 UNL     1      -8.992 -31.537  13.779  1.00  0.00     0.274 HD
ENDBRANCH   2   3
ENDBRANCH   1   2
BRANCH   1   7
HETATM    7  C3  UNL     1      -9.633 -31.135  15.676  1.00  0.00     0.007 C
BRANCH   7   8
HETATM    8  C4  UNL     1      -9.445 -32.230  16.676  1.00  0.00     0.000 C
HETATM    9  C5  UNL     1      -8.295 -33.149  16.497  1.00  0.00     0.007 C
HETATM   10  C6  UNL     1      -8.001 -32.984  17.980  1.00  0.00     0.016 C
HETATM   11  C7  UNL     1      -8.726 -31.655  17.907  1.00  0.00     0.062 C
HETATM   12 BR1  UNL     1      -9.893 -31.276  19.376  1.00  0.00    -0.091 Br
ENDBRANCH   7   8
ENDBRANCH   1   7
TORSDOF 4
ENDMDL