MODEL 4
REMARK VINA RESULT: -5.433518862      1.544      4.856
REMARK  3 active torsions:
REMARK  status: ('A' for Active; 'I' for Inactive)
REMARK    1  A    between atoms: C2_2  and  C3_3
REMARK    2  A    between atoms: C3_3  and  N1_4
REMARK    3  A    between atoms: N1_4  and  C4_6
ROOT
HETATM    1  C4  UNL     1      -8.242 -32.034  17.363  1.00  0.00     0.119 C
HETATM    2  C5  UNL     1      -9.520 -31.403  16.831  1.00  0.00     0.226 C
HETATM    3  F1  UNL     1     -10.615 -32.198  17.153  1.00  0.00    -0.245 F
HETATM    4  C6  UNL     1      -9.097 -31.722  15.404  1.00  0.00     0.264 C
HETATM    5  C7  UNL     1      -7.751 -32.145  15.957  1.00  0.00     0.049 C
HETATM    6  C8  UNL     1      -6.815 -31.018  15.542  1.00  0.00     0.039 C
HETATM    7  C9  UNL     1      -7.760 -29.889  15.209  1.00  0.00     0.273 C
HETATM    8  N2  UNL     1      -8.831 -30.605  14.548  1.00  0.00     0.092 N
HETATM    9  C10 UNL     1      -8.233 -31.159  13.327  1.00  0.00     0.310 C
ENDROOT
BRANCH   1  10
HETATM   10  N1  UNL     1      -8.355 -33.210  18.141  1.00  0.00    -0.414 N
ATOM     11  H1  UNL     1      -8.735 -34.074  17.755  1.00  0.00     0.153 HD
BRANCH  10  12
HETATM   12  C3  UNL     1      -7.912 -33.126  19.483  1.00  0.00     0.114 C
BRANCH  12  13
HETATM   13  C2  UNL     1      -8.591 -31.967  20.201  1.00  0.00     0.015 C
HETATM   14  C1  UNL     1      -9.687 -32.512  21.050  1.00  0.00     0.006 C
ENDBRANCH  12  13
ENDBRANCH  10  12
ENDBRANCH   1  10
TORSDOF 3
ENDMDL