MODEL 2
REMARK VINA RESULT: -6.453606438      1.004      2.719
REMARK  8 active torsions:
REMARK  status: ('A' for Active; 'I' for Inactive)
REMARK    1  A    between atoms: C3_3  and  C4_4
REMARK    2  A    between atoms: C4_4  and  C5_5
REMARK    3  A    between atoms: C5_5  and  N1_6
REMARK    4  A    between atoms: N1_6  and  C6_8
REMARK    5  A    between atoms: C9_15  and  N4_16
REMARK    6  A    between atoms: N4_16  and  C10_18
REMARK    7  A    between atoms: C10_18  and  C11_19
REMARK    8  A    between atoms: C11_19  and  N5_20
ROOT
HETATM    1  C1  UNL     1      -0.023  34.738  98.877  1.00  0.00     0.112 C
HETATM    2  C2  UNL     1       0.486  34.433 100.227  1.00  0.00    -0.111 C
HETATM    3  C3  UNL     1       0.920  34.181 101.323  1.00  0.00    -0.105 C
ENDROOT
BRANCH   3   4
HETATM    4  C4  UNL     1       1.477  33.871 102.657  1.00  0.00     0.113 C
BRANCH   4   5
HETATM    5  C5  UNL     1       2.434  34.977 103.000  1.00  0.00     0.133 C
BRANCH   5   6
HETATM    6  N1  UNL     1       1.848  35.940 103.922  1.00  0.00    -0.372 N
ATOM      7  H1  UNL     1       1.797  35.747 104.923  1.00  0.00     0.161 HD
BRANCH   6   8
HETATM    8  C6  UNL     1       1.396  37.045 103.435  1.00  0.00     0.145 A
HETATM    9  N2  UNL     1       2.203  37.950 102.812  1.00  0.00    -0.348 N
HETATM   10  C7  UNL     1       1.740  39.092 102.309  1.00  0.00     0.107 A
ATOM     11  H2  UNL     1       3.199  37.745 102.727  1.00  0.00     0.167 HD
HETATM   12  C8  UNL     1       0.404  39.386 102.411  1.00  0.00     0.107 A
HETATM   13  N3  UNL     1      -0.447  38.515 103.026  1.00  0.00    -0.348 N
HETATM   14  C9  UNL     1       0.054  37.376 103.521  1.00  0.00     0.145 A
ATOM     15  H3  UNL     1      -1.442  38.727 103.106  1.00  0.00     0.167 HD
BRANCH  14  16
HETATM   16  N4  UNL     1      -0.741  36.554 104.099  1.00  0.00    -0.372 N
ATOM     17  H4  UNL     1      -0.532  36.317 105.069  1.00  0.00     0.161 HD
BRANCH  16  18
HETATM   18  C10 UNL     1      -1.890  35.938 103.520  1.00  0.00     0.148 C
BRANCH  18  19
HETATM   19  C11 UNL     1      -2.018  34.474 103.887  1.00  0.00     0.249 C
BRANCH  19  20
HETATM   20  N5  UNL     1      -1.376  34.167 105.137  1.00  0.00    -0.078 N
ATOM     21  H53 UNL     1      -0.782  33.343 105.054  1.00  0.00     0.274 HD
ATOM     22  H52 UNL     1      -0.663  34.860 105.364  1.00  0.00     0.274 HD
ATOM     23  H51 UNL     1      -2.046  34.064 105.899  1.00  0.00     0.274 HD
ENDBRANCH  19  20
ENDBRANCH  18  19
ENDBRANCH  16  18
ENDBRANCH  14  16
ENDBRANCH   6   8
ENDBRANCH   5   6
ENDBRANCH   4   5
ENDBRANCH   3   4
TORSDOF 8
ENDMDL