MODEL 2
REMARK VINA RESULT: -6.032044335      1.184      1.370
REMARK  6 active torsions:
REMARK  status: ('A' for Active; 'I' for Inactive)
REMARK    1  A    between atoms: N1_4  and  C4_5
REMARK    2  A    between atoms: C4_5  and  C5_6
REMARK    3  A    between atoms: C5_6  and  N2_8
REMARK    4  A    between atoms: C5_6  and  C7_12
REMARK    5  A    between atoms: C7_12  and  C8_13
REMARK    6  A    between atoms: C8_13  and  N3_14
ROOT
HETATM    1  C5  UNL     1      -1.858  34.892 103.624  1.00  0.00     0.138 C
HETATM    2  C6  UNL     1      -3.288  34.379 103.688  1.00  0.00     0.048 C
ENDROOT
BRANCH   1   3
HETATM    3  C4  UNL     1      -1.816  36.330 104.088  1.00  0.00     0.166 C
BRANCH   3   4
HETATM    4  N1  UNL     1      -0.765  37.090 103.503  1.00  0.00    -0.361 N
HETATM    5  C3  UNL     1       0.520  36.703 103.618  1.00  0.00     0.115 A
HETATM    6  C2  UNL     1       1.563  37.417 103.062  1.00  0.00     0.022 A
HETATM    7  C1  UNL     1       2.975  36.990 103.190  1.00  0.00     0.070 C
HETATM    8  N4  UNL     1       1.284  38.535 102.384  1.00  0.00    -0.362 N
HETATM    9  C10 UNL     1       0.007  38.955 102.246  1.00  0.00     0.107 A
HETATM   10  C11 UNL     1       2.346  39.300 101.793  1.00  0.00     0.155 C
HETATM   11  C9  UNL     1      -1.013  38.219 102.814  1.00  0.00     0.107 A
ENDBRANCH   3   4
ENDBRANCH   1   3
BRANCH   1  12
HETATM   12  N2  UNL     1      -1.049  34.022 104.406  1.00  0.00    -0.069 N
ATOM     13  H23 UNL     1      -0.188  33.789 103.914  1.00  0.00     0.275 HD
ATOM     14  H22 UNL     1      -0.657  34.517 105.208  1.00  0.00     0.275 HD
ATOM     15  H21 UNL     1      -1.536  33.176 104.704  1.00  0.00     0.275 HD
ENDBRANCH   1  12
BRANCH   1  16
HETATM   16  C7  UNL     1      -1.424  34.759 102.174  1.00  0.00     0.067 C
BRANCH  16  17
HETATM   17  C8  UNL     1      -2.636  35.071 101.326  1.00  0.00     0.232 C
BRANCH  17  18
HETATM   18  N3  UNL     1      -2.360  35.085  99.924  1.00  0.00    -0.079 N
ATOM     19  H33 UNL     1      -1.388  34.835  99.745  1.00  0.00     0.274 HD
ATOM     20  H32 UNL     1      -2.824  34.306  99.457  1.00  0.00     0.274 HD
ATOM     21  H31 UNL     1      -2.594  35.969  99.473  1.00  0.00     0.274 HD
ENDBRANCH  17  18
ENDBRANCH  16  17
ENDBRANCH   1  16
TORSDOF 6
ENDMDL