MODEL 1
REMARK VINA RESULT: -6.612520103      0.000      0.000
REMARK  6 active torsions:
REMARK  status: ('A' for Active; 'I' for Inactive)
REMARK    1  A    between atoms: C5_5  and  C6_6
REMARK    2  A    between atoms: C6_6  and  C7_7
REMARK    3  A    between atoms: C7_7  and  N1_8
REMARK    4  A    between atoms: N1_8  and  C10_11
REMARK    5  A    between atoms: C10_11  and  N2_12
REMARK    6  A    between atoms: N2_12  and  N3_13
ROOT
HETATM    1  C6  UNL     1      -0.244  35.784 101.077  1.00  0.00     0.087 C
ENDROOT
BRANCH   1   2
HETATM    2  C5  UNL     1      -0.764  35.122  99.883  1.00  0.00     0.034 C
HETATM    3  C4  UNL     1       0.091  34.608  99.013  1.00  0.00     0.027 C
HETATM    4  C3  UNL     1      -0.178  33.896  97.742  1.00  0.00     0.011 C
HETATM    5  C2  UNL     1      -1.326  33.720  97.123  1.00  0.00    -0.038 C
HETATM    6  C1  UNL     1      -1.381  32.976  95.857  1.00  0.00     0.050 C
HETATM    7  C11 UNL     1      -2.629  34.207  97.573  1.00  0.00     0.174 C
HETATM    8  O1  UNL     1      -2.963  34.761  98.651  1.00  0.00    -0.250 OA
HETATM    9  N4  UNL     1      -2.186  35.068  99.723  1.00  0.00    -0.266 N
ATOM     10  H4  UNL     1      -2.710  35.303 100.565  1.00  0.00     0.194 HD
ENDBRANCH   1   2
BRANCH   1  11
HETATM   11  C7  UNL     1      -1.233  36.647 101.787  1.00  0.00     0.244 C
BRANCH  11  12
HETATM   12  N1  UNL     1      -0.593  37.381 102.853  1.00  0.00    -0.060 N
HETATM   13  C8  UNL     1      -0.304  38.749 102.485  1.00  0.00     0.273 C
HETATM   14  C9  UNL     1       0.647  36.719 103.214  1.00  0.00     0.273 C
BRANCH  12  15
HETATM   15  C10 UNL     1      -1.408  37.428 104.055  1.00  0.00     0.370 C
BRANCH  15  16
HETATM   16  N2  UNL     1      -2.321  36.311 103.973  1.00  0.00    -0.120 NA
BRANCH  16  17
HETATM   17  N3  UNL     1      -2.141  35.386 104.991  1.00  0.00    -0.347 N
ATOM     18  H32 UNL     1      -2.904  34.818 105.359  1.00  0.00     0.172 HD
ATOM     19  H31 UNL     1      -1.178  35.339 105.323  1.00  0.00     0.172 HD
ENDBRANCH  16  17
ENDBRANCH  15  16
ENDBRANCH  12  15
ENDBRANCH  11  12
ENDBRANCH   1  11
TORSDOF 6
ENDMDL