MODEL 4
REMARK VINA RESULT: -7.666630908      1.334      2.983
REMARK  4 active torsions:
REMARK  status: ('A' for Active; 'I' for Inactive)
REMARK    1  A    between atoms: N2_4  and  N3_6
REMARK    2  A    between atoms: N3_6  and  C1_8
REMARK    3  A    between atoms: C1_8  and  C2_9
REMARK    4  A    between atoms: C2_9  and  C3_11
ROOT
HETATM    1  C3  UNL     1       0.650  34.221 102.599  1.00  0.00     0.013 A
HETATM    2  C4  UNL     1      -0.285  34.263 103.616  1.00  0.00     0.015 A
HETATM    3  C5  UNL     1      -1.646  34.547 103.404  1.00  0.00     0.002 A
HETATM    4  C6  UNL     1      -2.046  34.791 102.125  1.00  0.00     0.014 A
HETATM    5  C7  UNL     1      -1.170  34.766 101.076  1.00  0.00    -0.009 A
HETATM    6  C8  UNL     1      -1.610  34.953  99.778  1.00  0.00     0.015 A
HETATM    7  C9  UNL     1      -0.727  34.866  98.746  1.00  0.00     0.018 A
HETATM    8  C10 UNL     1       0.607  34.583  99.012  1.00  0.00     0.088 A
HETATM    9  N5  UNL     1       0.981  34.406 100.283  1.00  0.00    -0.365 N
ATOM     10  H5  UNL     1       1.963  34.199 100.468  1.00  0.00     0.165 HD
HETATM   11  C11 UNL     1       0.159  34.483 101.316  1.00  0.00     0.054 A
ENDROOT
BRANCH   1  12
HETATM   12  C2  UNL     1       2.081  34.026 102.820  1.00  0.00     0.055 C
HETATM   13  N4  UNL     1       2.447  32.871 103.552  1.00  0.00    -0.104 NA
BRANCH  12  14
HETATM   14  C1  UNL     1       2.852  35.276 103.087  1.00  0.00     0.195 C
BRANCH  14  15
HETATM   15  N3  UNL     1       4.163  35.196 102.436  1.00  0.00    -0.317 N
ATOM     16  H3  UNL     1       4.731  36.043 102.428  1.00  0.00     0.182 HD
BRANCH  15  17
HETATM   17  N2  UNL     1       4.694  34.075 101.835  1.00  0.00    -0.254 N
HETATM   18  N1  UNL     1       5.550  33.299 102.344  1.00  0.00    -0.331 N
ATOM     19  H12 UNL     1       5.866  33.536 103.285  1.00  0.00     0.178 HD
ATOM     20  H11 UNL     1       5.943  32.469 101.900  1.00  0.00     0.178 HD
ATOM     21  H2  UNL     1       4.367  33.853 100.895  1.00  0.00     0.207 HD
ENDBRANCH  15  17
ENDBRANCH  14  15
ENDBRANCH  12  14
ENDBRANCH   1  12
TORSDOF 4
ENDMDL