MODEL 5
REMARK VINA RESULT: -6.529501654      2.012      4.643
REMARK  6 active torsions:
REMARK  status: ('A' for Active; 'I' for Inactive)
REMARK    1  A    between atoms: N1_1  and  C1_4
REMARK    2  A    between atoms: N3_7  and  C2_8
REMARK    3  A    between atoms: C2_8  and  C3_9
REMARK    4  A    between atoms: C3_9  and  C4_10
REMARK    5  A    between atoms: C4_10  and  C5_11
REMARK    6  A    between atoms: C5_11  and  N4_12
ROOT
HETATM    1  C1  UNL     1      -2.056  34.560 104.123  1.00  0.00     0.690 A
HETATM    2  N2  UNL     1      -0.845  34.014 104.289  1.00  0.00    -0.131 N
ATOM      3  H2  UNL     1      -0.579  33.678 105.213  1.00  0.00     0.206 HD
HETATM    4  N3  UNL     1       0.024  33.896 103.284  1.00  0.00    -0.288 N
HETATM    5  C9  UNL     1      -0.334  34.344 102.054  1.00  0.00     0.128 A
HETATM    6  C10 UNL     1      -1.577  34.909 101.866  1.00  0.00     0.125 A
HETATM    7  N6  UNL     1      -2.438  35.011 102.921  1.00  0.00    -0.200 N
ATOM      8  H6  UNL     1      -3.361  35.426 102.795  1.00  0.00     0.183 HD
ENDROOT
BRANCH   4   9
HETATM    9  C2  UNL     1       1.325  33.314 103.444  1.00  0.00     0.149 C
BRANCH   9  10
HETATM   10  C3  UNL     1       2.432  34.278 103.050  1.00  0.00     0.023 C
BRANCH  10  11
HETATM   11  C4  UNL     1       2.513  35.437 104.020  1.00  0.00     0.022 C
BRANCH  11  12
HETATM   12  C5  UNL     1       2.959  36.649 103.250  1.00  0.00     0.129 C
BRANCH  12  13
HETATM   13  N4  UNL     1       1.914  37.618 103.054  1.00  0.00    -0.352 N
HETATM   14  C6  UNL     1       1.921  38.764 102.337  1.00  0.00     0.108 A
HETATM   15  C7  UNL     1       0.713  39.394 102.418  1.00  0.00     0.106 A
HETATM   16  N5  UNL     1      -0.058  38.621 103.201  1.00  0.00    -0.361 N
HETATM   17  C8  UNL     1       0.680  37.546 103.582  1.00  0.00     0.182 A
ATOM     18  H5  UNL     1      -1.025  38.809 103.462  1.00  0.00     0.166 HD
ENDBRANCH  12  13
ENDBRANCH  11  12
ENDBRANCH  10  11
ENDBRANCH   9  10
ENDBRANCH   4   9
BRANCH   1  19
HETATM   19  N1  UNL     1      -2.884  34.666 105.104  1.00  0.00    -0.233 N
ATOM     20  H12 UNL     1      -3.196  33.812 105.567  1.00  0.00     0.174 HD
ATOM     21  H11 UNL     1      -3.224  35.575 105.417  1.00  0.00     0.174 HD
ENDBRANCH   1  19
TORSDOF 6
ENDMDL