MODEL 1
REMARK VINA RESULT: -7.389471141      0.000      0.000
REMARK  4 active torsions:
REMARK  status: ('A' for Active; 'I' for Inactive)
REMARK    1  A    between atoms: N1_1  and  C1_5
REMARK    2  A    between atoms: C1_5  and  C2_6
REMARK    3  A    between atoms: C5_11  and  C6_12
REMARK    4  A    between atoms: C6_12  and  C7_13
ROOT
HETATM    1  C2  UNL     1       1.687  37.766 102.748  1.00  0.00    -0.010 A
HETATM    2  C3  UNL     1       1.520  39.117 103.083  1.00  0.00     0.097 A
HETATM    3  N2  UNL     1       0.276  39.508 102.769  1.00  0.00    -0.374 N
ATOM      4  H2  UNL     1      -0.105  40.443 102.909  1.00  0.00     0.164 HD
HETATM    5  C4  UNL     1      -0.375  38.484 102.249  1.00  0.00     0.095 A
HETATM    6  C5  UNL     1       0.475  37.378 102.221  1.00  0.00    -0.029 A
ENDROOT
BRANCH   6   7
HETATM    7  C6  UNL     1       0.122  36.031 101.741  1.00  0.00     0.077 C
BRANCH   7   8
HETATM    8  C7  UNL     1      -0.128  35.013 102.735  1.00  0.00    -0.044 A
HETATM    9  C8  UNL     1      -1.323  34.834 103.349  1.00  0.00     0.013 A
HETATM   10  C9  UNL     1      -2.611  35.308 103.425  1.00  0.00     0.032 A
HETATM   11  C11 UNL     1      -1.242  33.790 104.236  1.00  0.00     0.111 A
HETATM   12  C10 UNL     1      -3.303  34.561 104.345  1.00  0.00     0.090 A
HETATM   13  N3  UNL     1      -2.445  33.645 104.823  1.00  0.00    -0.352 N
ATOM     14  H3  UNL     1      -2.671  32.942 105.528  1.00  0.00     0.166 HD
HETATM   15  N4  UNL     1      -0.050  33.277 104.231  1.00  0.00    -0.372 N
HETATM   16  C12 UNL     1       0.763  33.990 103.291  1.00  0.00     0.156 A
ATOM     17  H4  UNL     1       0.259  32.491 104.804  1.00  0.00     0.161 HD
ENDBRANCH   7   8
ENDBRANCH   6   7
BRANCH   1  18
HETATM   18  C1  UNL     1       2.948  37.003 102.929  1.00  0.00     0.270 C
BRANCH  18  19
HETATM   19  N1  UNL     1       2.917  36.425 104.282  1.00  0.00    -0.075 N
ATOM     20  H13 UNL     1       3.539  36.902 104.935  1.00  0.00     0.274 HD
ATOM     21  H12 UNL     1       2.043  36.608 104.775  1.00  0.00     0.274 HD
ATOM     22  H11 UNL     1       3.123  35.430 104.191  1.00  0.00     0.274 HD
ENDBRANCH  18  19
ENDBRANCH   1  18
TORSDOF 4
ENDMDL