MODEL 3
REMARK VINA RESULT: -7.420182153      2.344      3.715
REMARK  5 active torsions:
REMARK  status: ('A' for Active; 'I' for Inactive)
REMARK    1  A    between atoms: N1_1  and  C1_5
REMARK    2  A    between atoms: C1_5  and  C2_6
REMARK    3  A    between atoms: C1_5  and  C6_15
REMARK    4  A    between atoms: C2_6  and  C3_7
REMARK    5  A    between atoms: C6_15  and  N4_16
ROOT
HETATM    1  C1  UNL     1      -1.642  35.191 102.761  1.00  0.00     0.207 C
ENDROOT
BRANCH   1   2
HETATM    2  N1  UNL     1      -2.801  34.940 101.944  1.00  0.00    -0.073 N
ATOM      3  H13 UNL     1      -2.645  34.143 101.327  1.00  0.00     0.274 HD
ATOM      4  H12 UNL     1      -3.567  34.568 102.505  1.00  0.00     0.274 HD
ATOM      5  H11 UNL     1      -3.102  35.757 101.415  1.00  0.00     0.274 HD
ENDBRANCH   1   2
BRANCH   1   6
HETATM    6  C2  UNL     1      -1.230  34.001 103.584  1.00  0.00     0.093 C
BRANCH   6   7
HETATM    7  C3  UNL     1       0.238  33.779 103.578  1.00  0.00     0.031 A
HETATM    8  C4  UNL     1       1.051  33.846 102.465  1.00  0.00     0.118 A
HETATM    9  N2  UNL     1       2.304  33.592 102.827  1.00  0.00    -0.317 N
HETATM   10  C5  UNL     1       2.263  33.371 104.153  1.00  0.00     0.324 A
ATOM     11  H2  UNL     1       3.126  33.570 102.225  1.00  0.00     0.170 HD
HETATM   12  O1  UNL     1       3.292  33.098 104.834  1.00  0.00    -0.247 OA
HETATM   13  N3  UNL     1       1.008  33.482 104.626  1.00  0.00    -0.311 N
ATOM     14  H3  UNL     1       0.706  33.361 105.593  1.00  0.00     0.170 HD
ENDBRANCH   6   7
ENDBRANCH   1   6
BRANCH   1  15
HETATM   15  C6  UNL     1      -1.779  36.396 103.644  1.00  0.00     0.160 C
BRANCH  15  16
HETATM   16  N4  UNL     1      -0.876  37.463 103.260  1.00  0.00    -0.364 N
HETATM   17  C7  UNL     1      -1.307  38.503 102.561  1.00  0.00     0.090 A
HETATM   18  C8  UNL     1      -0.415  39.493 102.216  1.00  0.00     0.017 A
HETATM   19  C9  UNL     1       0.917  39.445 102.572  1.00  0.00     0.003 A
HETATM   20  C10 UNL     1       1.346  38.361 103.295  1.00  0.00     0.017 A
HETATM   21  C11 UNL     1       0.418  37.388 103.621  1.00  0.00     0.090 A
ENDBRANCH  15  16
ENDBRANCH   1  15
TORSDOF 5
ENDMDL