MODEL 3
REMARK VINA RESULT: -7.521581853      2.318      4.467
REMARK  4 active torsions:
REMARK  status: ('A' for Active; 'I' for Inactive)
REMARK    1  A    between atoms: C2_7  and  N3_8
REMARK    2  A    between atoms: N3_8  and  C3_10
REMARK    3  A    between atoms: C3_10  and  C4_11
REMARK    4  A    between atoms: C4_11  and  C5_12
ROOT
HETATM    1  N3  UNL     1      -1.966  36.100 101.850  1.00  0.00    -0.224 N
ATOM      2  H3  UNL     1      -2.745  36.376 101.253  1.00  0.00     0.177 HD
ENDROOT
BRANCH   1   3
HETATM    3  C2  UNL     1      -2.201  35.589 103.011  1.00  0.00     0.696 A
HETATM    4  N2  UNL     1      -1.832  36.108 104.196  1.00  0.00    -0.128 N
HETATM    5  N1  UNL     1      -2.266  35.277 105.147  1.00  0.00    -0.237 N
ATOM      6  H2  UNL     1      -1.315  36.975 104.341  1.00  0.00     0.205 HD
HETATM    7  C1  UNL     1      -2.910  34.232 104.593  1.00  0.00     0.353 A
ATOM      8  H1  UNL     1      -2.130  35.414 106.148  1.00  0.00     0.192 HD
HETATM    9  O1  UNL     1      -3.440  33.271 105.212  1.00  0.00    -0.245 OA
HETATM   10  N5  UNL     1      -2.856  34.450 103.257  1.00  0.00    -0.139 N
ATOM     11  H5  UNL     1      -3.255  33.838 102.546  1.00  0.00     0.189 HD
ENDBRANCH   1   3
BRANCH   1  12
HETATM   12  C3  UNL     1      -0.608  36.286 101.386  1.00  0.00     0.142 C
BRANCH  12  13
HETATM   13  C4  UNL     1       0.043  34.922 101.300  1.00  0.00     0.058 C
BRANCH  13  14
HETATM   14  C5  UNL     1       0.995  34.699 102.423  1.00  0.00    -0.054 A
HETATM   15  C6  UNL     1       1.205  33.524 102.974  1.00  0.00     0.024 A
HETATM   16  C7  UNL     1       2.151  33.403 104.064  1.00  0.00     0.088 A
HETATM   17  N4  UNL     1       2.796  34.428 104.508  1.00  0.00    -0.375 N
HETATM   18  C8  UNL     1       2.592  35.710 103.935  1.00  0.00     0.088 A
ATOM     19  H4  UNL     1       3.457  34.316 105.277  1.00  0.00     0.164 HD
HETATM   20  C9  UNL     1       1.743  35.832 102.953  1.00  0.00     0.024 A
ENDBRANCH  13  14
ENDBRANCH  12  13
ENDBRANCH   1  12
TORSDOF 4
ENDMDL