MODEL 3
REMARK VINA RESULT: -7.174433340      1.696      2.237
REMARK  6 active torsions:
REMARK  status: ('A' for Active; 'I' for Inactive)
REMARK    1  A    between atoms: N2_7  and  C5_8
REMARK    2  A    between atoms: C5_8  and  C6_9
REMARK    3  A    between atoms: C6_9  and  N3_10
REMARK    4  A    between atoms: C6_9  and  C7_14
REMARK    5  A    between atoms: C7_14  and  C8_15
REMARK    6  A    between atoms: C10_21  and  O1_22
ROOT
HETATM    1  C6  UNL     1      -1.416  36.288 101.579  1.00  0.00     0.206 C
ENDROOT
BRANCH   1   2
HETATM    2  C5  UNL     1      -1.168  37.184 102.732  1.00  0.00     0.162 C
BRANCH   2   3
HETATM    3  N2  UNL     1      -0.146  38.158 102.633  1.00  0.00    -0.344 N
HETATM    4  C2  UNL     1       1.141  38.003 102.977  1.00  0.00     0.024 A
HETATM    5  C1  UNL     1       1.836  36.836 103.569  1.00  0.00     0.070 C
HETATM    6  C3  UNL     1       1.794  39.205 102.697  1.00  0.00     0.113 A
HETATM    7  N1  UNL     1       0.905  40.073 102.191  1.00  0.00    -0.360 N
HETATM    8  C4  UNL     1      -0.271  39.421 102.157  1.00  0.00     0.183 A
ATOM      9  H1  UNL     1       1.084  41.032 101.892  1.00  0.00     0.166 HD
ENDBRANCH   2   3
ENDBRANCH   1   2
BRANCH   1  10
HETATM   10  N3  UNL     1      -0.224  36.034 100.783  1.00  0.00    -0.073 N
ATOM     11  H33 UNL     1       0.418  36.826 100.827  1.00  0.00     0.274 HD
ATOM     12  H32 UNL     1       0.360  35.321 101.222  1.00  0.00     0.274 HD
ATOM     13  H31 UNL     1      -0.432  35.789  99.816  1.00  0.00     0.274 HD
ENDBRANCH   1  10
BRANCH   1  14
HETATM   14  C7  UNL     1      -2.218  35.057 101.846  1.00  0.00     0.079 C
BRANCH  14  15
HETATM   15  C8  UNL     1      -1.908  34.560 103.221  1.00  0.00     0.013 A
HETATM   16  C9  UNL     1      -0.690  34.046 103.606  1.00  0.00     0.118 A
HETATM   17  N4  UNL     1      -0.771  33.721 104.901  1.00  0.00    -0.309 N
HETATM   18  N5  UNL     1      -1.966  33.998 105.359  1.00  0.00    -0.280 N
ATOM     19  H4  UNL     1      -0.013  33.316 105.450  1.00  0.00     0.186 HD
HETATM   20  C10 UNL     1      -2.687  34.514 104.351  1.00  0.00     0.162 A
ATOM     21  H5  UNL     1      -2.292  33.848 106.314  1.00  0.00     0.189 HD
BRANCH  20  22
HETATM   22  O1  UNL     1      -4.023  34.943 104.415  1.00  0.00    -0.345 OA
ATOM     23  H1  UNL     1      -4.503  35.315 103.684  1.00  0.00     0.219 HD
ENDBRANCH  20  22
ENDBRANCH  14  15
ENDBRANCH   1  14
TORSDOF 6
ENDMDL