MODEL 3
REMARK VINA RESULT: -7.085513570      1.605      4.483
REMARK  5 active torsions:
REMARK  status: ('A' for Active; 'I' for Inactive)
REMARK    1  A    between atoms: C3_8  and  C4_9
REMARK    2  A    between atoms: C4_9  and  C5_10
REMARK    3  A    between atoms: C5_10  and  C6_11
REMARK    4  A    between atoms: C6_11  and  N4_12
REMARK    5  A    between atoms: N4_12  and  C7_14
ROOT
HETATM    1  C5  UNL     1       1.841  33.677 103.969  1.00  0.00     0.028 C
ENDROOT
BRANCH   1   2
HETATM    2  C4  UNL     1       0.593  33.351 103.202  1.00  0.00     0.080 C
BRANCH   2   3
HETATM    3  C3  UNL     1      -0.514  34.218 103.738  1.00  0.00     0.098 A
HETATM    4  N1  UNL     1      -1.081  35.275 103.115  1.00  0.00    -0.335 N
HETATM    5  C1  UNL     1      -0.733  35.787 101.798  1.00  0.00     0.158 C
HETATM    6  C2  UNL     1      -2.038  35.809 103.892  1.00  0.00     0.200 A
HETATM    7  N2  UNL     1      -2.042  35.055 105.002  1.00  0.00    -0.295 N
HETATM    8  N3  UNL     1      -1.135  34.099 104.924  1.00  0.00    -0.288 N
ATOM      9  H2  UNL     1      -2.663  35.202 105.799  1.00  0.00     0.187 HD
ATOM     10  H3  UNL     1      -0.941  33.395 105.637  1.00  0.00     0.188 HD
ENDBRANCH   2   3
ENDBRANCH   1   2
BRANCH   1  11
HETATM   11  C6  UNL     1       2.668  34.752 103.299  1.00  0.00     0.138 C
BRANCH  11  12
HETATM   12  N4  UNL     1       2.629  35.989 104.057  1.00  0.00    -0.226 N
ATOM     13  H4  UNL     1       2.916  35.991 105.035  1.00  0.00     0.177 HD
BRANCH  12  14
HETATM   14  C7  UNL     1       2.228  37.104 103.496  1.00  0.00     0.677 A
HETATM   15  N5  UNL     1       2.752  37.654 102.389  1.00  0.00    -0.201 N
HETATM   16  C8  UNL     1       2.113  38.798 102.074  1.00  0.00     0.123 A
ATOM     17  H5  UNL     1       3.529  37.261 101.859  1.00  0.00     0.183 HD
HETATM   18  C9  UNL     1       1.134  38.971 103.040  1.00  0.00     0.123 A
HETATM   19  N6  UNL     1       1.236  37.925 103.882  1.00  0.00    -0.201 N
ATOM     20  H6  UNL     1       0.643  37.777 104.699  1.00  0.00     0.183 HD
ENDBRANCH  12  14
ENDBRANCH  11  12
ENDBRANCH   1  11
TORSDOF 5
ENDMDL