MODEL 2
REMARK VINA RESULT: -6.741990906      2.543      3.811
REMARK  8 active torsions:
REMARK  status: ('A' for Active; 'I' for Inactive)
REMARK    1  A    between atoms: C2_2  and  C3_3
REMARK    2  A    between atoms: C3_3  and  C5_5
REMARK    3  A    between atoms: C6_7  and  O2_8
REMARK    4  A    between atoms: C7_10  and  C8_11
REMARK    5  A    between atoms: C8_11  and  C9_12
REMARK    6  A    between atoms: C13_16  and  O3_17
REMARK    7  A    between atoms: C18_23  and  O4_24
REMARK    8  A    between atoms: O4_24  and  O5_25
ROOT
HETATM    1  C5  UNL     1      23.001   4.065  95.878  1.00  0.00     0.081 A
HETATM    2  O1  UNL     1      23.633   5.073  96.353  1.00  0.00    -0.290 OA
HETATM    3  C6  UNL     1      24.837   4.790  96.790  1.00  0.00     0.191 A
HETATM    4  C7  UNL     1      25.033   3.447  96.588  1.00  0.00     0.024 A
HETATM    5  C21 UNL     1      23.853   2.985  96.002  1.00  0.00     0.085 A
HETATM    6  C22 UNL     1      23.523   1.631  95.584  1.00  0.00     0.102 C
HETATM    7  N1  UNL     1      23.239   0.561  95.243  1.00  0.00    -0.191 NA
ENDROOT
BRANCH   1   8
HETATM    8  C3  UNL     1      21.605   4.090  95.305  1.00  0.00     0.040 C
HETATM    9  C4  UNL     1      21.736   4.001  93.816  1.00  0.00     0.017 C
BRANCH   8  10
HETATM   10  C2  UNL     1      21.030   5.457  95.613  1.00  0.00     0.006 C
HETATM   11  C1  UNL     1      20.175   5.473  96.845  1.00  0.00     0.006 C
ENDBRANCH   8  10
ENDBRANCH   1   8
BRANCH   4  12
HETATM   12  C8  UNL     1      26.198   2.612  96.919  1.00  0.00     0.051 C
BRANCH  12  13
HETATM   13  C9  UNL     1      27.557   3.122  96.486  1.00  0.00     0.005 C
HETATM   14  C10 UNL     1      27.977   2.692  95.137  1.00  0.00    -0.011 C
HETATM   15  C11 UNL     1      27.540   3.695  94.069  1.00  0.00     0.010 C
HETATM   16  C12 UNL     1      29.448   2.496  94.891  1.00  0.00     0.037 C
HETATM   17  C13 UNL     1      30.132   1.780  96.009  1.00  0.00     0.123 C
HETATM   18  C14 UNL     1      29.971   2.701  97.197  1.00  0.00     0.025 C
HETATM   19  C15 UNL     1      30.802   3.923  96.952  1.00  0.00     0.008 C
HETATM   20  C19 UNL     1      28.552   2.946  97.595  1.00  0.00    -0.005 C
HETATM   21  C16 UNL     1      30.080   5.212  96.821  1.00  0.00     0.003 C
HETATM   22  C17 UNL     1      28.960   5.419  97.804  1.00  0.00     0.036 C
HETATM   23  C18 UNL     1      28.590   4.141  98.517  1.00  0.00     0.169 C
HETATM   24  C20 UNL     1      28.158   1.770  98.507  1.00  0.00     0.019 C
BRANCH  17  25
HETATM   25  O3  UNL     1      29.600   0.535  96.193  1.00  0.00    -0.395 OA
ATOM     26  H3  UNL     1      30.192  -0.019  96.687  1.00  0.00     0.210 HD
ENDBRANCH  17  25
BRANCH  23  27
HETATM   27  O4  UNL     1      27.382   4.313  99.149  1.00  0.00    -0.237 OA
BRANCH  27  28
HETATM   28  O5  UNL     1      27.465   4.330 100.452  1.00  0.00    -0.250 OA
ATOM     29  H5  UNL     1      26.842   4.912 100.868  1.00  0.00     0.253 HD
ENDBRANCH  27  28
ENDBRANCH  23  27
ENDBRANCH  12  13
ENDBRANCH   4  12
BRANCH   3  30
HETATM   30  O2  UNL     1      25.670   5.771  97.336  1.00  0.00    -0.340 OA
ATOM     31  H2  UNL     1      26.570   5.875  97.053  1.00  0.00     0.220 HD
ENDBRANCH   3  30
TORSDOF 8
ENDMDL