MODEL 4
REMARK VINA RESULT: -7.754929384      0.983      2.019
REMARK  8 active torsions:
REMARK  status: ('A' for Active; 'I' for Inactive)
REMARK    1  A    between atoms: C2_2  and  C3_3
REMARK    2  A    between atoms: C3_3  and  C5_5
REMARK    3  A    between atoms: C6_7  and  O2_8
REMARK    4  A    between atoms: C8_11  and  C9_12
REMARK    5  A    between atoms: C9_12  and  N1_13
REMARK    6  A    between atoms: C12_16  and  N2_17
REMARK    7  A    between atoms: C13_18  and  O3_19
REMARK    8  A    between atoms: C16_23  and  O4_24
ROOT
HETATM    1  N1  UNL     1      25.798   4.119  91.800  1.00  0.00    -0.389 N
HETATM    2  C10 UNL     1      25.056   5.337  91.701  1.00  0.00     0.124 C
HETATM    3  C11 UNL     1      23.920   5.539  92.623  1.00  0.00     0.045 C
HETATM    4  C12 UNL     1      23.562   4.239  93.312  1.00  0.00     0.097 C
HETATM    5  C21 UNL     1      24.830   3.880  94.084  1.00  0.00     0.045 C
HETATM    6  C22 UNL     1      25.800   3.413  93.027  1.00  0.00     0.124 C
ENDROOT
BRANCH   4   7
HETATM    7  N2  UNL     1      22.399   4.276  94.116  1.00  0.00    -0.303 N
HETATM    8  C13 UNL     1      21.207   3.797  93.815  1.00  0.00     0.151 A
HETATM    9  C14 UNL     1      20.353   4.005  94.858  1.00  0.00     0.004 A
HETATM   10  C15 UNL     1      21.071   4.642  95.828  1.00  0.00     0.004 A
HETATM   11  C20 UNL     1      18.941   3.713  95.121  1.00  0.00     0.044 C
HETATM   12  C16 UNL     1      22.373   4.819  95.371  1.00  0.00     0.151 A
HETATM   13  C17 UNL     1      20.468   5.039  97.117  1.00  0.00     0.044 C
HETATM   14  C18 UNL     1      18.970   5.289  97.035  1.00  0.00     0.005 C
HETATM   15  C19 UNL     1      18.358   5.010  95.709  1.00  0.00     0.005 C
BRANCH   8  16
HETATM   16  O3  UNL     1      20.917   3.174  92.589  1.00  0.00    -0.345 OA
ATOM     17  H3  UNL     1      20.353   3.562  91.930  1.00  0.00     0.219 HD
ENDBRANCH   8  16
BRANCH  12  18
HETATM   18  O4  UNL     1      23.410   5.432  96.075  1.00  0.00    -0.345 OA
ATOM     19  H4  UNL     1      23.357   5.984  96.846  1.00  0.00     0.219 HD
ENDBRANCH  12  18
ENDBRANCH   4   7
BRANCH   1  20
HETATM   20  C9  UNL     1      27.018   4.171  91.106  1.00  0.00     0.099 C
BRANCH  20  21
HETATM   21  C8  UNL     1      27.360   2.916  90.415  1.00  0.00     0.014 A
HETATM   22  C5  UNL     1      28.389   2.896  89.418  1.00  0.00     0.071 A
HETATM   23  O1  UNL     1      28.469   1.698  88.985  1.00  0.00    -0.291 OA
HETATM   24  C6  UNL     1      27.615   0.894  89.578  1.00  0.00     0.184 A
HETATM   25  C7  UNL     1      26.908   1.642  90.478  1.00  0.00     0.079 A
BRANCH  22  26
HETATM   26  C3  UNL     1      29.099   4.162  89.140  1.00  0.00     0.039 C
HETATM   27  C4  UNL     1      30.526   3.930  89.792  1.00  0.00     0.017 C
BRANCH  26  28
HETATM   28  C2  UNL     1      29.419   4.385  87.671  1.00  0.00     0.006 C
HETATM   29  C1  UNL     1      30.836   3.986  87.347  1.00  0.00     0.006 C
ENDBRANCH  26  28
ENDBRANCH  22  26
BRANCH  24  30
HETATM   30  O2  UNL     1      27.408  -0.473  89.382  1.00  0.00    -0.341 OA
ATOM     31  H2  UNL     1      26.755  -1.044  89.771  1.00  0.00     0.220 HD
ENDBRANCH  24  30
ENDBRANCH  20  21
ENDBRANCH   1  20
TORSDOF 8
ENDMDL