MODEL 3
REMARK VINA RESULT: -6.546357907      2.971      4.179
REMARK  8 active torsions:
REMARK  status: ('A' for Active; 'I' for Inactive)
REMARK    1  A    between atoms: C3_3  and  C4_4
REMARK    2  A    between atoms: C7_7  and  C8_8
REMARK    3  A    between atoms: C8_8  and  S1_9
REMARK    4  A    between atoms: S1_9  and  C9_10
REMARK    5  A    between atoms: C10_12  and  N1_13
REMARK    6  A    between atoms: N4_20  and  O1_21
REMARK    7  A    between atoms: C12_23  and  C13_24
REMARK    8  A    between atoms: C13_24  and  C14_25
ROOT
HETATM    1  C1  UNL     1      23.688   3.554  97.268  1.00  0.00     0.051 C
HETATM    2  C2  UNL     1      23.571   3.442  95.777  1.00  0.00    -0.024 A
HETATM    3  C3  UNL     1      24.258   2.617  94.989  1.00  0.00    -0.021 A
HETATM    4  C7  UNL     1      23.837   2.827  93.576  1.00  0.00     0.057 A
HETATM    5  N4  UNL     1      22.954   3.725  93.578  1.00  0.00    -0.227 N
HETATM    6  C12 UNL     1      22.688   4.201  94.920  1.00  0.00     0.070 A
ENDROOT
BRANCH   4   7
HETATM    7  C8  UNL     1      24.358   2.123  92.350  1.00  0.00     0.140 C
BRANCH   7   8
HETATM    8  S1  UNL     1      25.578   3.116  91.509  1.00  0.00    -0.113 SA
BRANCH   8   9
HETATM    9  C9  UNL     1      26.308   4.314  92.642  1.00  0.00     0.086 A
HETATM   10  S2  UNL     1      27.703   4.112  93.621  1.00  0.00    -0.044 SA
HETATM   11  C10 UNL     1      27.711   5.649  94.360  1.00  0.00     0.144 A
HETATM   12  N2  UNL     1      26.650   6.246  93.827  1.00  0.00    -0.324 N
HETATM   13  C11 UNL     1      25.928   5.582  92.954  1.00  0.00     0.142 A
ATOM     14  H2  UNL     1      26.402   7.200  94.091  1.00  0.00     0.169 HD
HETATM   15  N3  UNL     1      24.748   6.158  92.319  1.00  0.00    -0.081 NA
BRANCH  11  16
HETATM   16  N1  UNL     1      28.555   6.141  95.246  1.00  0.00    -0.380 N
ATOM     17  H12 UNL     1      28.557   5.996  96.255  1.00  0.00     0.158 HD
ATOM     18  H11 UNL     1      29.359   6.752  95.097  1.00  0.00     0.158 HD
ENDBRANCH  11  16
ENDBRANCH   8   9
ENDBRANCH   7   8
ENDBRANCH   4   7
BRANCH   3  19
HETATM   19  C4  UNL     1      25.275   1.615  95.300  1.00  0.00     0.013 C
HETATM   20  C5  UNL     1      26.306   2.217  96.286  1.00  0.00     0.015 C
HETATM   21  C6  UNL     1      24.862   0.336  95.946  1.00  0.00     0.015 C
ENDBRANCH   3  19
BRANCH   5  22
HETATM   22  O1  UNL     1      22.311   4.203  92.433  1.00  0.00    -0.282 OA
ATOM     23  H1  UNL     1      21.509   4.711  92.440  1.00  0.00     0.245 HD
ENDBRANCH   5  22
BRANCH   6  24
HETATM   24  C13 UNL     1      21.754   5.069  95.171  1.00  0.00     0.051 C
BRANCH  24  25
HETATM   25  C14 UNL     1      20.454   4.867  95.787  1.00  0.00     0.007 A
HETATM   26  C15 UNL     1      20.060   5.213  97.059  1.00  0.00     0.019 A
HETATM   27  C16 UNL     1      18.792   5.014  97.400  1.00  0.00     0.008 A
HETATM   28  C17 UNL     1      17.952   4.475  96.461  1.00  0.00     0.050 A
HETATM   29  S3  UNL     1      18.976   4.263  95.119  1.00  0.00    -0.102 SA
ENDBRANCH  24  25
ENDBRANCH   6  24
TORSDOF 8
ENDMDL