MODEL 5
REMARK VINA RESULT: -6.739814087      3.035      7.049
REMARK  9 active torsions:
REMARK  status: ('A' for Active; 'I' for Inactive)
REMARK    1  A    between atoms: C2_2  and  C4_4
REMARK    2  A    between atoms: C4_4  and  C5_5
REMARK    3  A    between atoms: C5_5  and  C6_6
REMARK    4  A    between atoms: C7_7  and  C9_9
REMARK    5  A    between atoms: C9_9  and  O1_10
REMARK    6  A    between atoms: C9_9  and  C10_12
REMARK    7  A    between atoms: C13_16  and  C14_17
REMARK    8  A    between atoms: C20_24  and  O4_25
REMARK    9  A    between atoms: C21_27  and  O5_28
ROOT
HETATM    1  C10 UNL     1      28.135   0.522  98.269  1.00  0.00     0.306 C
HETATM    2  O2  UNL     1      27.463   0.566  97.056  1.00  0.00    -0.314 OA
HETATM    3  C11 UNL     1      26.925   1.851  96.910  1.00  0.00     0.109 A
HETATM    4  C12 UNL     1      26.448   2.590  95.853  1.00  0.00     0.054 A
HETATM    5  C13 UNL     1      25.973   3.924  96.016  1.00  0.00     0.013 A
HETATM    6  C20 UNL     1      26.001   4.452  97.269  1.00  0.00     0.112 A
HETATM    7  C21 UNL     1      26.478   3.717  98.351  1.00  0.00     0.136 A
HETATM    8  C22 UNL     1      26.923   2.425  98.143  1.00  0.00     0.141 A
HETATM    9  O6  UNL     1      27.422   1.513  99.062  1.00  0.00    -0.311 OA
ENDROOT
BRANCH   1  10
HETATM   10  C9  UNL     1      29.528   0.908  98.440  1.00  0.00     0.203 C
BRANCH  10  11
HETATM   11  C7  UNL     1      30.035   2.157  97.800  1.00  0.00    -0.043 C
HETATM   12  C6  UNL     1      30.192   3.252  98.518  1.00  0.00     0.060 C
HETATM   13  C8  UNL     1      30.271   2.102  96.334  1.00  0.00     0.047 C
BRANCH  12  14
HETATM   14  C5  UNL     1      30.564   4.531  98.217  1.00  0.00    -0.127 C
BRANCH  14  15
HETATM   15  C4  UNL     1      30.864   5.728  97.936  1.00  0.00     0.061 C
BRANCH  15  16
HETATM   16  C2  UNL     1      30.044   6.733  97.263  1.00  0.00    -0.064 C
HETATM   17  C1  UNL     1      29.162   6.351  96.288  1.00  0.00     0.019 C
HETATM   18  C3  UNL     1      29.921   8.153  97.637  1.00  0.00     0.048 C
ENDBRANCH  15  16
ENDBRANCH  14  15
ENDBRANCH  12  14
ENDBRANCH  10  11
BRANCH  10  19
HETATM   19  O1  UNL     1      30.308  -0.196  97.950  1.00  0.00    -0.386 OA
ATOM     20  H1  UNL     1      30.666  -0.661  98.697  1.00  0.00     0.210 HD
ENDBRANCH  10  19
ENDBRANCH   1  10
BRANCH   7  21
HETATM   21  O5  UNL     1      26.502   4.303  99.594  1.00  0.00    -0.356 OA
ATOM     22  H5  UNL     1      26.960   3.863 100.300  1.00  0.00     0.218 HD
ENDBRANCH   7  21
BRANCH   5  23
HETATM   23  C14 UNL     1      25.678   4.721  94.819  1.00  0.00     0.001 C
HETATM   24  C15 UNL     1      26.818   5.079  93.939  1.00  0.00     0.043 C
HETATM   25  C16 UNL     1      26.371   5.133  92.482  1.00  0.00     0.005 C
HETATM   26  C17 UNL     1      25.105   5.942  92.349  1.00  0.00     0.008 C
HETATM   27  C18 UNL     1      23.950   5.222  92.945  1.00  0.00     0.083 C
HETATM   28  C19 UNL     1      24.339   4.725  94.309  1.00  0.00     0.156 C
HETATM   29  O3  UNL     1      23.397   4.295  94.993  1.00  0.00    -0.293 OA
ENDBRANCH   5  23
BRANCH   6  30
HETATM   30  O4  UNL     1      25.543   5.776  97.596  1.00  0.00    -0.357 OA
ATOM     31  H4  UNL     1      25.382   6.080  98.481  1.00  0.00     0.217 HD
ENDBRANCH   6  30
TORSDOF 9
ENDMDL