MODEL 2
REMARK VINA RESULT: -7.712963397      2.466      6.242
REMARK  8 active torsions:
REMARK  status: ('A' for Active; 'I' for Inactive)
REMARK    1  A    between atoms: C3_3  and  C5_5
REMARK    2  A    between atoms: C8_8  and  C9_9
REMARK    3  A    between atoms: C9_9  and  O1_10
REMARK    4  A    between atoms: C13_15  and  C15_17
REMARK    5  A    between atoms: C15_17  and  C16_18
REMARK    6  A    between atoms: C16_18  and  C17_19
REMARK    7  A    between atoms: C19_22  and  O3_23
REMARK    8  A    between atoms: C20_25  and  O4_26
ROOT
HETATM    1  C5  UNL     1      30.628   1.100  88.173  1.00  0.00     0.052 C
HETATM    2  C6  UNL     1      29.349   0.775  87.481  1.00  0.00     0.016 C
HETATM    3  C7  UNL     1      28.891   1.717  86.451  1.00  0.00     0.037 C
HETATM    4  C8  UNL     1      29.218   3.127  86.575  1.00  0.00    -0.060 C
HETATM    5  C10 UNL     1      29.579   4.014  87.486  1.00  0.00    -0.021 C
HETATM    6  C11 UNL     1      29.854   4.045  88.929  1.00  0.00     0.038 C
HETATM    7  C12 UNL     1      29.458   2.770  89.561  1.00  0.00     0.064 C
HETATM    8  C13 UNL     1      29.149   2.816  91.010  1.00  0.00     0.100 C
HETATM    9  C14 UNL     1      29.973   3.858  91.757  1.00  0.00     0.050 C
HETATM   10  O5  UNL     1      29.522   1.563  91.462  1.00  0.00    -0.229 OA
HETATM   11  O6  UNL     1      29.940   0.829  90.479  1.00  0.00    -0.228 OA
HETATM   12  C21 UNL     1      30.504   1.690  89.530  1.00  0.00     0.107 C
HETATM   13  C22 UNL     1      31.838   2.101  90.052  1.00  0.00     0.050 C
ENDROOT
BRANCH   8  14
HETATM   14  C15 UNL     1      27.720   3.142  91.236  1.00  0.00     0.048 C
BRANCH  14  15
HETATM   15  C16 UNL     1      27.404   4.079  92.345  1.00  0.00     0.071 C
BRANCH  15  16
HETATM   16  C17 UNL     1      26.158   4.856  91.994  1.00  0.00     0.088 A
HETATM   17  O2  UNL     1      25.417   4.660  90.931  1.00  0.00    -0.321 OA
HETATM   18  C18 UNL     1      24.407   5.469  90.881  1.00  0.00     0.181 A
HETATM   19  C19 UNL     1      24.475   6.275  91.996  1.00  0.00     0.123 A
HETATM   20  C20 UNL     1      25.583   5.878  92.689  1.00  0.00     0.130 A
BRANCH  19  21
HETATM   21  O3  UNL     1      23.581   7.290  92.336  1.00  0.00    -0.356 OA
ATOM     22  H3  UNL     1      23.605   7.819  93.126  1.00  0.00     0.218 HD
ENDBRANCH  19  21
BRANCH  20  23
HETATM   23  O4  UNL     1      26.064   6.396  93.883  1.00  0.00    -0.356 OA
ATOM     24  H4  UNL     1      25.713   7.159  94.326  1.00  0.00     0.218 HD
ENDBRANCH  20  23
ENDBRANCH  15  16
ENDBRANCH  14  15
ENDBRANCH   8  14
BRANCH   1  25
HETATM   25  C3  UNL     1      31.538  -0.084  88.237  1.00  0.00    -0.081 C
HETATM   26  C2  UNL     1      32.796  -0.035  87.796  1.00  0.00    -0.028 C
HETATM   27  C1  UNL     1      33.673  -1.224  87.872  1.00  0.00     0.036 C
HETATM   28  C4  UNL     1      31.032  -1.376  88.812  1.00  0.00     0.043 C
ENDBRANCH   1  25
BRANCH   4  29
HETATM   29  C9  UNL     1      29.114   3.800  85.248  1.00  0.00     0.198 C
BRANCH  29  30
HETATM   30  O1  UNL     1      28.321   4.930  85.280  1.00  0.00    -0.397 OA
ATOM     31  H1  UNL     1      27.534   4.845  84.754  1.00  0.00     0.209 HD
ENDBRANCH  29  30
ENDBRANCH   4  29
TORSDOF 8
ENDMDL