MODEL 3
REMARK VINA RESULT: -7.307925030      1.748      3.037
REMARK  8 active torsions:
REMARK  status: ('A' for Active; 'I' for Inactive)
REMARK    1  A    between atoms: C2_2  and  C3_3
REMARK    2  A    between atoms: C3_3  and  C4_4
REMARK    3  A    between atoms: C4_4  and  C5_5
REMARK    4  A    between atoms: C5_5  and  N1_6
REMARK    5  A    between atoms: C6_7  and  O1_8
REMARK    6  A    between atoms: C7_10  and  N2_11
REMARK    7  A    between atoms: C8_12  and  O2_13
REMARK    8  A    between atoms: C11_17  and  O3_18
ROOT
HETATM    1  N2  UNL     1      26.667   4.831  96.127  1.00  0.00    -0.267 N
HETATM    2  C8  UNL     1      25.500   4.794  96.793  1.00  0.00     0.156 A
HETATM    3  C9  UNL     1      24.524   4.431  95.950  1.00  0.00     0.008 A
HETATM    4  C10 UNL     1      25.077   4.228  94.706  1.00  0.00     0.009 A
HETATM    5  C11 UNL     1      26.404   4.481  94.832  1.00  0.00     0.156 A
HETATM    6  C12 UNL     1      24.111   3.817  93.650  1.00  0.00     0.027 C
HETATM    7  C13 UNL     1      23.076   4.954  93.602  1.00  0.00     0.010 C
HETATM    8  C14 UNL     1      22.454   5.132  94.944  1.00  0.00     0.010 C
HETATM    9  C15 UNL     1      23.036   4.189  95.988  1.00  0.00     0.024 C
HETATM   10  C16 UNL     1      22.859   2.749  95.550  1.00  0.00     0.014 C
HETATM   11  C17 UNL     1      23.311   2.605  94.120  1.00  0.00    -0.009 C
HETATM   12  C18 UNL     1      24.033   1.315  93.859  1.00  0.00     0.010 C
ENDROOT
BRANCH   1  13
HETATM   13  C7  UNL     1      27.933   5.173  96.673  1.00  0.00     0.095 A
HETATM   14  C6  UNL     1      28.693   4.186  97.251  1.00  0.00     0.173 A
HETATM   15  N1  UNL     1      29.913   4.445  97.791  1.00  0.00    -0.293 N
HETATM   16  C22 UNL     1      30.392   5.690  97.763  1.00  0.00     0.255 A
HETATM   17  C20 UNL     1      29.693   6.735  97.204  1.00  0.00     0.009 A
HETATM   18  O4  UNL     1      31.528   5.941  98.266  1.00  0.00    -0.267 OA
HETATM   19  C19 UNL     1      28.442   6.447  96.654  1.00  0.00     0.047 A
HETATM   20  C21 UNL     1      30.250   8.121  97.186  1.00  0.00     0.054 C
BRANCH  14  21
HETATM   21  O1  UNL     1      28.236   2.880  97.301  1.00  0.00    -0.344 OA
ATOM     22  H1  UNL     1      27.655   2.591  96.606  1.00  0.00     0.219 HD
ENDBRANCH  14  21
BRANCH  15  23
HETATM   23  C5  UNL     1      30.684   3.352  98.397  1.00  0.00     0.134 C
BRANCH  23  24
HETATM   24  C4  UNL     1      30.278   3.332  99.848  1.00  0.00     0.020 C
BRANCH  24  25
HETATM   25  C3  UNL     1      31.019   2.336 100.673  1.00  0.00     0.001 C
BRANCH  25  26
HETATM   26  C2  UNL     1      30.708   0.956 100.184  1.00  0.00    -0.004 C
HETATM   27  C1  UNL     1      31.149  -0.112 101.178  1.00  0.00     0.005 C
ENDBRANCH  25  26
ENDBRANCH  24  25
ENDBRANCH  23  24
ENDBRANCH  15  23
ENDBRANCH   1  13
BRANCH   2  28
HETATM   28  O2  UNL     1      25.307   5.082  98.146  1.00  0.00    -0.345 OA
ATOM     29  H2  UNL     1      25.569   4.542  98.882  1.00  0.00     0.219 HD
ENDBRANCH   2  28
BRANCH   5  30
HETATM   30  O3  UNL     1      27.329   4.391  93.798  1.00  0.00    -0.345 OA
ATOM     31  H3  UNL     1      28.149   3.912  93.815  1.00  0.00     0.219 HD
ENDBRANCH   5  30
TORSDOF 8
ENDMDL