MODEL 3
REMARK VINA RESULT: -7.476673965      2.413      7.411
REMARK  9 active torsions:
REMARK  status: ('A' for Active; 'I' for Inactive)
REMARK    1  A    between atoms: C2_2  and  C3_4
REMARK    2  A    between atoms: C4_5  and  O2_6
REMARK    3  A    between atoms: C5_8  and  C6_9
REMARK    4  A    between atoms: C6_9  and  C7_10
REMARK    5  A    between atoms: C11_14  and  O3_15
REMARK    6  A    between atoms: C12_17  and  N1_18
REMARK    7  A    between atoms: N1_18  and  O4_19
REMARK    8  A    between atoms: N1_18  and  C13_21
REMARK    9  A    between atoms: C21_30  and  O6_31
ROOT
HETATM    1  C3  UNL     1      25.876   4.007  98.145  1.00  0.00     0.079 A
HETATM    2  C4  UNL     1      27.128   4.522  97.789  1.00  0.00     0.091 A
HETATM    3  C5  UNL     1      27.268   5.072  96.506  1.00  0.00     0.015 A
HETATM    4  C11 UNL     1      26.191   5.084  95.666  1.00  0.00     0.107 A
HETATM    5  C12 UNL     1      24.962   4.575  96.023  1.00  0.00     0.130 A
HETATM    6  C21 UNL     1      24.772   4.017  97.289  1.00  0.00     0.114 A
ENDROOT
BRANCH   5   7
HETATM    7  N1  UNL     1      23.902   4.618  95.113  1.00  0.00    -0.223 N
BRANCH   7   8
HETATM    8  O4  UNL     1      23.056   5.575  95.246  1.00  0.00    -0.282 OA
ATOM      9  H4  UNL     1      23.235   6.380  94.774  1.00  0.00     0.245 HD
ENDBRANCH   7   8
BRANCH   7  10
HETATM   10  C13 UNL     1      23.597   3.763  94.043  1.00  0.00     0.047 C
HETATM   11  C14 UNL     1      23.177   2.378  94.306  1.00  0.00     0.071 C
HETATM   12  C15 UNL     1      23.720   4.181  92.803  1.00  0.00     0.012 C
HETATM   13  C16 UNL     1      24.187   5.569  92.556  1.00  0.00     0.044 C
HETATM   14  C20 UNL     1      23.428   3.348  91.644  1.00  0.00     0.157 C
HETATM   15  C17 UNL     1      24.289   5.793  91.076  1.00  0.00     0.005 C
HETATM   16  C18 UNL     1      25.043   4.699  90.347  1.00  0.00     0.008 C
HETATM   17  C19 UNL     1      24.271   3.393  90.399  1.00  0.00     0.084 C
HETATM   18  O5  UNL     1      22.450   2.577  91.693  1.00  0.00    -0.293 OA
ENDBRANCH   7  10
ENDBRANCH   5   7
BRANCH   4  19
HETATM   19  O3  UNL     1      26.312   5.621  94.398  1.00  0.00    -0.358 OA
ATOM     20  H3  UNL     1      25.538   5.750  93.862  1.00  0.00     0.217 HD
ENDBRANCH   4  19
BRANCH   6  21
HETATM   21  O6  UNL     1      23.592   3.526  97.639  1.00  0.00    -0.357 OA
ATOM     22  H6  UNL     1      22.930   4.049  98.076  1.00  0.00     0.217 HD
ENDBRANCH   6  21
BRANCH   3  23
HETATM   23  C6  UNL     1      28.580   5.611  96.111  1.00  0.00     0.072 C
BRANCH  23  24
HETATM   24  C7  UNL     1      28.899   6.944  96.640  1.00  0.00    -0.020 C
HETATM   25  C8  UNL     1      29.897   7.289  97.416  1.00  0.00    -0.091 C
HETATM   26  C9  UNL     1      30.048   8.705  97.845  1.00  0.00     0.042 C
HETATM   27  C10 UNL     1      30.917   6.338  97.927  1.00  0.00     0.042 C
ENDBRANCH  23  24
ENDBRANCH   3  23
BRANCH   1  28
HETATM   28  C2  UNL     1      25.731   3.439  99.475  1.00  0.00     0.161 C
HETATM   29  C1  UNL     1      25.628   2.016  99.783  1.00  0.00     0.097 C
HETATM   30  O1  UNL     1      25.691   4.262 100.458  1.00  0.00    -0.293 OA
ENDBRANCH   1  28
BRANCH   2  31
HETATM   31  O2  UNL     1      28.116   4.473  98.660  1.00  0.00    -0.359 OA
ATOM     32  H2  UNL     1      28.628   5.256  98.825  1.00  0.00     0.217 HD
ENDBRANCH   2  31
TORSDOF 9
ENDMDL