MODEL 5
REMARK VINA RESULT: -7.646050935      1.935      2.722
REMARK  7 active torsions:
REMARK  status: ('A' for Active; 'I' for Inactive)
REMARK    1  A    between atoms: C10_14  and  C11_15
REMARK    2  A    between atoms: C15_19  and  C16_20
REMARK    3  A    between atoms: C16_20  and  O2_21
REMARK    4  A    between atoms: C16_20  and  C17_23
REMARK    5  A    between atoms: C17_23  and  C18_24
REMARK    6  A    between atoms: C18_24  and  C19_26
REMARK    7  A    between atoms: C22_30  and  O5_31
ROOT
HETATM    1  C1  UNL     1      24.281   3.145  90.003  1.00  0.00     0.015 C
HETATM    2  C2  UNL     1      25.004   4.015  90.688  1.00  0.00    -0.075 C
HETATM    3  C3  UNL     1      24.498   5.418  90.789  1.00  0.00     0.117 C
HETATM    4  C4  UNL     1      24.636   5.789  92.223  1.00  0.00     0.116 C
HETATM    5  N1  UNL     1      23.676   6.424  92.850  1.00  0.00    -0.383 N
ATOM      6  H11 UNL     1      23.771   6.678  93.833  1.00  0.00     0.157 HD
ATOM      7  H12 UNL     1      22.802   6.691  92.396  1.00  0.00     0.157 HD
HETATM    8  O1  UNL     1      25.809   5.431  92.831  1.00  0.00    -0.327 OA
HETATM    9  C5  UNL     1      26.424   4.164  92.731  1.00  0.00     0.079 C
HETATM   10  C6  UNL     1      25.642   3.231  93.626  1.00  0.00     0.048 C
HETATM   11  C7  UNL     1      26.279   3.588  91.327  1.00  0.00     0.049 C
HETATM   12  C8  UNL     1      27.377   4.035  90.406  1.00  0.00     0.013 C
HETATM   13  C9  UNL     1      28.744   3.581  90.918  1.00  0.00     0.010 C
HETATM   14  C10 UNL     1      28.673   3.214  92.367  1.00  0.00     0.018 C
HETATM   15  C15 UNL     1      27.857   4.302  93.044  1.00  0.00     0.058 C
ENDROOT
BRANCH  15  16
HETATM   16  C16 UNL     1      28.261   4.463  94.447  1.00  0.00     0.133 C
BRANCH  16  17
HETATM   17  O2  UNL     1      27.806   3.530  95.353  1.00  0.00    -0.395 OA
ATOM     18  H2  UNL     1      28.314   2.734  95.457  1.00  0.00     0.210 HD
ENDBRANCH  16  17
BRANCH  16  19
HETATM   19  C17 UNL     1      28.007   5.841  95.023  1.00  0.00     0.116 C
BRANCH  19  20
HETATM   20  C18 UNL     1      28.109   5.780  96.506  1.00  0.00     0.166 C
HETATM   21  O3  UNL     1      27.080   5.694  97.224  1.00  0.00    -0.292 OA
BRANCH  20  22
HETATM   22  C19 UNL     1      29.404   5.818  97.177  1.00  0.00     0.070 A
HETATM   23  C20 UNL     1      30.046   4.763  97.829  1.00  0.00     0.044 A
HETATM   24  C21 UNL     1      31.238   5.263  98.309  1.00  0.00     0.146 A
HETATM   25  O4  UNL     1      31.336   6.533  97.982  1.00  0.00    -0.300 OA
HETATM   26  C22 UNL     1      30.253   6.873  97.309  1.00  0.00     0.197 A
BRANCH  26  27
HETATM   27  O5  UNL     1      30.012   8.136  96.805  1.00  0.00    -0.340 OA
ATOM     28  H5  UNL     1      29.376   8.331  96.127  1.00  0.00     0.220 HD
ENDBRANCH  26  27
ENDBRANCH  20  22
ENDBRANCH  19  20
ENDBRANCH  16  19
ENDBRANCH  15  16
BRANCH  14  29
HETATM   29  C11 UNL     1      29.888   2.849  93.068  1.00  0.00    -0.020 C
HETATM   30  C12 UNL     1      30.481   1.734  93.252  1.00  0.00    -0.091 C
HETATM   31  C13 UNL     1      30.063   0.417  92.769  1.00  0.00     0.042 C
HETATM   32  C14 UNL     1      31.777   1.737  94.064  1.00  0.00     0.042 C
ENDBRANCH  14  29
TORSDOF 7
ENDMDL