MODEL 5
REMARK VINA RESULT: -7.053125940      2.889      7.044
REMARK  6 active torsions:
REMARK  status: ('A' for Active; 'I' for Inactive)
REMARK    1  A    between atoms: C2_2  and  C4_4
REMARK    2  A    between atoms: C4_4  and  C5_5
REMARK    3  A    between atoms: C5_5  and  C6_6
REMARK    4  A    between atoms: C6_6  and  C7_7
REMARK    5  A    between atoms: C9_9  and  O1_10
REMARK    6  A    between atoms: C12_15  and  O3_16
ROOT
HETATM    1  C7  UNL     1      23.956   3.389  95.967  1.00  0.00     0.012 C
HETATM    2  C8  UNL     1      23.380   2.213  95.214  1.00  0.00     0.020 C
HETATM    3  C9  UNL     1      24.790   4.113  94.905  1.00  0.00     0.266 C
HETATM    4  O2  UNL     1      25.915   3.327  94.705  1.00  0.00    -0.352 OA
HETATM    5  C10 UNL     1      26.786   3.679  95.763  1.00  0.00     0.166 C
HETATM    6  C11 UNL     1      28.188   3.193  95.426  1.00  0.00     0.070 C
HETATM    7  C12 UNL     1      29.232   3.908  96.230  1.00  0.00     0.158 C
HETATM    8  C13 UNL     1      28.767   4.520  97.501  1.00  0.00     0.118 C
HETATM    9  C14 UNL     1      29.776   5.621  97.865  1.00  0.00     0.052 C
HETATM   10  C15 UNL     1      28.773   3.568  98.677  1.00  0.00     0.044 C
HETATM   11  C16 UNL     1      28.304   2.225  98.241  1.00  0.00     0.015 C
HETATM   12  C17 UNL     1      26.950   2.095  97.727  1.00  0.00     0.054 C
HETATM   13  C18 UNL     1      26.048   1.679  98.858  1.00  0.00    -0.082 C
HETATM   14  C19 UNL     1      26.120   0.403  99.259  1.00  0.00     0.015 C
HETATM   15  C20 UNL     1      25.116   2.636  99.504  1.00  0.00     0.034 C
HETATM   16  C21 UNL     1      24.320   3.457  98.477  1.00  0.00     0.013 C
HETATM   17  C22 UNL     1      24.791   2.945  97.122  1.00  0.00     0.040 C
HETATM   18  C23 UNL     1      26.270   3.277  97.083  1.00  0.00     0.134 C
HETATM   19  O4  UNL     1      26.561   4.363  97.954  1.00  0.00    -0.225 OA
HETATM   20  O5  UNL     1      27.534   5.115  97.484  1.00  0.00    -0.226 OA
ENDROOT
BRANCH   1  21
HETATM   21  C6  UNL     1      22.816   4.243  96.427  1.00  0.00     0.015 C
BRANCH  21  22
HETATM   22  C5  UNL     1      21.797   4.718  95.500  1.00  0.00     0.005 C
BRANCH  22  23
HETATM   23  C4  UNL     1      20.756   5.691  95.927  1.00  0.00     0.033 C
BRANCH  23  24
HETATM   24  C2  UNL     1      19.428   5.003  96.118  1.00  0.00    -0.093 C
HETATM   25  C1  UNL     1      18.924   4.901  97.335  1.00  0.00     0.014 C
HETATM   26  C3  UNL     1      18.734   4.464  94.916  1.00  0.00     0.042 C
ENDBRANCH  23  24
ENDBRANCH  22  23
ENDBRANCH  21  22
ENDBRANCH   1  21
BRANCH   3  27
HETATM   27  O1  UNL     1      25.013   5.423  95.186  1.00  0.00    -0.370 OA
ATOM     28  H1  UNL     1      24.570   6.021  94.594  1.00  0.00     0.212 HD
ENDBRANCH   3  27
BRANCH   7  29
HETATM   29  O3  UNL     1      29.852   4.936  95.478  1.00  0.00    -0.392 OA
ATOM     30  H3  UNL     1      30.402   4.580  94.790  1.00  0.00     0.210 HD
ENDBRANCH   7  29
TORSDOF 6
ENDMDL