MODEL 1
REMARK VINA RESULT: -7.772386951      0.000      0.000
REMARK  9 active torsions:
REMARK  status: ('A' for Active; 'I' for Inactive)
REMARK    1  A    between atoms: C4_4  and  C5_5
REMARK    2  A    between atoms: C5_5  and  C7_7
REMARK    3  A    between atoms: C7_7  and  C8_8
REMARK    4  A    between atoms: C9_9  and  C11_11
REMARK    5  A    between atoms: C11_11  and  O2_13
REMARK    6  A    between atoms: O2_13  and  C12_14
REMARK    7  A    between atoms: C16_19  and  O4_20
REMARK    8  A    between atoms: C17_22  and  O5_23
REMARK    9  A    between atoms: C22_29  and  O6_30
ROOT
HETATM    1  C12 UNL     1      29.230   0.854  89.244  1.00  0.00     0.305 C
HETATM    2  O3  UNL     1      30.040   1.501  90.181  1.00  0.00    -0.316 OA
HETATM    3  C13 UNL     1      31.138   2.257  89.891  1.00  0.00     0.088 A
HETATM    4  C14 UNL     1      32.135   2.536  90.826  1.00  0.00     0.008 A
HETATM    5  C15 UNL     1      32.024   2.002  92.207  1.00  0.00     0.054 C
HETATM    6  C16 UNL     1      33.228   3.305  90.489  1.00  0.00     0.108 A
HETATM    7  C17 UNL     1      33.317   3.798  89.191  1.00  0.00     0.105 A
HETATM    8  C18 UNL     1      32.328   3.521  88.259  1.00  0.00    -0.017 A
HETATM    9  C19 UNL     1      32.484   4.083  86.873  1.00  0.00     0.052 C
HETATM   10  C20 UNL     1      31.241   2.757  88.593  1.00  0.00    -0.013 A
HETATM   11  C21 UNL     1      30.212   2.479  87.592  1.00  0.00     0.079 C
HETATM   12  C22 UNL     1      29.493   1.177  87.821  1.00  0.00     0.178 C
ENDROOT
BRANCH   1  13
HETATM   13  O2  UNL     1      27.851   1.023  89.517  1.00  0.00    -0.283 OA
BRANCH  13  14
HETATM   14  C11 UNL     1      27.364   1.741  90.599  1.00  0.00     0.291 C
HETATM   15  O1  UNL     1      27.316   1.118  91.690  1.00  0.00    -0.260 OA
BRANCH  14  16
HETATM   16  C9  UNL     1      26.936   3.133  90.462  1.00  0.00     0.010 C
HETATM   17  C8  UNL     1      25.734   3.516  90.841  1.00  0.00    -0.010 C
HETATM   18  C10 UNL     1      27.895   4.110  89.880  1.00  0.00     0.054 C
BRANCH  17  19
HETATM   19  C7  UNL     1      25.328   4.903  90.696  1.00  0.00     0.061 C
BRANCH  19  20
HETATM   20  C5  UNL     1      24.980   5.587  91.997  1.00  0.00    -0.080 C
HETATM   21  C6  UNL     1      24.018   6.718  91.876  1.00  0.00     0.043 C
BRANCH  20  22
HETATM   22  C4  UNL     1      26.138   5.765  92.876  1.00  0.00     0.004 C
HETATM   23  C2  UNL     1      26.425   5.279  94.042  1.00  0.00    -0.087 C
HETATM   24  C1  UNL     1      25.592   4.363  94.821  1.00  0.00     0.043 C
HETATM   25  C3  UNL     1      27.739   5.678  94.681  1.00  0.00     0.043 C
ENDBRANCH  20  22
ENDBRANCH  19  20
ENDBRANCH  17  19
ENDBRANCH  14  16
ENDBRANCH  13  14
ENDBRANCH   1  13
BRANCH  12  26
HETATM   26  O6  UNL     1      28.327   1.215  87.041  1.00  0.00    -0.390 OA
ATOM     27  H6  UNL     1      28.064   2.098  86.809  1.00  0.00     0.210 HD
ENDBRANCH  12  26
BRANCH   6  28
HETATM   28  O4  UNL     1      34.248   3.610  91.394  1.00  0.00    -0.357 OA
ATOM     29  H4  UNL     1      34.494   4.501  91.612  1.00  0.00     0.217 HD
ENDBRANCH   6  28
BRANCH   7  30
HETATM   30  O5  UNL     1      34.406   4.587  88.784  1.00  0.00    -0.357 OA
ATOM     31  H5  UNL     1      35.234   4.194  88.536  1.00  0.00     0.217 HD
ENDBRANCH   7  30
TORSDOF 9
ENDMDL