MODEL 1
REMARK VINA RESULT: -5.819141655      0.000      0.000
REMARK  3 active torsions:
REMARK  status: ('A' for Active; 'I' for Inactive)
REMARK    1  A    between atoms: C7_8  and  C8_9
REMARK    2  A    between atoms: C8_9  and  C9_10
REMARK    3  A    between atoms: C20_22  and  C22_24
ROOT
HETATM    1  C1  UNL     1      31.223   8.929  -5.400  1.00  0.00     0.040 C
HETATM    2  C2  UNL     1      31.098   8.611  -6.900  1.00  0.00     0.133 C
HETATM    3  O1  UNL     1      32.268   9.200  -7.486  1.00  0.00    -0.325 OA
HETATM    4  C3  UNL     1      33.476   8.504  -7.406  1.00  0.00     0.184 C
HETATM    5  C4  UNL     1      33.411   7.225  -7.678  1.00  0.00    -0.013 C
HETATM    6  C5  UNL     1      34.640   6.397  -7.616  1.00  0.00     0.042 C
HETATM    7  C6  UNL     1      35.695   7.008  -6.694  1.00  0.00     0.037 C
HETATM    8  C7  UNL     1      35.933   8.412  -7.111  1.00  0.00     0.131 C
HETATM    9  O2  UNL     1      34.666   9.081  -7.073  1.00  0.00    -0.325 OA
HETATM   10  C15 UNL     1      32.094   6.654  -8.081  1.00  0.00    -0.009 C
HETATM   11  C16 UNL     1      32.256   5.164  -8.093  1.00  0.00     0.021 C
HETATM   12  C17 UNL     1      31.747   7.110  -9.476  1.00  0.00     0.014 C
HETATM   13  C18 UNL     1      30.513   6.424  -9.944  1.00  0.00     0.002 C
HETATM   14  C19 UNL     1      29.438   6.251  -8.963  1.00  0.00     0.020 C
HETATM   15  C20 UNL     1      29.648   6.639  -7.544  1.00  0.00     0.052 C
HETATM   16  C21 UNL     1      29.301   5.411  -6.678  1.00  0.00     0.027 C
HETATM   17  C23 UNL     1      31.008   7.143  -7.171  1.00  0.00     0.046 C
ENDROOT
BRANCH   8  18
HETATM   18  C8  UNL     1      36.838   9.237  -6.290  1.00  0.00     0.037 C
BRANCH  18  19
HETATM   19  C9  UNL     1      36.297  10.325  -5.461  1.00  0.00    -0.012 C
HETATM   20  C10 UNL     1      36.944  11.669  -5.699  1.00  0.00     0.005 C
HETATM   21  C11 UNL     1      36.047  12.704  -5.015  1.00  0.00     0.000 C
HETATM   22  C12 UNL     1      35.747  12.310  -3.597  1.00  0.00     0.000 C
HETATM   23  C13 UNL     1      36.560  11.101  -3.158  1.00  0.00     0.000 C
HETATM   24  C14 UNL     1      36.111   9.946  -4.043  1.00  0.00     0.005 C
ENDBRANCH  18  19
ENDBRANCH   8  18
BRANCH  15  25
HETATM   25  C22 UNL     1      28.640   7.645  -7.128  1.00  0.00     0.182 C
HETATM   26  O3  UNL     1      28.227   8.486  -8.001  1.00  0.00    -0.647 OA
HETATM   27  O4  UNL     1      28.086   7.778  -5.883  1.00  0.00    -0.647 OA
ENDBRANCH  15  25
TORSDOF 3
ENDMDL