MODEL 5
REMARK VINA RESULT: -5.480350372      1.520      2.978
REMARK  4 active torsions:
REMARK  status: ('A' for Active; 'I' for Inactive)
REMARK    1  A    between atoms: N2_7  and  C3_8
REMARK    2  A    between atoms: C9_14  and  C10_15
REMARK    3  A    between atoms: C10_15  and  C11_16
REMARK    4  A    between atoms: C11_16  and  C12_17
ROOT
HETATM    1  O1  UNL     1      34.053  12.291  -4.166  1.00  0.00    -0.267 OA
HETATM    2  C1  UNL     1      33.288  11.431  -4.707  1.00  0.00     0.257 A
HETATM    3  N1  UNL     1      32.088  11.792  -5.193  1.00  0.00    -0.275 N
ATOM      4  H1  UNL     1      31.822  12.773  -5.109  1.00  0.00     0.173 HD
HETATM    5  C2  UNL     1      31.221  10.965  -5.776  1.00  0.00     0.329 A
HETATM    6  O2  UNL     1      30.108  11.384  -6.207  1.00  0.00    -0.246 OA
HETATM    7  N2  UNL     1      31.527   9.665  -5.910  1.00  0.00    -0.304 N
HETATM    8  C8  UNL     1      32.723   9.252  -5.437  1.00  0.00     0.108 A
HETATM    9  C9  UNL     1      33.624  10.107  -4.831  1.00  0.00     0.026 A
ENDROOT
BRANCH   9  10
HETATM   10  C10 UNL     1      34.938   9.621  -4.312  1.00  0.00     0.046 C
BRANCH  10  11
HETATM   11  C11 UNL     1      36.012   9.747  -5.366  1.00  0.00     0.009 C
BRANCH  11  12
HETATM   12  C12 UNL     1      36.185   8.475  -6.151  1.00  0.00    -0.014 C
HETATM   13  C13 UNL     1      37.476   7.770  -5.922  1.00  0.00     0.004 C
HETATM   14  C14 UNL     1      37.325   6.500  -5.093  1.00  0.00     0.000 C
HETATM   15  C15 UNL     1      38.366   5.477  -5.350  1.00  0.00     0.000 C
HETATM   16  C16 UNL     1      38.224   4.633  -6.554  1.00  0.00     0.000 C
HETATM   17  C17 UNL     1      36.899   3.988  -6.775  1.00  0.00     0.000 C
HETATM   18  C18 UNL     1      36.469   4.040  -8.246  1.00  0.00     0.000 C
HETATM   19  C19 UNL     1      35.001   4.197  -8.430  1.00  0.00     0.000 C
HETATM   20  C20 UNL     1      34.615   5.573  -8.989  1.00  0.00     0.000 C
HETATM   21  C21 UNL     1      35.169   6.565  -8.017  1.00  0.00     0.000 C
HETATM   22  C22 UNL     1      34.795   7.987  -8.205  1.00  0.00     0.000 C
HETATM   23  C23 UNL     1      35.932   8.831  -7.599  1.00  0.00     0.004 C
ENDBRANCH  11  12
ENDBRANCH  10  11
ENDBRANCH   9  10
BRANCH   7  24
HETATM   24  C3  UNL     1      30.668   8.685  -6.517  1.00  0.00     0.094 C
HETATM   25  C4  UNL     1      31.363   7.710  -7.418  1.00  0.00     0.026 C
HETATM   26  C5  UNL     1      30.343   6.562  -7.497  1.00  0.00     0.002 C
HETATM   27  C6  UNL     1      29.554   6.627  -6.237  1.00  0.00     0.002 C
HETATM   28  C7  UNL     1      30.126   7.778  -5.437  1.00  0.00     0.026 C
ENDBRANCH   7  24
TORSDOF 4
ENDMDL