MODEL 5
REMARK VINA RESULT: -4.801459732      2.117      6.724
REMARK  5 active torsions:
REMARK  status: ('A' for Active; 'I' for Inactive)
REMARK    1  A    between atoms: C9_9  and  C10_10
REMARK    2  A    between atoms: C17_18  and  C18_19
REMARK    3  A    between atoms: C18_19  and  C19_20
REMARK    4  A    between atoms: C19_20  and  C20_21
REMARK    5  A    between atoms: C20_21  and  O2_22
ROOT
HETATM    1  C10 UNL     1      33.334   9.498  -6.432  1.00  0.00     0.026 C
HETATM    2  C11 UNL     1      32.688  10.892  -6.713  1.00  0.00     0.009 C
HETATM    3  C12 UNL     1      33.354  11.868  -5.758  1.00  0.00     0.009 C
HETATM    4  C13 UNL     1      34.621  11.171  -5.604  1.00  0.00     0.030 C
HETATM    5  C14 UNL     1      35.610  11.442  -4.626  1.00  0.00     0.058 C
HETATM    6  C15 UNL     1      35.282  12.472  -3.561  1.00  0.00     0.046 C
HETATM    7  C16 UNL     1      36.878  11.939  -5.304  1.00  0.00     0.046 C
HETATM    8  O1  UNL     1      35.933  10.208  -4.052  1.00  0.00    -0.374 OA
HETATM    9  C17 UNL     1      35.390   9.199  -4.891  1.00  0.00     0.131 C
HETATM   10  C21 UNL     1      34.072   9.777  -5.212  1.00  0.00    -0.005 C
HETATM   11  C22 UNL     1      33.200   9.856  -4.001  1.00  0.00     0.019 C
ENDROOT
BRANCH   1  12
HETATM   12  C9  UNL     1      32.197   8.586  -6.478  1.00  0.00     0.135 C
HETATM   13  C7  UNL     1      31.876   7.733  -7.635  1.00  0.00    -0.011 C
HETATM   14  C6  UNL     1      31.693   8.430  -8.939  1.00  0.00     0.012 C
HETATM   15  C8  UNL     1      32.725   6.490  -7.793  1.00  0.00     0.018 C
HETATM   16  C24 UNL     1      30.532   7.168  -7.114  1.00  0.00     0.028 C
HETATM   17  C5  UNL     1      30.297   8.451  -9.480  1.00  0.00     0.002 C
HETATM   18  C4  UNL     1      29.809   7.029  -9.524  1.00  0.00     0.009 C
HETATM   19  C2  UNL     1      29.650   6.572  -8.105  1.00  0.00    -0.041 C
HETATM   20  C1  UNL     1      28.205   6.934  -7.716  1.00  0.00     0.015 C
HETATM   21  C3  UNL     1      29.677   5.051  -8.110  1.00  0.00     0.015 C
HETATM   22  C23 UNL     1      29.988   8.351  -6.355  1.00  0.00     0.174 C
HETATM   23  O3  UNL     1      30.975   9.334  -6.394  1.00  0.00    -0.384 OA
ENDBRANCH   1  12
BRANCH   9  24
HETATM   24  C18 UNL     1      36.292   8.830  -5.991  1.00  0.00     0.035 C
BRANCH  24  25
HETATM   25  C19 UNL     1      37.102   7.602  -5.854  1.00  0.00     0.028 C
BRANCH  25  26
HETATM   26  C20 UNL     1      36.411   6.287  -5.972  1.00  0.00     0.164 C
BRANCH  26  27
HETATM   27  O2  UNL     1      36.708   5.406  -4.949  1.00  0.00    -0.401 OA
ATOM     28  H2  UNL     1      36.048   5.372  -4.267  1.00  0.00     0.209 HD
ENDBRANCH  26  27
ENDBRANCH  25  26
ENDBRANCH  24  25
ENDBRANCH   9  24
TORSDOF 5
ENDMDL