MODEL 5
REMARK VINA RESULT: -4.471804311      4.724      7.877
REMARK  5 active torsions:
REMARK  status: ('A' for Active; 'I' for Inactive)
REMARK    1  A    between atoms: O1_2  and  C2_3
REMARK    2  A    between atoms: C2_3  and  C3_5
REMARK    3  A    between atoms: C3_5  and  C4_6
REMARK    4  A    between atoms: C4_6  and  C5_7
REMARK    5  A    between atoms: C21_23  and  C23_25
ROOT
HETATM    1  C5  UNL     1      32.114   9.209  -7.364  1.00  0.00     0.009 C
HETATM    2  C6  UNL     1      32.851   9.281  -6.032  1.00  0.00    -0.004 C
HETATM    3  C7  UNL     1      32.430  10.562  -5.374  1.00  0.00     0.006 C
HETATM    4  C8  UNL     1      33.346  11.086  -4.328  1.00  0.00     0.006 C
HETATM    5  C9  UNL     1      34.789  10.784  -4.431  1.00  0.00     0.002 C
HETATM    6  C10 UNL     1      35.638  11.934  -3.958  1.00  0.00    -0.043 C
HETATM    7  C11 UNL     1      34.811  12.914  -3.104  1.00  0.00     0.015 C
HETATM    8  C12 UNL     1      36.746  11.470  -3.008  1.00  0.00     0.015 C
HETATM    9  C13 UNL     1      36.190  12.768  -5.087  1.00  0.00     0.009 C
HETATM   10  C14 UNL     1      35.339  12.709  -6.330  1.00  0.00     0.002 C
HETATM   11  C15 UNL     1      35.130  11.301  -6.852  1.00  0.00     0.010 C
HETATM   12  C16 UNL     1      35.192  10.254  -5.802  1.00  0.00    -0.036 C
HETATM   13  C17 UNL     1      36.576   9.659  -5.809  1.00  0.00     0.016 C
HETATM   14  C18 UNL     1      34.285   9.045  -6.013  1.00  0.00    -0.002 C
HETATM   15  C19 UNL     1      34.741   8.142  -7.135  1.00  0.00     0.007 C
HETATM   16  C20 UNL     1      34.216   8.569  -8.453  1.00  0.00     0.021 C
HETATM   17  C21 UNL     1      32.693   8.395  -8.425  1.00  0.00     0.049 C
HETATM   18  C22 UNL     1      32.233   8.874  -9.798  1.00  0.00     0.027 C
ENDROOT
BRANCH   1  19
HETATM   19  C4  UNL     1      30.692   8.871  -7.004  1.00  0.00     0.016 C
BRANCH  19  20
HETATM   20  C3  UNL     1      30.460   8.063  -5.771  1.00  0.00     0.111 C
BRANCH  20  21
HETATM   21  C2  UNL     1      29.203   7.258  -5.897  1.00  0.00     0.258 C
HETATM   22  O2  UNL     1      28.119   7.851  -5.956  1.00  0.00    -0.265 OA
BRANCH  21  23
HETATM   23  O1  UNL     1      29.261   5.892  -5.946  1.00  0.00    -0.326 OA
HETATM   24  C1  UNL     1      29.230   5.142  -7.144  1.00  0.00     0.213 C
ENDBRANCH  21  23
ENDBRANCH  20  21
ENDBRANCH  19  20
ENDBRANCH   1  19
BRANCH  17  25
HETATM   25  C23 UNL     1      32.487   6.939  -8.369  1.00  0.00     0.181 C
HETATM   26  O3  UNL     1      32.929   6.120  -7.568  1.00  0.00    -0.647 OA
HETATM   27  O4  UNL     1      31.666   6.416  -9.389  1.00  0.00    -0.647 OA
ENDBRANCH  17  25
TORSDOF 5
ENDMDL