MODEL 2
REMARK VINA RESULT: -5.141027488      4.376      7.528
REMARK  4 active torsions:
REMARK  status: ('A' for Active; 'I' for Inactive)
REMARK    1  A    between atoms: C2_2  and  C3_3
REMARK    2  A    between atoms: C3_3  and  C4_4
REMARK    3  A    between atoms: C4_4  and  C5_6
REMARK    4  A    between atoms: C6_9  and  C7_10
ROOT
HETATM    1  C7  UNL     1      31.024  11.466  -7.189  1.00  0.00    -0.001 C
HETATM    2  C8  UNL     1      31.546  12.058  -8.454  1.00  0.00     0.022 C
HETATM    3  C9  UNL     1      31.341  12.425  -6.023  1.00  0.00     0.021 C
HETATM    4  C10 UNL     1      32.700  11.808  -6.067  1.00  0.00     0.000 C
HETATM    5  C11 UNL     1      31.987  10.523  -6.499  1.00  0.00     0.004 C
HETATM    6  C12 UNL     1      31.472   9.735  -5.362  1.00  0.00     0.006 C
HETATM    7  C13 UNL     1      32.549   9.404  -4.402  1.00  0.00     0.006 C
HETATM    8  C14 UNL     1      33.734  10.280  -4.391  1.00  0.00    -0.006 C
HETATM    9  C15 UNL     1      34.896   9.616  -5.139  1.00  0.00     0.006 C
HETATM   10  C16 UNL     1      36.147  10.252  -4.577  1.00  0.00     0.009 C
HETATM   11  C17 UNL     1      36.033  11.746  -4.497  1.00  0.00    -0.047 C
HETATM   12  C18 UNL     1      36.251  12.263  -3.072  1.00  0.00     0.015 C
HETATM   13  C19 UNL     1      37.270  12.282  -5.251  1.00  0.00     0.015 C
HETATM   14  C20 UNL     1      34.864  12.334  -5.169  1.00  0.00     0.018 C
HETATM   15  C21 UNL     1      33.512  11.693  -4.842  1.00  0.00    -0.036 C
HETATM   16  C22 UNL     1      32.975  12.465  -3.655  1.00  0.00     0.016 C
ENDROOT
BRANCH   1  17
HETATM   17  C6  UNL     1      29.595  11.079  -7.185  1.00  0.00    -0.001 C
HETATM   18  N1  UNL     1      28.990  10.264  -7.954  1.00  0.00    -0.378 N
HETATM   19  C5  UNL     1      27.607  10.133  -7.664  1.00  0.00     0.221 C
ATOM     20  H1  UNL     1      29.454   9.756  -8.706  1.00  0.00     0.160 HD
HETATM   21  C24 UNL     1      27.307  11.296  -6.755  1.00  0.00     0.162 C
HETATM   22  C23 UNL     1      28.637  11.650  -6.200  1.00  0.00     0.134 C
HETATM   23  O2  UNL     1      26.205  11.772  -6.577  1.00  0.00    -0.295 OA
BRANCH  19  24
HETATM   24  C4  UNL     1      27.259   8.907  -6.942  1.00  0.00     0.156 C
HETATM   25  O1  UNL     1      26.366   8.924  -6.123  1.00  0.00    -0.295 OA
BRANCH  24  26
HETATM   26  C3  UNL     1      27.972   7.632  -7.182  1.00  0.00     0.080 C
BRANCH  26  27
HETATM   27  C2  UNL     1      28.863   7.257  -6.029  1.00  0.00     0.003 C
HETATM   28  C1  UNL     1      29.311   5.827  -6.206  1.00  0.00     0.005 C
ENDBRANCH  26  27
ENDBRANCH  24  26
ENDBRANCH  19  24
ENDBRANCH   1  17
TORSDOF 4
ENDMDL