MODEL 4
REMARK VINA RESULT: -5.695171136      3.339      7.982
REMARK  5 active torsions:
REMARK  status: ('A' for Active; 'I' for Inactive)
REMARK    1  A    between atoms: C2_2  and  C3_3
REMARK    2  A    between atoms: C3_3  and  C4_4
REMARK    3  A    between atoms: C4_4  and  C5_5
REMARK    4  A    between atoms: N2_9  and  C7_10
REMARK    5  A    between atoms: C15_18  and  O1_19
ROOT
HETATM    1  C7  UNL     1      36.047  10.670  -5.586  1.00  0.00     0.116 C
HETATM    2  C8  UNL     1      35.101   9.525  -5.196  1.00  0.00     0.033 C
HETATM    3  C9  UNL     1      34.320   9.886  -6.438  1.00  0.00     0.002 C
HETATM    4  C10 UNL     1      32.849   9.752  -6.407  1.00  0.00    -0.001 C
HETATM    5  C11 UNL     1      32.292   9.126  -5.137  1.00  0.00     0.033 C
HETATM    6  C12 UNL     1      30.878   8.806  -5.458  1.00  0.00    -0.023 C
HETATM    7  C13 UNL     1      30.165   9.574  -6.219  1.00  0.00    -0.072 C
HETATM    8  C14 UNL     1      28.755   9.202  -6.504  1.00  0.00     0.066 C
HETATM    9  C15 UNL     1      27.909  10.384  -6.805  1.00  0.00     0.122 C
HETATM   10  C16 UNL     1      28.362  11.703  -6.338  1.00  0.00     0.033 C
HETATM   11  C17 UNL     1      29.837  11.905  -6.139  1.00  0.00     0.016 C
HETATM   12  C18 UNL     1      30.650  10.816  -6.829  1.00  0.00    -0.017 C
HETATM   13  C19 UNL     1      30.194  10.896  -8.306  1.00  0.00     0.020 C
HETATM   14  C20 UNL     1      32.106  11.019  -6.755  1.00  0.00     0.003 C
HETATM   15  C21 UNL     1      32.579  12.212  -5.964  1.00  0.00     0.007 C
HETATM   16  C22 UNL     1      33.930  12.055  -5.348  1.00  0.00     0.012 C
HETATM   17  C23 UNL     1      34.823  11.299  -6.264  1.00  0.00    -0.017 C
HETATM   18  C24 UNL     1      35.233  12.011  -7.510  1.00  0.00     0.018 C
ENDROOT
BRANCH   1  19
HETATM   19  N2  UNL     1      36.536  11.414  -4.449  1.00  0.00    -0.298 N
HETATM   20  N1  UNL     1      37.081  12.615  -4.429  1.00  0.00    -0.309 N
HETATM   21  C6  UNL     1      37.399  12.956  -3.190  1.00  0.00     0.115 A
ATOM     22  H1  UNL     1      37.234  13.199  -5.252  1.00  0.00     0.186 HD
HETATM   23  C5  UNL     1      37.047  11.924  -2.344  1.00  0.00    -0.024 A
HETATM   24  C25 UNL     1      36.496  10.954  -3.186  1.00  0.00     0.119 A
BRANCH  23  25
HETATM   25  C4  UNL     1      37.206  11.840  -0.868  1.00  0.00     0.041 C
BRANCH  25  26
HETATM   26  C3  UNL     1      38.366  12.706  -0.427  1.00  0.00     0.004 C
BRANCH  26  27
HETATM   27  C2  UNL     1      38.071  13.359   0.918  1.00  0.00    -0.004 C
HETATM   28  C1  UNL     1      36.666  12.975   1.311  1.00  0.00     0.005 C
ENDBRANCH  26  27
ENDBRANCH  25  26
ENDBRANCH  23  25
ENDBRANCH   1  19
BRANCH   9  29
HETATM   29  O1  UNL     1      26.657  10.119  -6.182  1.00  0.00    -0.395 OA
ATOM     30  H1  UNL     1      26.000  10.343  -6.831  1.00  0.00     0.210 HD
ENDBRANCH   9  29
TORSDOF 5
ENDMDL