MODEL 1
REMARK VINA RESULT: -5.419076040      0.000      0.000
REMARK  6 active torsions:
REMARK  status: ('A' for Active; 'I' for Inactive)
REMARK    1  A    between atoms: C3_3  and  C4_4
REMARK    2  A    between atoms: C4_4  and  C5_5
REMARK    3  A    between atoms: C5_5  and  C6_6
REMARK    4  A    between atoms: C6_6  and  O1_7
REMARK    5  A    between atoms: C6_6  and  C7_9
REMARK    6  A    between atoms: C12_14  and  O2_15
ROOT
HETATM    1  C7  UNL     1      32.674  10.586  -5.467  1.00  0.00     0.113 C
HETATM    2  C8  UNL     1      33.342  10.613  -6.774  1.00  0.00     0.046 C
HETATM    3  C9  UNL     1      32.577  10.192  -7.998  1.00  0.00     0.011 C
HETATM    4  C10 UNL     1      31.425   9.289  -7.748  1.00  0.00     0.022 C
HETATM    5  C11 UNL     1      30.354   9.394  -8.821  1.00  0.00     0.039 C
HETATM    6  C12 UNL     1      29.685  10.729  -8.875  1.00  0.00     0.122 C
HETATM    7  C13 UNL     1      29.239  11.221  -7.512  1.00  0.00     0.017 C
HETATM    8  C14 UNL     1      29.765  12.573  -7.283  1.00  0.00     0.007 C
HETATM    9  C15 UNL     1      30.240  12.947  -5.941  1.00  0.00     0.001 C
HETATM   10  C16 UNL     1      31.774  12.922  -5.887  1.00  0.00     0.007 C
HETATM   11  C17 UNL     1      32.269  11.915  -4.881  1.00  0.00     0.023 C
HETATM   12  C18 UNL     1      33.233  12.618  -3.981  1.00  0.00     0.013 C
HETATM   13  C19 UNL     1      29.412  10.160  -6.511  1.00  0.00     0.045 C
HETATM   14  C20 UNL     1      30.764   9.483  -6.424  1.00  0.00     0.063 C
HETATM   15  C21 UNL     1      30.407   8.014  -5.999  1.00  0.00     0.046 C
HETATM   16  O3  UNL     1      31.500   9.855  -5.385  1.00  0.00    -0.362 OA
ENDROOT
BRANCH   1  17
HETATM   17  C6  UNL     1      33.578   9.907  -4.472  1.00  0.00     0.078 C
BRANCH  17  18
HETATM   18  C5  UNL     1      34.986   9.734  -4.489  1.00  0.00     0.036 C
BRANCH  18  19
HETATM   19  C4  UNL     1      35.953  10.247  -3.780  1.00  0.00     0.010 C
BRANCH  19  20
HETATM   20  C3  UNL     1      36.653  11.481  -4.092  1.00  0.00    -0.056 C
HETATM   21  C2  UNL     1      37.216  12.145  -3.074  1.00  0.00    -0.077 C
HETATM   22  C1  UNL     1      37.118  11.624  -1.670  1.00  0.00     0.044 C
HETATM   23  C25 UNL     1      37.965  13.414  -3.231  1.00  0.00     0.034 C
HETATM   24  C24 UNL     1      37.977  13.973  -4.609  1.00  0.00     0.005 C
HETATM   25  C23 UNL     1      36.687  13.578  -5.286  1.00  0.00     0.005 C
HETATM   26  C22 UNL     1      36.783  12.052  -5.459  1.00  0.00     0.039 C
ENDBRANCH  19  20
ENDBRANCH  18  19
ENDBRANCH  17  18
BRANCH  17  27
HETATM   27  O1  UNL     1      33.018   9.377  -3.415  1.00  0.00    -0.362 OA
ATOM     28  H1  UNL     1      32.379   9.952  -3.012  1.00  0.00     0.217 HD
ENDBRANCH  17  27
ENDBRANCH   1  17
BRANCH   6  29
HETATM   29  O2  UNL     1      28.609  10.589  -9.779  1.00  0.00    -0.395 OA
ATOM     30  H2  UNL     1      28.575  11.399 -10.274  1.00  0.00     0.210 HD
ENDBRANCH   6  29
TORSDOF 6
ENDMDL