MODEL 4
REMARK VINA RESULT: -5.046806967      3.692      7.538
REMARK  5 active torsions:
REMARK  status: ('A' for Active; 'I' for Inactive)
REMARK    1  A    between atoms: C3_3  and  N1_4
REMARK    2  A    between atoms: C7_9  and  S1_10
REMARK    3  A    between atoms: S1_10  and  C8_11
REMARK    4  A    between atoms: C8_11  and  C9_12
REMARK    5  A    between atoms: C22_25  and  C23_26
ROOT
HETATM    1  C1  UNL     1      38.363  15.603  -4.494  1.00  0.00     0.014 C
HETATM    2  C2  UNL     1      37.914  15.475  -3.383  1.00  0.00    -0.098 C
HETATM    3  C3  UNL     1      37.362  15.311  -2.012  1.00  0.00     0.217 C
ENDROOT
BRANCH   3   4
HETATM    4  N1  UNL     1      36.275  14.374  -2.002  1.00  0.00    -0.361 N
HETATM    5  C4  UNL     1      34.874  14.719  -2.125  1.00  0.00     0.044 A
HETATM    6  C5  UNL     1      34.119  15.801  -1.758  1.00  0.00     0.058 A
HETATM    7  C13 UNL     1      34.246  13.644  -2.773  1.00  0.00     0.001 A
HETATM    8  C6  UNL     1      32.743  15.878  -2.000  1.00  0.00     0.065 A
HETATM    9  N2  UNL     1      32.051  17.073  -1.597  1.00  0.00    -0.101 NA
HETATM   10  C7  UNL     1      32.129  14.833  -2.626  1.00  0.00     0.026 A
HETATM   11  C12 UNL     1      32.897  13.719  -3.008  1.00  0.00     0.034 A
HETATM   12  C14 UNL     1      35.330  12.651  -3.036  1.00  0.00    -0.020 C
HETATM   13  C15 UNL     1      35.368  11.892  -4.094  1.00  0.00    -0.071 C
HETATM   14  C22 UNL     1      36.212  12.921  -1.878  1.00  0.00     0.119 C
HETATM   15  C16 UNL     1      36.532  10.930  -4.204  1.00  0.00     0.035 C
HETATM   16  C21 UNL     1      34.383  11.987  -5.196  1.00  0.00     0.035 C
HETATM   17  C17 UNL     1      36.374   9.981  -5.382  1.00  0.00     0.004 C
HETATM   18  C18 UNL     1      35.298   8.972  -5.221  1.00  0.00     0.000 C
HETATM   19  C19 UNL     1      34.082   9.567  -4.620  1.00  0.00     0.000 C
HETATM   20  C20 UNL     1      33.539  10.750  -5.373  1.00  0.00     0.004 C
BRANCH  10  21
HETATM   21  S1  UNL     1      30.435  14.755  -3.030  1.00  0.00    -0.116 SA
BRANCH  21  22
HETATM   22  C8  UNL     1      29.242  14.706  -1.746  1.00  0.00     0.173 C
BRANCH  22  23
HETATM   23  C9  UNL     1      28.019  14.012  -2.176  1.00  0.00    -0.097 C
HETATM   24  C10 UNL     1      27.013  13.428  -2.511  1.00  0.00    -0.110 C
HETATM   25  C11 UNL     1      25.795  12.710  -2.944  1.00  0.00     0.112 C
ENDBRANCH  22  23
ENDBRANCH  21  22
ENDBRANCH  10  21
BRANCH  14  26
HETATM   26  C23 UNL     1      37.461  12.224  -1.688  1.00  0.00     0.026 C
HETATM   27  C24 UNL     1      37.547  11.851  -0.187  1.00  0.00     0.007 C
ENDBRANCH  14  26
ENDBRANCH   3   4
TORSDOF 5
ENDMDL