MODEL 3
REMARK VINA RESULT: -5.766406522      1.208      1.478
REMARK  5 active torsions:
REMARK  status: ('A' for Active; 'I' for Inactive)
REMARK    1  A    between atoms: C1_2  and  O2_3
REMARK       I    between atoms: C1_2  and  N1_11
REMARK    2  A    between atoms: O2_3  and  C2_4
REMARK    3  A    between atoms: C2_4  and  C3_5
REMARK    4  A    between atoms: C13_16  and  C14_17
REMARK    5  A    between atoms: C16_19  and  C17_20
ROOT
HETATM    1  O1  UNL     1      35.299  12.547  -6.497  1.00  0.00    -0.238 OA
HETATM    2  C1  UNL     1      35.613  11.692  -5.593  1.00  0.00     0.363 C
HETATM    3  N1  UNL     1      35.532  10.310  -5.867  1.00  0.00    -0.318 N
HETATM    4  C9  UNL     1      35.880   9.347  -4.868  1.00  0.00     0.129 C
HETATM    5  C10 UNL     1      36.971   8.466  -5.403  1.00  0.00     0.020 C
HETATM    6  C11 UNL     1      36.734   7.982  -6.796  1.00  0.00     0.004 C
HETATM    7  C12 UNL     1      36.199   9.003  -7.734  1.00  0.00     0.032 C
HETATM    8  C13 UNL     1      35.097   9.857  -7.152  1.00  0.00     0.141 C
ENDROOT
BRANCH   8   9
HETATM    9  C14 UNL     1      33.841   9.094  -7.023  1.00  0.00     0.050 A
HETATM   10  C15 UNL     1      32.757   9.435  -6.281  1.00  0.00     0.055 A
HETATM   11  C16 UNL     1      31.813   8.437  -6.453  1.00  0.00     0.032 A
HETATM   12  N2  UNL     1      32.342   7.525  -7.286  1.00  0.00    -0.304 N
HETATM   13  N3  UNL     1      33.542   7.916  -7.621  1.00  0.00    -0.303 N
ATOM     14  H2  UNL     1      31.885   6.670  -7.602  1.00  0.00     0.186 HD
ATOM     15  H3  UNL     1      34.167   7.407  -8.245  1.00  0.00     0.186 HD
BRANCH  11  16
HETATM   16  C17 UNL     1      30.459   8.331  -5.862  1.00  0.00     0.037 C
HETATM   17  C18 UNL     1      29.654   9.566  -6.176  1.00  0.00     0.011 C
HETATM   18  C19 UNL     1      28.751   9.420  -7.370  1.00  0.00     0.001 C
HETATM   19  C20 UNL     1      27.874   8.214  -7.338  1.00  0.00     0.000 C
HETATM   20  C21 UNL     1      28.255   7.347  -6.159  1.00  0.00     0.001 C
HETATM   21  C22 UNL     1      29.751   7.071  -6.309  1.00  0.00     0.011 C
ENDBRANCH  11  16
ENDBRANCH   8   9
BRANCH   2  22
HETATM   22  O2  UNL     1      36.017  12.218  -4.394  1.00  0.00    -0.304 OA
BRANCH  22  23
HETATM   23  C2  UNL     1      37.183  12.956  -4.136  1.00  0.00     0.185 C
BRANCH  23  24
HETATM   24  C3  UNL     1      37.822  12.678  -2.810  1.00  0.00     0.010 C
HETATM   25  C4  UNL     1      38.155  14.020  -2.169  1.00  0.00     0.007 C
HETATM   26  C5  UNL     1      37.957  14.004  -0.683  1.00  0.00     0.000 C
HETATM   27  C6  UNL     1      38.365  12.689  -0.065  1.00  0.00     0.000 C
HETATM   28  C7  UNL     1      37.617  11.532  -0.643  1.00  0.00     0.000 C
HETATM   29  C8  UNL     1      36.898  11.877  -1.923  1.00  0.00     0.007 C
ENDBRANCH  23  24
ENDBRANCH  22  23
ENDBRANCH   2  22
TORSDOF 5
ENDMDL