MODEL 4
REMARK VINA RESULT: -4.745733496      3.454      5.259
REMARK  3 active torsions:
REMARK  status: ('A' for Active; 'I' for Inactive)
REMARK    1  A    between atoms: C2_2  and  C3_3
REMARK    2  A    between atoms: C3_3  and  C4_4
REMARK    3  A    between atoms: C6_7  and  C7_8
ROOT
HETATM    1  C4  UNL     1      36.118  12.826  -6.227  1.00  0.00     0.063 C
HETATM    2  C5  UNL     1      37.623  12.691  -6.368  1.00  0.00     0.046 C
HETATM    3  O1  UNL     1      36.092  13.508  -4.943  1.00  0.00    -0.363 OA
HETATM    4  C6  UNL     1      35.224  12.890  -4.128  1.00  0.00     0.231 C
HETATM    5  C8  UNL     1      34.968  11.518  -4.620  1.00  0.00    -0.001 C
HETATM    6  C9  UNL     1      33.569  11.042  -4.369  1.00  0.00     0.019 C
HETATM    7  C10 UNL     1      35.869  10.596  -3.833  1.00  0.00     0.013 C
HETATM    8  C11 UNL     1      36.001   9.219  -4.447  1.00  0.00     0.007 C
HETATM    9  C12 UNL     1      36.602   9.449  -5.796  1.00  0.00    -0.001 C
HETATM   10  C13 UNL     1      35.777  10.338  -6.685  1.00  0.00    -0.002 C
HETATM   11  C14 UNL     1      34.644   9.595  -7.360  1.00  0.00     0.006 C
HETATM   12  C15 UNL     1      34.667   8.124  -7.232  1.00  0.00     0.006 C
HETATM   13  C16 UNL     1      36.033   7.508  -7.284  1.00  0.00     0.001 C
HETATM   14  C17 UNL     1      35.851   6.051  -6.835  1.00  0.00     0.083 C
HETATM   15  C18 UNL     1      37.161   5.347  -6.816  1.00  0.00     0.127 C
HETATM   16  O4  UNL     1      37.341   4.277  -7.330  1.00  0.00    -0.298 OA
HETATM   17  C19 UNL     1      38.279   6.052  -6.107  1.00  0.00     0.079 C
HETATM   18  C20 UNL     1      37.711   7.281  -5.484  1.00  0.00     0.017 C
HETATM   19  C21 UNL     1      37.072   8.227  -6.500  1.00  0.00    -0.036 C
HETATM   20  C22 UNL     1      38.195   8.643  -7.444  1.00  0.00     0.016 C
HETATM   21  C23 UNL     1      35.324  11.626  -6.089  1.00  0.00     0.035 C
ENDROOT
BRANCH   1  22
HETATM   22  C3  UNL     1      35.686  13.933  -7.133  1.00  0.00     0.038 C
BRANCH  22  23
HETATM   23  C2  UNL     1      34.543  13.793  -8.027  1.00  0.00    -0.002 C
HETATM   24  C1  UNL     1      34.861  13.250  -9.376  1.00  0.00     0.005 C
ENDBRANCH  22  23
ENDBRANCH   1  22
BRANCH   4  25
HETATM   25  C7  UNL     1      34.071  13.730  -3.819  1.00  0.00     0.204 C
HETATM   26  O2  UNL     1      33.755  13.887  -2.614  1.00  0.00    -0.646 OA
HETATM   27  O3  UNL     1      33.255  14.395  -4.721  1.00  0.00    -0.646 OA
ENDBRANCH   4  25
TORSDOF 3
ENDMDL