MODEL 2
REMARK VINA RESULT: -5.963284992      2.373      3.956
REMARK  5 active torsions:
REMARK  status: ('A' for Active; 'I' for Inactive)
REMARK    1  A    between atoms: O1_1  and  C1_3
REMARK    2  A    between atoms: C1_3  and  C2_4
REMARK    3  A    between atoms: C1_3  and  C9_11
REMARK    4  A    between atoms: C12_14  and  C13_15
REMARK    5  A    between atoms: N1_23  and  C21_24
ROOT
HETATM    1  C13 UNL     1     -10.136  39.007 -15.284  1.00  0.00     0.042 C
HETATM    2  C14 UNL     1     -11.612  38.925 -15.140  1.00  0.00     0.038 C
HETATM    3  C15 UNL     1     -12.411  39.336 -16.287  1.00  0.00     0.002 C
HETATM    4  C16 UNL     1     -12.268  40.385 -17.102  1.00  0.00     0.042 A
HETATM    5  C17 UNL     1     -11.203  41.388 -16.983  1.00  0.00     0.174 A
HETATM    6  C18 UNL     1     -11.211  42.547 -17.871  1.00  0.00     0.066 A
HETATM    7  C19 UNL     1     -12.261  42.534 -18.896  1.00  0.00    -0.006 A
HETATM    8  C20 UNL     1     -13.153  41.594 -18.985  1.00  0.00     0.093 A
HETATM    9  N1  UNL     1     -13.239  40.466 -18.124  1.00  0.00    -0.324 N
HETATM   10  O2  UNL     1      -9.989  40.643 -17.075  1.00  0.00    -0.379 OA
HETATM   11  C27 UNL     1      -9.625  40.315 -15.802  1.00  0.00     0.176 C
ENDROOT
BRANCH   1  12
HETATM   12  C12 UNL     1      -9.507  37.821 -15.991  1.00  0.00     0.128 C
HETATM   13  C11 UNL     1     -10.044  36.575 -15.379  1.00  0.00     0.035 C
HETATM   14  C10 UNL     1      -8.773  35.891 -14.870  1.00  0.00     0.037 C
HETATM   15  C9  UNL     1      -7.715  36.522 -15.707  1.00  0.00     0.151 C
HETATM   16  O3  UNL     1      -8.158  37.860 -15.772  1.00  0.00    -0.378 OA
BRANCH  15  17
HETATM   17  C1  UNL     1      -6.411  36.553 -14.926  1.00  0.00     0.151 C
BRANCH  17  18
HETATM   18  O1  UNL     1      -5.460  36.025 -15.864  1.00  0.00    -0.393 OA
ATOM     19  H1  UNL     1      -5.634  36.436 -16.703  1.00  0.00     0.210 HD
ENDBRANCH  17  18
BRANCH  17  20
HETATM   20  C2  UNL     1      -6.381  35.663 -13.713  1.00  0.00     0.017 C
HETATM   21  C3  UNL     1      -4.953  35.554 -13.188  1.00  0.00     0.007 C
HETATM   22  C4  UNL     1      -4.397  36.861 -12.713  1.00  0.00     0.000 C
HETATM   23  C5  UNL     1      -5.101  37.362 -11.468  1.00  0.00     0.000 C
HETATM   24  C6  UNL     1      -5.644  36.205 -10.655  1.00  0.00     0.000 C
HETATM   25  C7  UNL     1      -6.777  35.481 -11.277  1.00  0.00     0.000 C
HETATM   26  C8  UNL     1      -7.272  36.057 -12.589  1.00  0.00     0.007 C
ENDBRANCH  17  20
ENDBRANCH  15  17
ENDBRANCH   1  12
BRANCH   9  27
HETATM   27  C21 UNL     1     -14.237  39.484 -18.268  1.00  0.00     0.039 A
HETATM   28  C22 UNL     1     -13.957  38.312 -18.913  1.00  0.00     0.033 A
HETATM   29  C23 UNL     1     -14.918  37.338 -19.054  1.00  0.00     0.044 A
HETATM   30  C24 UNL     1     -16.167  37.575 -18.531  1.00  0.00     0.116 A
HETATM   31  F1  UNL     1     -17.109  36.583 -18.688  1.00  0.00    -0.206 F
HETATM   32  C25 UNL     1     -16.483  38.741 -17.877  1.00  0.00     0.044 A
HETATM   33  C26 UNL     1     -15.487  39.713 -17.748  1.00  0.00     0.033 A
ENDBRANCH   9  27
TORSDOF 5
ENDMDL