MODEL 3
REMARK VINA RESULT: -5.788156208      0.923      1.036
REMARK  4 active torsions:
REMARK  status: ('A' for Active; 'I' for Inactive)
REMARK    1  A    between atoms: C3_4  and  O2_5
REMARK    2  A    between atoms: O2_5  and  C4_6
REMARK    3  A    between atoms: N2_19  and  C14_20
REMARK    4  A    between atoms: N3_23  and  C17_24
ROOT
HETATM    1  O1  UNL     1     -10.179  35.523 -15.275  1.00  0.00    -0.268 OA
HETATM    2  C1  UNL     1      -9.104  36.146 -15.102  1.00  0.00     0.251 A
HETATM    3  C2  UNL     1      -7.999  35.529 -14.531  1.00  0.00     0.114 A
HETATM    4  C3  UNL     1      -6.836  36.235 -14.355  1.00  0.00     0.110 A
HETATM    5  C10 UNL     1      -6.795  37.560 -14.756  1.00  0.00     0.093 A
HETATM    6  N1  UNL     1      -5.842  38.485 -14.719  1.00  0.00    -0.362 N
ATOM      7  H1  UNL     1      -4.904  38.330 -14.349  1.00  0.00     0.165 HD
HETATM    8  C11 UNL     1      -6.272  39.650 -15.230  1.00  0.00     0.091 A
HETATM    9  C12 UNL     1      -7.576  39.440 -15.611  1.00  0.00     0.049 A
HETATM   10  C13 UNL     1      -7.911  38.136 -15.317  1.00  0.00     0.068 A
HETATM   11  N2  UNL     1      -9.069  37.425 -15.491  1.00  0.00    -0.307 N
ENDROOT
BRANCH  11  12
HETATM   12  C14 UNL     1     -10.156  38.100 -16.071  1.00  0.00     0.103 C
HETATM   13  C15 UNL     1     -11.263  38.563 -15.193  1.00  0.00     0.071 C
HETATM   14  C16 UNL     1     -12.036  39.598 -16.027  1.00  0.00     0.065 C
HETATM   15  N3  UNL     1     -12.344  39.231 -17.322  1.00  0.00    -0.369 N
HETATM   16  C24 UNL     1     -11.487  38.398 -18.065  1.00  0.00     0.065 C
HETATM   17  C25 UNL     1     -10.831  37.334 -17.216  1.00  0.00     0.071 C
BRANCH  15  18
HETATM   18  C17 UNL     1     -13.636  39.367 -17.839  1.00  0.00     0.088 C
HETATM   19  C18 UNL     1     -14.575  39.729 -16.688  1.00  0.00     0.026 C
HETATM   20  C19 UNL     1     -15.385  40.923 -17.062  1.00  0.00     0.002 C
HETATM   21  C20 UNL     1     -16.546  40.490 -17.924  1.00  0.00     0.000 C
HETATM   22  C21 UNL     1     -16.081  39.793 -19.188  1.00  0.00     0.000 C
HETATM   23  C22 UNL     1     -15.656  38.403 -18.896  1.00  0.00     0.002 C
HETATM   24  C23 UNL     1     -14.216  38.218 -18.568  1.00  0.00     0.026 C
ENDBRANCH  15  18
ENDBRANCH  11  12
BRANCH   4  25
HETATM   25  O2  UNL     1      -5.694  35.674 -13.787  1.00  0.00    -0.308 OA
BRANCH  25  26
HETATM   26  C4  UNL     1      -5.536  35.810 -12.417  1.00  0.00     0.076 A
HETATM   27  C5  UNL     1      -6.572  36.118 -11.567  1.00  0.00     0.039 A
HETATM   28  C6  UNL     1      -6.407  36.251 -10.211  1.00  0.00     0.026 A
HETATM   29  C7  UNL     1      -5.148  36.069  -9.665  1.00  0.00     0.034 A
HETATM   30 CL1  UNL     1      -4.857  36.222  -7.944  1.00  0.00    -0.084 Cl
HETATM   31  C8  UNL     1      -4.097  35.759 -10.503  1.00  0.00     0.026 A
HETATM   32  C9  UNL     1      -4.289  35.629 -11.882  1.00  0.00     0.039 A
ENDBRANCH  25  26
ENDBRANCH   4  25
TORSDOF 4
ENDMDL