MODEL 4
REMARK VINA RESULT: -4.894727447      1.300      1.681
REMARK  4 active torsions:
REMARK  status: ('A' for Active; 'I' for Inactive)
REMARK    1  A    between atoms: C10_11  and  C11_12
REMARK    2  A    between atoms: N1_19  and  C18_20
REMARK    3  A    between atoms: C18_20  and  C19_21
REMARK    4  A    between atoms: C19_21  and  C20_22
ROOT
HETATM    1  C11 UNL     1      -5.112  37.220 -13.984  1.00  0.00     0.125 C
HETATM    2  C12 UNL     1      -4.975  36.475 -12.704  1.00  0.00     0.022 C
HETATM    3  C13 UNL     1      -5.832  35.292 -12.501  1.00  0.00     0.008 C
HETATM    4  C14 UNL     1      -6.426  35.502 -11.102  1.00  0.00     0.001 C
HETATM    5  C15 UNL     1      -6.498  36.999 -10.918  1.00  0.00     0.010 C
HETATM    6  C16 UNL     1      -5.259  37.479 -11.603  1.00  0.00     0.031 C
HETATM    7  C17 UNL     1      -5.398  38.808 -12.292  1.00  0.00     0.069 C
HETATM    8  N1  UNL     1      -5.218  38.572 -13.653  1.00  0.00    -0.364 N
ENDROOT
BRANCH   1   9
HETATM    9  C10 UNL     1      -6.300  36.831 -14.804  1.00  0.00    -0.034 A
HETATM   10  C9  UNL     1      -7.579  37.244 -14.510  1.00  0.00     0.018 A
HETATM   11  C8  UNL     1      -8.677  36.884 -15.265  1.00  0.00    -0.036 A
HETATM   12  C7  UNL     1     -10.055  37.308 -14.941  1.00  0.00     0.080 C
HETATM   13  C25 UNL     1      -8.443  36.072 -16.357  1.00  0.00     0.012 A
HETATM   14  C5  UNL     1     -10.891  37.725 -16.054  1.00  0.00    -0.035 A
HETATM   15  C4  UNL     1     -10.949  37.043 -17.242  1.00  0.00     0.012 A
HETATM   16  C6  UNL     1     -11.687  38.865 -15.888  1.00  0.00     0.032 A
HETATM   17  C3  UNL     1     -11.758  37.438 -18.270  1.00  0.00     0.021 A
HETATM   18  S1  UNL     1      -9.877  35.604 -17.389  1.00  0.00    -0.089 SA
HETATM   19  C2  UNL     1     -12.566  38.578 -18.129  1.00  0.00     0.025 A
HETATM   20  C1  UNL     1     -12.499  39.259 -16.925  1.00  0.00     0.034 A
HETATM   21 CL1  UNL     1     -13.484  40.692 -16.687  1.00  0.00    -0.084 Cl
HETATM   22  C24 UNL     1      -7.196  35.625 -16.708  1.00  0.00     0.020 A
HETATM   23  C23 UNL     1      -6.144  36.023 -15.910  1.00  0.00     0.011 A
ENDBRANCH   1   9
BRANCH   8  24
HETATM   24  C18 UNL     1      -5.169  39.585 -14.592  1.00  0.00     0.066 C
BRANCH  24  25
HETATM   25  C19 UNL     1      -5.441  40.977 -14.147  1.00  0.00     0.071 C
BRANCH  25  26
HETATM   26  C20 UNL     1      -6.531  41.688 -14.928  1.00  0.00     0.104 C
HETATM   27  C21 UNL     1      -7.246  42.741 -14.113  1.00  0.00     0.145 C
HETATM   28  N2  UNL     1      -8.330  41.925 -13.544  1.00  0.00    -0.384 N
HETATM   29  C22 UNL     1      -8.591  40.868 -14.462  1.00  0.00     0.171 C
ATOM     30  H2  UNL     1      -8.807  42.087 -12.657  1.00  0.00     0.160 HD
HETATM   31  N3  UNL     1      -7.584  40.745 -15.228  1.00  0.00    -0.380 N
ATOM     32  H3  UNL     1      -7.526  40.053 -15.975  1.00  0.00     0.160 HD
ENDBRANCH  25  26
ENDBRANCH  24  25
ENDBRANCH   8  24
TORSDOF 4
ENDMDL