MODEL 5
REMARK VINA RESULT: -5.556485225      2.175      3.655
REMARK  5 active torsions:
REMARK  status: ('A' for Active; 'I' for Inactive)
REMARK    1  A    between atoms: C3_5  and  C4_6
REMARK    2  A    between atoms: N1_11  and  C8_12
REMARK    3  A    between atoms: C8_12  and  C9_13
REMARK    4  A    between atoms: C13_19  and  N3_20
REMARK    5  A    between atoms: N3_20  and  C14_22
ROOT
HETATM    1  C9  UNL     1     -14.133  39.545 -16.927  1.00  0.00    -0.039 A
HETATM    2  C10 UNL     1     -13.833  38.693 -17.965  1.00  0.00     0.011 A
HETATM    3  C11 UNL     1     -12.662  38.031 -18.114  1.00  0.00     0.031 A
HETATM    4  C12 UNL     1     -11.632  38.193 -17.156  1.00  0.00     0.051 A
HETATM    5  N2  UNL     1     -10.448  37.610 -17.181  1.00  0.00    -0.335 N
ATOM      6  H2  UNL     1     -10.195  36.973 -17.936  1.00  0.00     0.168 HD
HETATM    7  C13 UNL     1      -9.592  37.874 -16.194  1.00  0.00     0.150 A
HETATM    8  S2  UNL     1     -10.457  38.962 -15.208  1.00  0.00    -0.052 SA
HETATM    9  C20 UNL     1     -11.901  39.033 -16.116  1.00  0.00     0.035 A
HETATM   10  C21 UNL     1     -13.133  39.706 -15.990  1.00  0.00     0.030 A
ENDROOT
BRANCH   1  11
HETATM   11  C8  UNL     1     -15.401  40.261 -16.765  1.00  0.00     0.166 C
BRANCH  11  12
HETATM   12  N1  UNL     1     -16.396  39.849 -17.746  1.00  0.00    -0.328 N
HETATM   13  C1  UNL     1     -17.146  38.662 -17.651  1.00  0.00     0.230 C
HETATM   14  O1  UNL     1     -17.667  38.183 -16.577  1.00  0.00    -0.272 OA
HETATM   15  C2  UNL     1     -17.321  37.935 -18.935  1.00  0.00     0.179 C
HETATM   16  S1  UNL     1     -16.799  39.218 -20.137  1.00  0.00    -0.128 SA
HETATM   17  C3  UNL     1     -16.754  40.611 -18.932  1.00  0.00     0.207 C
BRANCH  17  18
HETATM   18  C4  UNL     1     -15.813  41.635 -19.335  1.00  0.00     0.085 A
HETATM   19  C5  UNL     1     -14.761  41.445 -20.197  1.00  0.00     0.037 A
HETATM   20  C6  UNL     1     -14.122  42.660 -20.313  1.00  0.00     0.027 A
HETATM   21  C7  UNL     1     -14.824  43.530 -19.510  1.00  0.00     0.142 A
HETATM   22  O2  UNL     1     -15.792  42.877 -18.970  1.00  0.00    -0.324 OA
ENDBRANCH  17  18
ENDBRANCH  11  12
ENDBRANCH   1  11
BRANCH   7  23
HETATM   23  N3  UNL     1      -8.374  37.395 -16.043  1.00  0.00    -0.337 N
ATOM     24  H3  UNL     1      -7.822  37.181 -16.874  1.00  0.00     0.168 HD
BRANCH  23  25
HETATM   25  C14 UNL     1      -7.813  37.170 -14.783  1.00  0.00     0.034 A
HETATM   26  C15 UNL     1      -8.041  35.981 -14.123  1.00  0.00     0.031 A
HETATM   27  C16 UNL     1      -7.484  35.762 -12.875  1.00  0.00     0.026 A
HETATM   28  C17 UNL     1      -6.690  36.744 -12.284  1.00  0.00     0.034 A
HETATM   29 CL1  UNL     1      -6.019  36.396 -10.707  1.00  0.00    -0.084 Cl
HETATM   30  C18 UNL     1      -6.455  37.934 -12.935  1.00  0.00     0.026 A
HETATM   31  C19 UNL     1      -7.027  38.126 -14.185  1.00  0.00     0.031 A
ENDBRANCH  23  25
ENDBRANCH   7  23
TORSDOF 5
ENDMDL