MODEL 5
REMARK VINA RESULT: -4.714761569      3.617      7.091
REMARK  6 active torsions:
REMARK  status: ('A' for Active; 'I' for Inactive)
REMARK    1  A    between atoms: C4_4  and  C5_5
REMARK    2  A    between atoms: C5_5  and  C6_6
REMARK    3  A    between atoms: C11_11  and  O1_12
REMARK    4  A    between atoms: O1_12  and  C12_13
REMARK    5  A    between atoms: C12_13  and  C13_15
REMARK    6  A    between atoms: C17_19  and  O3_20
ROOT
HETATM    1  C6  UNL     1     -14.389  39.644 -18.625  1.00  0.00    -0.021 C
HETATM    2  C7  UNL     1     -13.630  40.835 -18.747  1.00  0.00     0.012 C
HETATM    3  C8  UNL     1     -12.621  41.677 -19.234  1.00  0.00     0.007 C
HETATM    4  C9  UNL     1     -12.888  43.034 -18.519  1.00  0.00     0.015 C
HETATM    5  C10 UNL     1     -11.854  43.293 -17.445  1.00  0.00     0.039 C
HETATM    6  C11 UNL     1     -11.720  44.820 -17.367  1.00  0.00     0.136 C
HETATM    7  C16 UNL     1     -12.981  45.468 -17.914  1.00  0.00     0.089 C
HETATM    8  C17 UNL     1     -14.229  44.751 -17.545  1.00  0.00     0.157 C
HETATM    9 CL1  UNL     1     -15.602  45.706 -18.181  1.00  0.00    -0.086 Cl
HETATM   10  C18 UNL     1     -14.271  43.303 -18.079  1.00  0.00     0.135 C
HETATM   11  N1  UNL     1     -14.935  42.601 -17.051  1.00  0.00    -0.392 N
ATOM     12  H1  UNL     1     -15.082  43.131 -16.192  1.00  0.00     0.159 HD
HETATM   13  C19 UNL     1     -15.392  41.376 -17.029  1.00  0.00     0.067 C
HETATM   14  C20 UNL     1     -15.575  40.112 -17.724  1.00  0.00     0.004 A
HETATM   15  C21 UNL     1     -16.701  39.214 -17.504  1.00  0.00     0.021 A
HETATM   16  C22 UNL     1     -16.787  40.122 -18.640  1.00  0.00     0.001 A
HETATM   17  C23 UNL     1     -16.332  39.851 -20.018  1.00  0.00     0.011 C
HETATM   18  C24 UNL     1     -14.981  39.200 -19.905  1.00  0.00    -0.008 C
HETATM   19  C25 UNL     1     -15.071  37.751 -20.184  1.00  0.00     0.011 C
ENDROOT
BRANCH   6  20
HETATM   20  O1  UNL     1     -11.519  45.177 -16.010  1.00  0.00    -0.316 OA
BRANCH  20  21
HETATM   21  C12 UNL     1     -11.041  46.446 -15.737  1.00  0.00     0.262 C
HETATM   22  O2  UNL     1     -10.147  46.995 -16.434  1.00  0.00    -0.265 OA
BRANCH  21  23
HETATM   23  C13 UNL     1     -11.655  47.138 -14.549  1.00  0.00     0.077 C
HETATM   24  C14 UNL     1     -12.632  48.148 -15.071  1.00  0.00     0.020 C
HETATM   25  C15 UNL     1     -12.304  46.079 -13.689  1.00  0.00     0.020 C
ENDBRANCH  21  23
ENDBRANCH  20  21
ENDBRANCH   6  20
BRANCH   8  26
HETATM   26  O3  UNL     1     -14.340  44.793 -16.162  1.00  0.00    -0.373 OA
ATOM     27  H3  UNL     1     -13.625  44.279 -15.803  1.00  0.00     0.212 HD
ENDBRANCH   8  26
BRANCH   1  28
HETATM   28  C5  UNL     1     -13.726  38.563 -17.808  1.00  0.00     0.038 C
BRANCH  28  29
HETATM   29  C4  UNL     1     -12.788  39.069 -16.776  1.00  0.00    -0.024 C
HETATM   30  C2  UNL     1     -11.581  38.594 -16.598  1.00  0.00    -0.091 C
HETATM   31  C1  UNL     1     -11.092  37.492 -17.453  1.00  0.00     0.042 C
HETATM   32  C3  UNL     1     -10.701  39.147 -15.551  1.00  0.00     0.042 C
ENDBRANCH  28  29
ENDBRANCH   1  28
TORSDOF 6
ENDMDL