MODEL 4
REMARK VINA RESULT: -6.547613646      1.942      2.598
REMARK  5 active torsions:
REMARK  status: ('A' for Active; 'I' for Inactive)
REMARK    1  A    between atoms: C2_2  and  C4_5
REMARK    2  A    between atoms: C2_2  and  S1_22
REMARK    3  A    between atoms: C9_10  and  C10_11
REMARK    4  A    between atoms: S1_22  and  N2_23
REMARK    5  A    between atoms: S1_22  and  C20_27
ROOT
HETATM    1  C1  UNL     1     -14.300  37.522 -18.826  1.00  0.00     0.053 C
HETATM    2  C2  UNL     1     -13.765  38.829 -18.211  1.00  0.00     0.160 C
HETATM    3  C3  UNL     1     -14.881  39.340 -17.390  1.00  0.00     0.088 C
HETATM    4  N1  UNL     1     -15.763  39.711 -16.735  1.00  0.00    -0.195 NA
ENDROOT
BRANCH   2   5
HETATM    5  C4  UNL     1     -12.645  38.574 -17.303  1.00  0.00    -0.021 A
HETATM    6  C5  UNL     1     -12.327  39.309 -16.199  1.00  0.00     0.011 A
HETATM    7  C6  UNL     1     -11.260  39.007 -15.388  1.00  0.00     0.013 A
HETATM    8  C7  UNL     1     -10.464  37.920 -15.682  1.00  0.00    -0.025 A
HETATM    9  C8  UNL     1      -9.375  37.594 -14.885  1.00  0.00     0.024 A
HETATM   10  C18 UNL     1     -10.740  37.138 -16.793  1.00  0.00    -0.025 A
HETATM   11  C9  UNL     1      -8.558  36.513 -15.167  1.00  0.00    -0.025 A
HETATM   12  C16 UNL     1      -8.860  35.760 -16.272  1.00  0.00     0.013 A
HETATM   13  C17 UNL     1      -9.930  36.063 -17.071  1.00  0.00     0.013 A
HETATM   14  C19 UNL     1     -11.824  37.483 -17.578  1.00  0.00     0.022 A
BRANCH  11  15
HETATM   15  C10 UNL     1      -7.417  36.162 -14.347  1.00  0.00    -0.026 A
HETATM   16  C11 UNL     1      -7.553  35.931 -12.996  1.00  0.00     0.014 A
HETATM   17  C12 UNL     1      -6.490  35.607 -12.189  1.00  0.00     0.024 A
HETATM   18  C13 UNL     1      -5.230  35.500 -12.719  1.00  0.00     0.034 A
HETATM   19 CL1  UNL     1      -3.829  35.088 -11.776  1.00  0.00    -0.084 Cl
HETATM   20  C14 UNL     1      -5.056  35.722 -14.067  1.00  0.00     0.024 A
HETATM   21  C15 UNL     1      -6.150  36.053 -14.875  1.00  0.00     0.014 A
ENDBRANCH  11  15
ENDBRANCH   2   5
BRANCH   2  22
HETATM   22  S1  UNL     1     -13.505  39.952 -19.505  1.00  0.00     0.077 S
HETATM   23  O1  UNL     1     -12.119  39.823 -20.004  1.00  0.00    -0.243 OA
BRANCH  22  24
HETATM   24  N2  UNL     1     -14.482  39.868 -20.691  1.00  0.00    -0.355 N
ATOM     25  H22 UNL     1     -15.106  40.644 -20.910  1.00  0.00     0.166 HD
ATOM     26  H21 UNL     1     -14.465  39.004 -21.232  1.00  0.00     0.166 HD
ENDBRANCH  22  24
BRANCH  22  27
HETATM   27  C20 UNL     1     -13.704  41.592 -18.783  1.00  0.00     0.047 A
HETATM   28  C21 UNL     1     -12.731  42.199 -18.059  1.00  0.00     0.029 A
HETATM   29  C22 UNL     1     -12.995  43.440 -17.556  1.00  0.00     0.051 A
HETATM   30  S2  UNL     1     -14.584  43.741 -18.099  1.00  0.00    -0.112 SA
HETATM   31  C23 UNL     1     -14.867  42.291 -18.943  1.00  0.00     0.071 A
ENDBRANCH  22  27
ENDBRANCH   2  22
TORSDOF 5
ENDMDL