MODEL 2
REMARK VINA RESULT: -6.342616326      0.982      1.295
REMARK  5 active torsions:
REMARK  status: ('A' for Active; 'I' for Inactive)
REMARK    1  A    between atoms: N1_10  and  N2_12
REMARK    2  A    between atoms: C18_23  and  C19_24
REMARK    3  A    between atoms: C19_24  and  O1_25
REMARK    4  A    between atoms: O1_25  and  C20_26
REMARK    5  A    between atoms: C23_29  and  C24_30
ROOT
HETATM    1  C1  UNL     1      -7.843  36.096 -16.806  1.00  0.00     0.016 C
HETATM    2  C2  UNL     1      -7.511  37.195 -15.813  1.00  0.00    -0.034 C
HETATM    3  C3  UNL     1      -8.255  37.009 -14.519  1.00  0.00     0.010 C
HETATM    4  C4  UNL     1      -7.901  35.796 -13.742  1.00  0.00     0.006 C
HETATM    5  C5  UNL     1      -6.443  35.649 -13.439  1.00  0.00    -0.006 C
HETATM    6  C6  UNL     1      -5.970  36.385 -12.206  1.00  0.00    -0.005 C
HETATM    7  C7  UNL     1      -6.849  36.135 -11.026  1.00  0.00     0.011 C
HETATM    8  C8  UNL     1      -6.098  36.537  -9.741  1.00  0.00     0.054 C
HETATM    9  C9  UNL     1      -4.930  35.661  -9.575  1.00  0.00     0.003 C
HETATM   10  N1  UNL     1      -4.333  35.533  -8.473  1.00  0.00    -0.315 N
ATOM     11  H1  UNL     1      -3.536  34.896  -8.476  1.00  0.00     0.185 HD
HETATM   12  C10 UNL     1      -4.480  34.926 -10.767  1.00  0.00     0.059 C
HETATM   13  C11 UNL     1      -4.568  35.943 -11.910  1.00  0.00    -0.005 C
HETATM   14  C12 UNL     1      -3.906  35.272 -13.094  1.00  0.00     0.006 C
HETATM   15  C13 UNL     1      -4.154  36.185 -14.285  1.00  0.00     0.006 C
HETATM   16  C14 UNL     1      -5.627  35.966 -14.647  1.00  0.00    -0.005 C
HETATM   17  C15 UNL     1      -6.041  37.047 -15.530  1.00  0.00    -0.002 C
HETATM   18  C16 UNL     1      -5.554  38.436 -15.267  1.00  0.00     0.006 C
HETATM   19  C17 UNL     1      -6.241  39.135 -16.479  1.00  0.00     0.008 C
HETATM   20  C18 UNL     1      -7.663  38.569 -16.320  1.00  0.00     0.018 C
ENDROOT
BRANCH  20  21
HETATM   21  C19 UNL     1      -8.454  38.821 -17.552  1.00  0.00     0.181 C
BRANCH  21  22
HETATM   22  O1  UNL     1      -9.722  39.100 -17.430  1.00  0.00    -0.349 OA
BRANCH  22  23
HETATM   23  C20 UNL     1     -10.968  39.377 -17.310  1.00  0.00     0.090 A
HETATM   24  C21 UNL     1     -12.043  38.485 -17.416  1.00  0.00     0.039 A
HETATM   25  C22 UNL     1     -13.343  38.908 -17.263  1.00  0.00     0.017 A
HETATM   26  C23 UNL     1     -13.668  40.212 -17.001  1.00  0.00     0.003 A
HETATM   27  C25 UNL     1     -12.640  41.121 -16.889  1.00  0.00     0.041 A
HETATM   28  C26 UNL     1     -11.347  40.715 -17.037  1.00  0.00     0.068 A
HETATM   29 CL1  UNL     1     -10.061  41.885 -16.890  1.00  0.00    -0.081 Cl
BRANCH  26  30
HETATM   30  C24 UNL     1     -15.036  40.654 -16.840  1.00  0.00     0.269 C
HETATM   31  O2  UNL     1     -15.896  39.834 -16.450  1.00  0.00    -0.301 OA
ENDBRANCH  26  30
ENDBRANCH  22  23
ENDBRANCH  21  22
ENDBRANCH  20  21
BRANCH  10  32
HETATM   32  N2  UNL     1      -4.609  36.132  -7.268  1.00  0.00    -0.345 N
ATOM     33  H22 UNL     1      -4.230  37.074  -7.169  1.00  0.00     0.176 HD
ATOM     34  H21 UNL     1      -5.132  35.763  -6.473  1.00  0.00     0.176 HD
ENDBRANCH  10  32
TORSDOF 5
ENDMDL