MODEL 4
REMARK VINA RESULT: -5.024477912      3.481      8.269
REMARK  4 active torsions:
REMARK  status: ('A' for Active; 'I' for Inactive)
REMARK    1  A    between atoms: O1_2  and  C2_3
REMARK    2  A    between atoms: C16_19  and  O3_20
REMARK    3  A    between atoms: C16_19  and  C17_22
REMARK    4  A    between atoms: C18_23  and  C19_24
ROOT
HETATM    1  C2  UNL     1     -15.440  39.668 -17.864  1.00  0.00     0.129 C
HETATM    2  C3  UNL     1     -14.054  39.490 -18.381  1.00  0.00     0.067 C
HETATM    3  C4  UNL     1     -13.365  40.819 -18.354  1.00  0.00    -0.063 C
HETATM    4  C5  UNL     1     -12.284  41.133 -17.690  1.00  0.00    -0.008 C
HETATM    5  C6  UNL     1     -11.523  40.261 -16.808  1.00  0.00    -0.009 C
HETATM    6  C7  UNL     1     -11.997  39.341 -15.998  1.00  0.00    -0.015 C
HETATM    7  C8  UNL     1     -11.274  38.439 -15.105  1.00  0.00     0.028 C
HETATM    8  C9  UNL     1     -10.075  37.775 -15.758  1.00  0.00     0.013 C
HETATM    9  C10 UNL     1      -8.993  38.757 -15.924  1.00  0.00     0.048 C
HETATM   10  C11 UNL     1      -7.718  38.435 -16.593  1.00  0.00     0.176 C
HETATM   11  O2  UNL     1      -7.873  39.672 -17.294  1.00  0.00    -0.376 OA
HETATM   12  C12 UNL     1      -9.225  39.510 -17.243  1.00  0.00     0.103 C
HETATM   13  C13 UNL     1      -9.705  38.643 -18.384  1.00  0.00     0.050 C
HETATM   14  C14 UNL     1     -10.105  40.653 -16.901  1.00  0.00     0.165 C
HETATM   15  F1  UNL     1      -9.703  41.082 -15.605  1.00  0.00    -0.234 F
HETATM   16  C15 UNL     1     -10.028  41.870 -17.737  1.00  0.00     0.099 C
HETATM   17  C16 UNL     1     -11.495  42.380 -17.778  1.00  0.00     0.107 C
HETATM   18  C23 UNL     1     -14.166  41.841 -19.133  1.00  0.00     0.016 C
HETATM   19  C24 UNL     1     -14.677  41.277 -20.427  1.00  0.00     0.009 C
HETATM   20  C25 UNL     1     -15.981  40.580 -20.116  1.00  0.00     0.008 C
HETATM   21  C26 UNL     1     -16.192  40.742 -18.635  1.00  0.00     0.015 C
HETATM   22  C27 UNL     1     -15.486  42.032 -18.341  1.00  0.00     0.016 C
ENDROOT
BRANCH  17  23
HETATM   23  O3  UNL     1     -11.606  42.933 -19.023  1.00  0.00    -0.381 OA
ATOM     24  H3  UNL     1     -11.269  43.821 -19.026  1.00  0.00     0.211 HD
ENDBRANCH  17  23
BRANCH  17  25
HETATM   25  C17 UNL     1     -11.749  43.337 -16.712  1.00  0.00     0.018 C
HETATM   26  C18 UNL     1     -10.844  44.140 -16.190  1.00  0.00     0.036 C
BRANCH  26  27
HETATM   27  C19 UNL     1     -11.117  45.088 -15.126  1.00  0.00     0.074 A
HETATM   28  C20 UNL     1     -10.169  45.926 -14.537  1.00  0.00     0.039 A
HETATM   29  C21 UNL     1     -10.823  46.674 -13.567  1.00  0.00     0.027 A
HETATM   30  C22 UNL     1     -12.135  46.247 -13.625  1.00  0.00     0.142 A
HETATM   31  O4  UNL     1     -12.242  45.331 -14.543  1.00  0.00    -0.323 OA
ENDBRANCH  26  27
ENDBRANCH  17  25
BRANCH   1  32
HETATM   32  O1  UNL     1     -16.209  38.538 -17.873  1.00  0.00    -0.390 OA
HETATM   33  C1  UNL     1     -17.367  38.768 -17.138  1.00  0.00     0.202 C
ENDBRANCH   1  32
TORSDOF 4
ENDMDL