MODEL 1
REMARK VINA RESULT: -5.597626518      0.000      0.000
REMARK  5 active torsions:
REMARK  status: ('A' for Active; 'I' for Inactive)
REMARK    1  A    between atoms: C6_7  and  N1_8
REMARK    2  A    between atoms: N1_8  and  C7_10
REMARK    3  A    between atoms: C9_13  and  C10_14
REMARK    4  A    between atoms: N2_20  and  C16_21
REMARK    5  A    between atoms: C16_21  and  C17_22
ROOT
HETATM    1  C7  UNL     1     -10.372  36.899 -17.312  1.00  0.00     0.151 A
HETATM    2  S1  UNL     1     -10.967  35.448 -16.679  1.00  0.00    -0.063 SA
HETATM    3  C8  UNL     1      -9.717  35.126 -15.598  1.00  0.00     0.083 A
HETATM    4  C9  UNL     1      -8.832  36.213 -15.774  1.00  0.00     0.053 A
HETATM    5  N2  UNL     1      -9.203  37.107 -16.669  1.00  0.00    -0.326 N
ENDROOT
BRANCH   5   6
HETATM    6  C16 UNL     1      -8.393  38.286 -17.079  1.00  0.00     0.136 C
BRANCH   6   7
HETATM    7  C17 UNL     1      -7.824  39.068 -15.968  1.00  0.00     0.004 C
HETATM    8  C18 UNL     1      -6.497  39.726 -16.211  1.00  0.00     0.007 C
HETATM    9  C19 UNL     1      -6.177  40.773 -15.168  1.00  0.00     0.011 C
HETATM   10  C20 UNL     1      -6.943  40.678 -13.899  1.00  0.00    -0.015 C
HETATM   11  C21 UNL     1      -6.445  39.535 -13.045  1.00  0.00     0.038 C
HETATM   12  C23 UNL     1      -6.572  41.940 -13.091  1.00  0.00     0.241 C
HETATM   13  C24 UNL     1      -8.409  40.647 -14.156  1.00  0.00     0.011 C
HETATM   14  C22 UNL     1      -5.563  40.175 -12.028  1.00  0.00     0.233 C
HETATM   15  N3  UNL     1      -6.140  41.485 -11.799  1.00  0.00    -0.074 N
ATOM     16  H32 UNL     1      -6.876  41.493 -11.093  1.00  0.00     0.277 HD
ATOM     17  H31 UNL     1      -5.513  42.133 -11.324  1.00  0.00     0.277 HD
HETATM   18  C25 UNL     1      -8.763  40.209 -15.544  1.00  0.00     0.007 C
ENDBRANCH   6   7
ENDBRANCH   5   6
BRANCH   1  19
HETATM   19  N1  UNL     1     -10.962  37.659 -18.216  1.00  0.00    -0.335 N
ATOM     20  H1  UNL     1     -10.581  37.750 -19.158  1.00  0.00     0.168 HD
BRANCH  19  21
HETATM   21  C6  UNL     1     -12.132  38.337 -17.836  1.00  0.00     0.056 A
HETATM   22  C1  UNL     1     -13.329  38.050 -18.440  1.00  0.00     0.060 A
HETATM   23 CL1  UNL     1     -13.504  36.845 -19.702  1.00  0.00    -0.082 Cl
HETATM   24  C2  UNL     1     -14.470  38.743 -18.040  1.00  0.00     0.026 A
HETATM   25  C3  UNL     1     -14.393  39.698 -17.053  1.00  0.00     0.002 A
HETATM   26  C4  UNL     1     -13.186  39.986 -16.446  1.00  0.00     0.002 A
HETATM   27  C5  UNL     1     -12.063  39.295 -16.850  1.00  0.00     0.031 A
ENDBRANCH  19  21
ENDBRANCH   1  19
BRANCH   4  28
HETATM   28  C10 UNL     1      -7.586  36.113 -14.968  1.00  0.00    -0.009 A
HETATM   29  C11 UNL     1      -6.350  36.003 -15.500  1.00  0.00     0.014 A
HETATM   30  C12 UNL     1      -5.197  35.807 -14.720  1.00  0.00     0.001 A
HETATM   31  C13 UNL     1      -5.292  35.720 -13.361  1.00  0.00     0.000 A
HETATM   32  C14 UNL     1      -6.533  35.829 -12.779  1.00  0.00     0.001 A
HETATM   33  C15 UNL     1      -7.640  36.019 -13.566  1.00  0.00     0.014 A
ENDBRANCH   4  28
TORSDOF 5
ENDMDL