MODEL 5
REMARK VINA RESULT: -4.569843764      2.639      3.815
REMARK  1 active torsions:
REMARK  status: ('A' for Active; 'I' for Inactive)
REMARK    1  A    between atoms: C4_4  and  C5_5
ROOT
HETATM    1  C1  UNL     1      17.520   0.160  10.915  1.00  0.00     0.029 C
HETATM    2  C2  UNL     1      16.667   0.891  11.896  1.00  0.00     0.092 C
HETATM    3  C3  UNL     1      16.990   2.393  11.938  1.00  0.00     0.045 C
HETATM    4  C4  UNL     1      16.255   2.727  13.227  1.00  0.00     0.100 C
HETATM    5  N1  UNL     1      16.658   1.639  14.058  1.00  0.00    -0.143 NA
HETATM    6  N2  UNL     1      16.886   0.529  13.262  1.00  0.00    -0.143 NA
ENDROOT
BRANCH   4   7
HETATM    7  C5  UNL     1      16.702   4.071  13.684  1.00  0.00    -0.002 C
HETATM    8  C6  UNL     1      17.714   4.015  14.792  1.00  0.00     0.011 C
HETATM    9  C7  UNL     1      15.464   4.809  14.208  1.00  0.00     0.011 C
ENDBRANCH   4   7
TORSDOF 1
ENDMDL