MODEL 5
REMARK VINA RESULT: -3.619341545      1.183      1.833
REMARK  1 active torsions:
REMARK  status: ('A' for Active; 'I' for Inactive)
REMARK    1  A    between atoms: C1_2  and  C2_3
ROOT
HETATM    1  C2  UNL     1      17.493   2.456  10.622  1.00  0.00     0.196 C
HETATM    2  C3  UNL     1      18.741   1.851  11.192  1.00  0.00     0.034 C
HETATM    3  C4  UNL     1      18.924   0.515  10.459  1.00  0.00     0.004 C
HETATM    4  C5  UNL     1      17.843  -0.397  10.941  1.00  0.00     0.027 C
HETATM    5  C6  UNL     1      16.685   0.390  11.560  1.00  0.00     0.232 C
HETATM    6  N1  UNL     1      16.367   1.559  10.782  1.00  0.00    -0.070 N
ATOM      7  H11 UNL     1      15.978   1.298   9.877  1.00  0.00     0.277 HD
ATOM      8  H12 UNL     1      15.563   2.050  11.174  1.00  0.00     0.277 HD
ENDROOT
BRANCH   1   9
HETATM    9  C1  UNL     1      17.128   3.774  11.223  1.00  0.00     0.119 C
HETATM   10  S1  UNL     1      18.452   4.202  12.420  1.00  0.00    -0.096 SA
ENDBRANCH   1   9
TORSDOF 1
ENDMDL