MODEL 4
REMARK VINA RESULT: -4.246875167      0.979      2.194
REMARK  1 active torsions:
REMARK  status: ('A' for Active; 'I' for Inactive)
REMARK    1  A    between atoms: N1_2  and  C2_5
ROOT
HETATM    1  C2  UNL     1      17.611  -0.123  11.640  1.00  0.00     0.190 C
HETATM    2  C3  UNL     1      16.566   0.881  11.934  1.00  0.00     0.077 C
HETATM    3  C4  UNL     1      16.616   2.169  11.221  1.00  0.00     0.058 C
HETATM    4  N2  UNL     1      17.776   2.509  10.522  1.00  0.00    -0.398 N
ATOM      5  H2  UNL     1      17.714   2.943   9.601  1.00  0.00     0.159 HD
HETATM    6  C5  UNL     1      19.028   2.248  11.100  1.00  0.00     0.076 C
HETATM    7  C6  UNL     1      20.000   3.339  10.661  1.00  0.00     0.032 C
HETATM    8  C7  UNL     1      19.534   0.920  10.529  1.00  0.00     0.027 C
HETATM    9  C8  UNL     1      18.292   0.080  10.296  1.00  0.00     0.035 C
ENDROOT
BRANCH   1  10
HETATM   10  N1  UNL     1      17.115  -1.499  11.594  1.00  0.00    -0.074 N
HETATM   11  C1  UNL     1      18.109  -2.467  11.282  1.00  0.00     0.267 C
ATOM     12  H12 UNL     1      16.328  -1.573  10.949  1.00  0.00     0.277 HD
ATOM     13  H11 UNL     1      16.645  -1.738  12.468  1.00  0.00     0.277 HD
ENDBRANCH   1  10
TORSDOF 1
ENDMDL