MODEL 4
REMARK VINA RESULT: -4.720644655      1.213      1.903
REMARK  3 active torsions:
REMARK  status: ('A' for Active; 'I' for Inactive)
REMARK    1  A    between atoms: C2_3  and  N2_4
REMARK    2  A    between atoms: C2_3  and  N3_8
REMARK    3  A    between atoms: N3_8  and  C3_10
ROOT
HETATM    1  N1  UNL     1      16.092   0.083  16.469  1.00  0.00    -0.193 NA
HETATM    2  C1  UNL     1      16.320   0.913  15.693  1.00  0.00     0.113 C
HETATM    3  C2  UNL     1      16.604   1.945  14.699  1.00  0.00     0.385 C
ENDROOT
BRANCH   3   4
HETATM    4  N2  UNL     1      16.805   1.395  13.383  1.00  0.00    -0.046 N
ATOM      5  H23 UNL     1      15.997   1.568  12.784  1.00  0.00     0.278 HD
ATOM      6  H22 UNL     1      17.508   1.923  12.865  1.00  0.00     0.278 HD
ATOM      7  H21 UNL     1      17.036   0.402  13.411  1.00  0.00     0.278 HD
ENDBRANCH   3   4
BRANCH   3   8
HETATM    8  N3  UNL     1      17.564   2.909  15.112  1.00  0.00    -0.381 N
ATOM      9  H3  UNL     1      18.442   2.626  15.548  1.00  0.00     0.156 HD
BRANCH   8  10
HETATM   10  C3  UNL     1      17.260   4.283  14.897  1.00  0.00     0.079 C
HETATM   11  C4  UNL     1      15.770   4.496  14.604  1.00  0.00     0.025 C
HETATM   12  C5  UNL     1      15.688   5.489  13.470  1.00  0.00     0.002 C
HETATM   13  C6  UNL     1      17.062   6.113  13.468  1.00  0.00     0.002 C
HETATM   14  C7  UNL     1      17.927   4.863  13.669  1.00  0.00     0.025 C
ENDBRANCH   8  10
ENDBRANCH   3   8
TORSDOF 3
ENDMDL