MODEL 2
REMARK VINA RESULT: -4.261703176      2.208      4.050
REMARK  1 active torsions:
REMARK  status: ('A' for Active; 'I' for Inactive)
REMARK    1  A    between atoms: C2_2  and  C3_3
ROOT
HETATM    1  C3  UNL     1      17.132   2.056  12.128  1.00  0.00     0.175 C
HETATM    2  N1  UNL     1      17.130   3.454  12.005  1.00  0.00    -0.381 N
ATOM      3  H1  UNL     1      16.687   3.909  11.206  1.00  0.00     0.160 HD
HETATM    4  C4  UNL     1      17.753   4.206  13.008  1.00  0.00     0.062 C
HETATM    5  C5  UNL     1      16.855   4.289  14.225  1.00  0.00     0.027 C
HETATM    6  C6  UNL     1      15.579   3.477  13.968  1.00  0.00     0.034 C
HETATM    7  C7  UNL     1      16.322   2.268  14.403  1.00  0.00     0.080 C
HETATM    8  C8  UNL     1      17.237   3.187  15.222  1.00  0.00     0.034 C
HETATM    9  N2  UNL     1      16.989   1.520  13.436  1.00  0.00    -0.397 N
ATOM     10  H2  UNL     1      17.368   0.601  13.664  1.00  0.00     0.155 HD
ENDROOT
BRANCH   1  11
HETATM   11  C2  UNL     1      16.106   1.403  11.229  1.00  0.00     0.042 C
HETATM   12  C1  UNL     1      16.551   0.054  10.734  1.00  0.00     0.009 C
ENDBRANCH   1  11
TORSDOF 1
ENDMDL