MODEL 4
REMARK VINA RESULT: -4.223115246      2.122      2.940
REMARK  2 active torsions:
REMARK  status: ('A' for Active; 'I' for Inactive)
REMARK    1  A    between atoms: C2_2  and  N1_4
REMARK    2  A    between atoms: C2_2  and  C4_8
ROOT
HETATM    1  C4  UNL     1      17.249   3.453  12.427  1.00  0.00     0.046 C
HETATM    2  C5  UNL     1      18.017   2.679  11.407  1.00  0.00     0.010 C
HETATM    3  C6  UNL     1      16.995   1.711  10.792  1.00  0.00     0.028 C
HETATM    4  C7  UNL     1      16.720   0.621  11.795  1.00  0.00     0.232 C
HETATM    5  N2  UNL     1      16.965   1.120  13.132  1.00  0.00    -0.075 N
ATOM      6  H21 UNL     1      17.948   1.021  13.383  1.00  0.00     0.277 HD
ATOM      7  H22 UNL     1      16.552   0.504  13.832  1.00  0.00     0.277 HD
HETATM    8  C8  UNL     1      16.520   2.481  13.314  1.00  0.00     0.239 C
ENDROOT
BRANCH   1   9
HETATM    9  C2  UNL     1      18.074   4.362  13.273  1.00  0.00     0.121 C
HETATM   10  C1  UNL     1      17.553   4.271  14.698  1.00  0.00     0.046 C
HETATM   11  C3  UNL     1      17.981   5.808  12.829  1.00  0.00     0.046 C
BRANCH   9  12
HETATM   12  N1  UNL     1      19.468   4.008  13.302  1.00  0.00    -0.071 N
ATOM     13  H13 UNL     1      19.870   3.898  12.371  1.00  0.00     0.275 HD
ATOM     14  H12 UNL     1      20.067   4.772  13.616  1.00  0.00     0.275 HD
ATOM     15  H11 UNL     1      19.558   3.170  13.876  1.00  0.00     0.275 HD
ENDBRANCH   9  12
ENDBRANCH   1   9
TORSDOF 2
ENDMDL