MODEL 1
REMARK VINA RESULT: -4.670779052      0.000      0.000
REMARK  2 active torsions:
REMARK  status: ('A' for Active; 'I' for Inactive)
REMARK    1  A    between atoms: C2_2  and  N1_3
REMARK    2  A    between atoms: N1_3  and  C3_6
ROOT
HETATM    1  C3  UNL     1      16.526   2.914  13.549  1.00  0.00     0.280 C
HETATM    2  C4  UNL     1      15.532   3.132  14.685  1.00  0.00     0.054 C
HETATM    3  C5  UNL     1      15.044   4.547  14.433  1.00  0.00     0.006 C
HETATM    4  C6  UNL     1      16.185   5.486  14.608  1.00  0.00     0.024 C
HETATM    5  C7  UNL     1      17.541   4.978  14.323  1.00  0.00     0.074 C
HETATM    6  C8  UNL     1      18.250   5.824  13.267  1.00  0.00     0.032 C
HETATM    7  N2  UNL     1      17.696   3.629  13.925  1.00  0.00    -0.392 N
ATOM      8  H2  UNL     1      18.615   3.185  13.910  1.00  0.00     0.155 HD
ENDROOT
BRANCH   1   9
HETATM    9  N1  UNL     1      16.849   1.522  13.361  1.00  0.00    -0.055 N
ATOM     10  H12 UNL     1      16.330   0.902  13.984  1.00  0.00     0.279 HD
ATOM     11  H11 UNL     1      17.784   1.280  13.688  1.00  0.00     0.279 HD
BRANCH   9  12
HETATM   12  C2  UNL     1      16.639   1.224  11.950  1.00  0.00     0.230 C
HETATM   13  C1  UNL     1      16.981  -0.194  11.598  1.00  0.00     0.034 C
ENDBRANCH   9  12
ENDBRANCH   1   9
TORSDOF 2
ENDMDL