MODEL 1
REMARK VINA RESULT: -4.765750087      0.000      0.000
REMARK  3 active torsions:
REMARK  status: ('A' for Active; 'I' for Inactive)
REMARK    1  A    between atoms: C2_2  and  N1_3
REMARK    2  A    between atoms: C2_2  and  C3_7
REMARK    3  A    between atoms: C3_7  and  N2_8
ROOT
HETATM    1  C3  UNL     1      16.481   2.829  14.547  1.00  0.00     0.151 C
HETATM    2  C4  UNL     1      17.592   3.784  14.598  1.00  0.00     0.041 C
HETATM    3  C5  UNL     1      17.285   5.235  14.561  1.00  0.00     0.002 C
HETATM    4  C6  UNL     1      15.976   5.584  13.920  1.00  0.00     0.000 C
HETATM    5  C7  UNL     1      14.926   4.799  14.674  1.00  0.00     0.002 C
HETATM    6  C8  UNL     1      15.129   3.365  14.234  1.00  0.00     0.041 C
ENDROOT
BRANCH   1   7
HETATM    7  C2  UNL     1      16.402   1.986  15.830  1.00  0.00     0.215 C
HETATM    8  C1  UNL     1      14.970   1.751  16.239  1.00  0.00     0.042 C
BRANCH   7   9
HETATM    9  N1  UNL     1      16.962   0.660  15.530  1.00  0.00    -0.073 N
ATOM     10  H13 UNL     1      16.666  -0.064  16.185  1.00  0.00     0.274 HD
ATOM     11  H12 UNL     1      16.570   0.234  14.689  1.00  0.00     0.274 HD
ATOM     12  H11 UNL     1      17.974   0.783  15.491  1.00  0.00     0.274 HD
ENDBRANCH   7   9
ENDBRANCH   1   7
BRANCH   1  13
HETATM   13  N2  UNL     1      16.774   1.828  13.500  1.00  0.00    -0.068 N
ATOM     14  H23 UNL     1      17.767   1.680  13.321  1.00  0.00     0.275 HD
ATOM     15  H22 UNL     1      16.570   0.864  13.766  1.00  0.00     0.275 HD
ATOM     16  H21 UNL     1      16.244   2.166  12.697  1.00  0.00     0.275 HD
ENDBRANCH   1  13
TORSDOF 3
ENDMDL