MODEL 5
REMARK VINA RESULT: -4.576061970      3.224      4.374
REMARK  3 active torsions:
REMARK  status: ('A' for Active; 'I' for Inactive)
REMARK    1  A    between atoms: N1_1  and  O1_4
REMARK    2  A    between atoms: O1_4  and  C1_5
REMARK    3  A    between atoms: C1_5  and  C2_6
ROOT
HETATM    1  C2  UNL     1      18.606   1.801  10.549  1.00  0.00     0.013 C
HETATM    2  C3  UNL     1      18.005   2.688  11.644  1.00  0.00     0.018 C
HETATM    3  C4  UNL     1      16.755   2.010  12.308  1.00  0.00     0.080 C
HETATM    4  C5  UNL     1      16.832   0.653  11.972  1.00  0.00    -0.183 C
HETATM    5  C6  UNL     1      16.947  -0.697  11.606  1.00  0.00     0.080 C
HETATM    6  C7  UNL     1      18.199  -0.778  10.664  1.00  0.00     0.012 C
HETATM    7  C8  UNL     1      19.066   0.471  10.781  1.00  0.00     0.007 C
ENDROOT
BRANCH   1   8
HETATM    8  C1  UNL     1      19.838   2.649  10.126  1.00  0.00     0.205 C
BRANCH   8   9
HETATM    9  O1  UNL     1      20.372   2.095   8.942  1.00  0.00    -0.287 OA
BRANCH   9  10
HETATM   10  N1  UNL     1      20.733   3.152   8.177  1.00  0.00    -0.311 N
ATOM     11  H12 UNL     1      21.658   3.578   8.130  1.00  0.00     0.184 HD
ATOM     12  H11 UNL     1      19.890   3.423   7.669  1.00  0.00     0.184 HD
ENDBRANCH   9  10
ENDBRANCH   8   9
ENDBRANCH   1   8
TORSDOF 3
ENDMDL