MODEL 3
REMARK VINA RESULT: -4.307571329      1.120      1.181
REMARK  2 active torsions:
REMARK  status: ('A' for Active; 'I' for Inactive)
REMARK    1  A    between atoms: N1_2  and  C2_5
REMARK    2  A    between atoms: C8_11  and  N2_12
ROOT
HETATM    1  C2  UNL     1      18.124   2.472  11.185  1.00  0.00     0.149 C
HETATM    2  C3  UNL     1      18.086   3.557  10.091  1.00  0.00     0.048 C
HETATM    3  C4  UNL     1      16.724   1.864  11.142  1.00  0.00     0.041 C
HETATM    4  C5  UNL     1      16.775   0.568  11.863  1.00  0.00     0.002 C
HETATM    5  C6  UNL     1      17.557  -0.412  11.026  1.00  0.00     0.002 C
HETATM    6  C7  UNL     1      18.821   0.152  10.464  1.00  0.00     0.035 C
HETATM    7  C8  UNL     1      19.210   1.497  10.946  1.00  0.00     0.219 C
ENDROOT
BRANCH   1   8
HETATM    8  N1  UNL     1      18.252   3.088  12.490  1.00  0.00    -0.068 N
HETATM    9  C1  UNL     1      18.851   4.375  12.477  1.00  0.00     0.267 C
ATOM     10  H12 UNL     1      18.755   2.469  13.127  1.00  0.00     0.277 HD
ATOM     11  H11 UNL     1      17.346   3.122  12.958  1.00  0.00     0.277 HD
ENDBRANCH   1   8
BRANCH   7  12
HETATM   12  N2  UNL     1      20.111   2.084   9.938  1.00  0.00    -0.073 N
ATOM     13  H23 UNL     1      20.432   3.020  10.186  1.00  0.00     0.274 HD
ATOM     14  H22 UNL     1      21.026   1.634   9.910  1.00  0.00     0.274 HD
ATOM     15  H21 UNL     1      19.624   2.054   9.043  1.00  0.00     0.274 HD
ENDBRANCH   7  12
TORSDOF 2
ENDMDL