MODEL 2
REMARK VINA RESULT: -4.125446380      1.696      4.251
REMARK  3 active torsions:
REMARK  status: ('A' for Active; 'I' for Inactive)
REMARK    1  A    between atoms: C2_2  and  C4_4
REMARK    2  A    between atoms: C4_4  and  C5_5
REMARK    3  A    between atoms: C19_23  and  N2_24
ROOT
HETATM    1  C5  UNL     1     -10.553  35.302   1.249  1.00  0.00    -0.016 C
HETATM    2  C6  UNL     1     -10.501  35.751   2.447  1.00  0.00    -0.039 C
HETATM    3  C7  UNL     1      -9.757  35.028   3.540  1.00  0.00     0.058 C
HETATM    4  C8  UNL     1     -10.732  35.038   4.704  1.00  0.00     0.196 A
HETATM    5  O1  UNL     1     -11.916  34.386   4.441  1.00  0.00    -0.341 OA
HETATM    6  C9  UNL     1     -11.902  35.759   4.665  1.00  0.00     0.189 A
HETATM    7  C10 UNL     1     -12.564  36.160   5.992  1.00  0.00     0.082 C
HETATM    8  O2  UNL     1     -12.250  36.618   3.638  1.00  0.00    -0.335 OA
HETATM    9  C11 UNL     1     -11.116  36.997   2.994  1.00  0.00     0.127 C
HETATM   10  C12 UNL     1     -10.188  37.702   3.980  1.00  0.00     0.077 C
HETATM   11  C13 UNL     1      -8.791  37.340   3.521  1.00  0.00     0.038 C
HETATM   12  C14 UNL     1      -7.834  38.166   4.383  1.00  0.00     0.039 C
HETATM   13  C15 UNL     1      -8.526  35.858   3.753  1.00  0.00     0.020 C
HETATM   14  C16 UNL     1      -7.872  35.616   5.093  1.00  0.00     0.013 C
HETATM   15  N1  UNL     1      -8.704  37.728   2.131  1.00  0.00    -0.345 N
HETATM   16  C17 UNL     1      -7.398  37.841   1.542  1.00  0.00     0.153 C
HETATM   17  C18 UNL     1      -9.836  38.003   1.315  1.00  0.00     0.254 C
HETATM   18  O3  UNL     1      -9.652  38.265   0.111  1.00  0.00    -0.271 OA
HETATM   19  C19 UNL     1     -11.226  37.981   1.886  1.00  0.00     0.313 C
ENDROOT
BRANCH   1  20
HETATM   20  C4  UNL     1      -9.889  34.045   0.819  1.00  0.00     0.060 C
BRANCH  20  21
HETATM   21  C2  UNL     1     -10.480  33.527  -0.450  1.00  0.00    -0.090 C
HETATM   22  C1  UNL     1     -11.462  34.156  -1.048  1.00  0.00     0.014 C
HETATM   23  C3  UNL     1      -9.932  32.283  -1.026  1.00  0.00     0.043 C
ENDBRANCH  20  21
ENDBRANCH   1  20
BRANCH  19  24
HETATM   24  N2  UNL     1     -12.259  37.834   0.943  1.00  0.00    -0.063 N
ATOM     25  H23 UNL     1     -12.093  38.480   0.172  1.00  0.00     0.275 HD
ATOM     26  H22 UNL     1     -12.151  36.933   0.476  1.00  0.00     0.275 HD
ATOM     27  H21 UNL     1     -13.227  37.930   1.251  1.00  0.00     0.275 HD
ENDBRANCH  19  24
TORSDOF 3
ENDMDL