MODEL 5
REMARK VINA RESULT: -4.802265048      6.104      8.245
REMARK  5 active torsions:
REMARK  status: ('A' for Active; 'I' for Inactive)
REMARK    1  A    between atoms: C5_5  and  O1_6
REMARK    2  A    between atoms: O1_6  and  C6_7
REMARK    3  A    between atoms: C6_7  and  C7_9
REMARK    4  A    between atoms: C12_14  and  C13_15
REMARK    5  A    between atoms: C15_19  and  O5_21
ROOT
HETATM    1  C1  UNL     1      -8.763  32.475   6.624  1.00  0.00     0.017 C
HETATM    2  C2  UNL     1      -9.293  32.607   5.433  1.00  0.00    -0.051 C
HETATM    3  C3  UNL     1      -9.345  31.519   4.418  1.00  0.00     0.039 C
HETATM    4  C4  UNL     1      -8.892  31.980   3.061  1.00  0.00     0.038 C
HETATM    5  C5  UNL     1      -9.466  33.329   2.729  1.00  0.00     0.144 C
HETATM    6  C10 UNL     1      -9.167  34.354   3.808  1.00  0.00     0.037 C
HETATM    7  C11 UNL     1      -7.674  34.298   4.185  1.00  0.00     0.022 C
HETATM    8  C12 UNL     1      -9.456  35.754   3.347  1.00  0.00     0.134 C
HETATM    9  C14 UNL     1     -10.276  36.547   4.293  1.00  0.00     0.174 C
HETATM   10  O4  UNL     1     -10.190  37.761   4.255  1.00  0.00    -0.294 OA
HETATM   11  C15 UNL     1     -11.197  35.965   5.283  1.00  0.00     0.144 C
HETATM   12  C16 UNL     1     -12.602  35.993   4.670  1.00  0.00     0.057 C
HETATM   13  C17 UNL     1     -10.832  34.591   5.699  1.00  0.00     0.204 A
HETATM   14  O6  UNL     1     -11.340  33.629   4.776  1.00  0.00    -0.360 OA
HETATM   15  C18 UNL     1      -9.895  33.912   5.016  1.00  0.00     0.124 A
ENDROOT
BRANCH   5  16
HETATM   16  O1  UNL     1      -9.261  33.745   1.433  1.00  0.00    -0.315 OA
BRANCH  16  17
HETATM   17  C6  UNL     1     -10.047  33.579   0.328  1.00  0.00     0.262 C
HETATM   18  O2  UNL     1      -9.905  32.501  -0.280  1.00  0.00    -0.265 OA
BRANCH  17  19
HETATM   19  C7  UNL     1     -11.022  34.585  -0.162  1.00  0.00     0.077 C
HETATM   20  C8  UNL     1     -11.885  34.069  -1.265  1.00  0.00     0.020 C
HETATM   21  C9  UNL     1     -10.288  35.813  -0.649  1.00  0.00     0.020 C
ENDBRANCH  17  19
ENDBRANCH  16  17
ENDBRANCH   5  16
BRANCH   8  22
HETATM   22  C13 UNL     1      -8.213  36.540   3.108  1.00  0.00     0.244 C
HETATM   23  O3  UNL     1      -8.002  36.908   1.966  1.00  0.00    -0.306 OA
ENDBRANCH   8  22
BRANCH  11  24
HETATM   24  O5  UNL     1     -11.244  36.818   6.402  1.00  0.00    -0.380 OA
ATOM     25  H5  UNL     1     -11.819  36.430   7.050  1.00  0.00     0.211 HD
ENDBRANCH  11  24
TORSDOF 5
ENDMDL