MODEL 2
REMARK VINA RESULT: -5.345418657      6.906     10.233
REMARK  5 active torsions:
REMARK  status: ('A' for Active; 'I' for Inactive)
REMARK    1  A    between atoms: O1_2  and  C2_3
REMARK    2  A    between atoms: C8_10  and  O3_11
REMARK    3  A    between atoms: C8_10  and  C9_13
REMARK    4  A    between atoms: C10_14  and  C11_15
REMARK    5  A    between atoms: C14_18  and  N1_19
ROOT
HETATM    1  C2  UNL     1     -16.062  29.872  -2.548  1.00  0.00     0.165 C
HETATM    2  C3  UNL     1     -16.962  28.922  -1.757  1.00  0.00     0.048 C
HETATM    3  C4  UNL     1     -17.090  27.566  -2.339  1.00  0.00     0.036 C
HETATM    4  C5  UNL     1     -17.328  26.726  -1.078  1.00  0.00     0.168 C
HETATM    5  O2  UNL     1     -16.547  27.313  -0.119  1.00  0.00    -0.385 OA
HETATM    6  C6  UNL     1     -16.489  28.679  -0.369  1.00  0.00     0.132 C
HETATM    7  C7  UNL     1     -15.054  29.089  -0.208  1.00  0.00     0.086 C
HETATM    8  C8  UNL     1     -14.828  30.581  -0.483  1.00  0.00     0.157 C
HETATM    9  C14 UNL     1     -15.693  30.992  -1.623  1.00  0.00     0.301 C
ENDROOT
BRANCH   8  10
HETATM   10  O3  UNL     1     -15.248  31.206   0.723  1.00  0.00    -0.375 OA
ATOM     11  H3  UNL     1     -15.302  32.125   0.488  1.00  0.00     0.211 HD
ENDBRANCH   8  10
BRANCH   8  12
HETATM   12  C9  UNL     1     -13.421  30.768  -0.704  1.00  0.00    -0.065 C
HETATM   13  C10 UNL     1     -12.233  30.896  -0.879  1.00  0.00    -0.099 C
BRANCH  13  14
HETATM   14  C11 UNL     1     -10.777  31.047  -1.067  1.00  0.00     0.065 A
HETATM   15  C12 UNL     1     -10.045  31.944  -0.101  1.00  0.00     0.018 A
HETATM   16  C13 UNL     1     -10.312  32.489  -1.447  1.00  0.00     0.018 A
ENDBRANCH  13  14
ENDBRANCH   8  12
BRANCH   9  17
HETATM   17  N1  UNL     1     -15.523  32.279  -2.161  1.00  0.00     0.130 N
HETATM   18  C15 UNL     1     -14.134  32.732  -2.219  1.00  0.00     0.307 C
HETATM   19  C16 UNL     1     -14.218  34.223  -1.993  1.00  0.00     0.148 C
HETATM   20  C17 UNL     1     -12.959  34.787  -1.382  1.00  0.00     0.041 C
HETATM   21  O4  UNL     1     -15.264  34.285  -1.081  1.00  0.00    -0.351 OA
HETATM   22  C18 UNL     1     -16.194  33.397  -1.680  1.00  0.00     0.355 C
HETATM   23  C19 UNL     1     -16.719  34.209  -2.877  1.00  0.00     0.074 C
ENDBRANCH   9  17
BRANCH   1  24
HETATM   24  O1  UNL     1     -15.020  29.175  -3.106  1.00  0.00    -0.388 OA
HETATM   25  C1  UNL     1     -14.583  29.657  -4.337  1.00  0.00     0.202 C
ENDBRANCH   1  24
TORSDOF 5
ENDMDL