MODEL 2
REMARK VINA RESULT: -8.658188050      2.831      8.341
REMARK  2 active torsions:
REMARK  status: ('A' for Active; 'I' for Inactive)
REMARK    1  A    between atoms: C6_6  and  N1_7
REMARK       I    between atoms: N1_7  and  C7_9
REMARK    2  A    between atoms: C7_9  and  C8_11
ROOT
HETATM    1  C1  UNL     1     -20.621  38.161  -2.656  1.00  0.00     0.018 C
HETATM    2  C2  UNL     1     -19.747  37.319  -2.569  1.00  0.00    -0.078 C
HETATM    3  C3  UNL     1     -18.729  36.320  -2.445  1.00  0.00     0.017 A
HETATM    4  C4  UNL     1     -17.804  36.194  -3.460  1.00  0.00     0.023 A
HETATM    5  C5  UNL     1     -16.797  35.257  -3.408  1.00  0.00     0.031 A
HETATM    6  C6  UNL     1     -16.691  34.395  -2.299  1.00  0.00     0.034 A
HETATM    7  C15 UNL     1     -17.616  34.542  -1.313  1.00  0.00     0.031 A
HETATM    8  C16 UNL     1     -18.641  35.489  -1.354  1.00  0.00     0.023 A
ENDROOT
BRANCH   6   9
HETATM    9  N1  UNL     1     -15.643  33.454  -2.293  1.00  0.00    -0.324 N
HETATM   10  C7  UNL     1     -15.727  32.052  -2.262  1.00  0.00     0.269 C
HETATM   11  O1  UNL     1     -16.799  31.407  -2.232  1.00  0.00    -0.269 OA
ATOM     12  H1  UNL     1     -14.699  33.840  -2.315  1.00  0.00     0.169 HD
BRANCH  10  13
HETATM   13  C8  UNL     1     -14.474  31.226  -2.261  1.00  0.00     0.370 C
HETATM   14  O2  UNL     1     -14.602  30.115  -1.407  1.00  0.00    -0.316 OA
HETATM   15  C9  UNL     1     -13.549  29.446  -0.818  1.00  0.00     0.106 A
HETATM   16  C10 UNL     1     -13.816  28.212  -0.202  1.00  0.00     0.040 A
HETATM   17  C14 UNL     1     -12.246  29.885  -0.779  1.00  0.00     0.122 A
HETATM   18  C11 UNL     1     -12.825  27.481   0.407  1.00  0.00     0.003 A
HETATM   19  C12 UNL     1     -11.520  27.921   0.445  1.00  0.00     0.003 A
HETATM   20  C13 UNL     1     -11.254  29.129  -0.156  1.00  0.00     0.041 A
HETATM   21  O3  UNL     1     -11.856  31.090  -1.353  1.00  0.00    -0.228 OA
HETATM   22  S1  UNL     1     -13.098  32.204  -1.684  1.00  0.00     0.307 S
HETATM   23  O4  UNL     1     -12.627  33.178  -2.692  1.00  0.00    -0.195 OA
HETATM   24  O5  UNL     1     -13.527  32.853  -0.395  1.00  0.00    -0.195 OA
ENDBRANCH  10  13
ENDBRANCH   6   9
TORSDOF 2
ENDMDL