MODEL 1
REMARK VINA RESULT: -6.785990037      0.000      0.000
REMARK  4 active torsions:
REMARK  status: ('A' for Active; 'I' for Inactive)
REMARK    1  A    between atoms: C9_10  and  C10_11
REMARK    2  A    between atoms: C10_11  and  O2_13
REMARK    3  A    between atoms: O2_13  and  C11_14
REMARK       I    between atoms: N2_18  and  C15_19
REMARK       I    between atoms: C15_19  and  N3_21
REMARK    4  A    between atoms: N3_21  and  C16_23
ROOT
HETATM    1  C16 UNL     1     -16.875  33.945  -1.337  1.00  0.00     0.248 C
HETATM    2  C17 UNL     1     -16.066  34.969  -2.044  1.00  0.00     0.078 C
HETATM    3  N4  UNL     1     -15.429  35.765  -2.590  1.00  0.00    -0.196 NA
ENDROOT
BRANCH   1   4
HETATM    4  N3  UNL     1     -16.419  32.653  -1.850  1.00  0.00    -0.331 N
HETATM    5  C15 UNL     1     -15.441  31.895  -1.198  1.00  0.00     0.320 C
HETATM    6  N2  UNL     1     -14.931  30.640  -1.609  1.00  0.00    -0.314 N
HETATM    7  O3  UNL     1     -14.967  32.396  -0.117  1.00  0.00    -0.247 OA
HETATM    8  C2  UNL     1     -15.420  30.063  -2.817  1.00  0.00     0.114 C
HETATM    9  C9  UNL     1     -13.938  30.037  -0.717  1.00  0.00     0.191 C
HETATM   10  C1  UNL     1     -14.413  29.464  -3.737  1.00  0.00     0.034 C
HETATM   11  C3  UNL     1     -16.521  29.048  -2.585  1.00  0.00     0.297 C
HETATM   12  N1  UNL     1     -16.021  27.825  -1.975  1.00  0.00     0.095 N
HETATM   13  C4  UNL     1     -17.158  26.967  -1.709  1.00  0.00     0.273 C
HETATM   14  C7  UNL     1     -15.562  28.174  -0.651  1.00  0.00     0.225 C
HETATM   15  C5  UNL     1     -16.665  26.099  -0.570  1.00  0.00     0.032 C
HETATM   16  C6  UNL     1     -15.758  26.978   0.249  1.00  0.00     0.037 C
HETATM   17  C8  UNL     1     -14.101  28.545  -0.770  1.00  0.00     0.071 C
ATOM     18  H3  UNL     1     -16.828  32.294  -2.712  1.00  0.00     0.165 HD
BRANCH   9  19
HETATM   19  C10 UNL     1     -12.572  30.513  -0.924  1.00  0.00     0.282 C
HETATM   20  O1  UNL     1     -11.806  29.775  -1.607  1.00  0.00    -0.263 OA
BRANCH  19  21
HETATM   21  O2  UNL     1     -12.059  31.675  -0.444  1.00  0.00    -0.310 OA
BRANCH  21  22
HETATM   22  C11 UNL     1     -11.592  32.765  -1.180  1.00  0.00     0.060 C
HETATM   23  C12 UNL     1     -11.544  34.034  -0.355  1.00  0.00     0.045 C
HETATM   24  C13 UNL     1     -10.144  32.455  -1.566  1.00  0.00     0.045 C
HETATM   25  C14 UNL     1     -12.357  33.045  -2.437  1.00  0.00     0.045 C
ENDBRANCH  21  22
ENDBRANCH  19  21
ENDBRANCH   9  19
ENDBRANCH   1   4
TORSDOF 4
ENDMDL