MODEL 3
REMARK VINA RESULT: -7.218225069      1.646      2.065
REMARK  3 active torsions:
REMARK  status: ('A' for Active; 'I' for Inactive)
REMARK    1  A    between atoms: C9_15  and  C10_16
REMARK    2  A    between atoms: C11_17  and  C12_18
REMARK    3  A    between atoms: C12_18  and  O5_19
ROOT
HETATM    1  O1  UNL     1     -15.070  30.042  -3.855  1.00  0.00    -0.217 OA
HETATM    2  S1  UNL     1     -15.202  30.470  -2.409  1.00  0.00     0.209 S
HETATM    3  O2  UNL     1     -16.539  31.182  -2.297  1.00  0.00    -0.217 OA
HETATM    4  C1  UNL     1     -15.290  29.046  -1.412  1.00  0.00     0.086 A
HETATM    5  C2  UNL     1     -16.486  28.440  -1.211  1.00  0.00     0.025 A
HETATM    6  C3  UNL     1     -16.503  27.304  -0.407  1.00  0.00     0.002 A
HETATM    7  C4  UNL     1     -15.339  26.824   0.159  1.00  0.00     0.002 A
HETATM    8  C5  UNL     1     -14.114  27.462  -0.059  1.00  0.00     0.025 A
HETATM    9  C6  UNL     1     -14.121  28.584  -0.857  1.00  0.00     0.086 A
HETATM   10  S2  UNL     1     -12.615  29.409  -1.154  1.00  0.00     0.209 S
HETATM   11  O3  UNL     1     -11.733  29.196   0.068  1.00  0.00    -0.217 OA
HETATM   12  O4  UNL     1     -11.948  28.745  -2.336  1.00  0.00    -0.217 OA
HETATM   13  C7  UNL     1     -12.820  31.105  -1.363  1.00  0.00     0.086 A
HETATM   14  C8  UNL     1     -11.829  31.971  -0.968  1.00  0.00     0.036 A
HETATM   15  C9  UNL     1     -12.001  33.350  -1.141  1.00  0.00    -0.035 A
HETATM   16  C13 UNL     1     -13.159  33.836  -1.703  1.00  0.00     0.013 A
HETATM   17  C14 UNL     1     -14.141  32.931  -2.091  1.00  0.00     0.026 A
HETATM   18  C15 UNL     1     -13.981  31.584  -1.926  1.00  0.00     0.086 A
ENDROOT
BRANCH  15  19
HETATM   19  C10 UNL     1     -10.931  34.259  -0.712  1.00  0.00     0.009 C
HETATM   20  C11 UNL     1     -11.037  35.553  -0.727  1.00  0.00    -0.000 C
BRANCH  20  21
HETATM   21  C12 UNL     1      -9.884  36.385  -0.270  1.00  0.00     0.191 C
BRANCH  21  22
HETATM   22  O5  UNL     1      -9.370  35.887   0.933  1.00  0.00    -0.397 OA
ATOM     23  H5  UNL     1      -8.591  35.368   0.771  1.00  0.00     0.209 HD
ENDBRANCH  21  22
ENDBRANCH  20  21
ENDBRANCH  15  19
TORSDOF 3
ENDMDL