MODEL 3
REMARK VINA RESULT: -6.604350503      7.681     10.784
REMARK  3 active torsions:
REMARK  status: ('A' for Active; 'I' for Inactive)
REMARK    1  A    between atoms: C10_12  and  O3_13
REMARK    2  A    between atoms: C15_19  and  C16_20
REMARK    3  A    between atoms: C16_20  and  O5_22
ROOT
HETATM    1  C1  UNL     1     -13.776  24.898   0.408  1.00  0.00     0.025 C
HETATM    2  C2  UNL     1     -14.683  25.639  -0.186  1.00  0.00     0.014 C
HETATM    3  C3  UNL     1     -16.068  25.265  -0.452  1.00  0.00     0.289 C
HETATM    4  O1  UNL     1     -16.604  24.130  -0.230  1.00  0.00    -0.260 OA
HETATM    5  O2  UNL     1     -16.732  26.383  -1.007  1.00  0.00    -0.311 OA
HETATM    6  C4  UNL     1     -16.007  27.489  -0.500  1.00  0.00     0.141 C
HETATM    7  C5  UNL     1     -16.162  28.738  -1.304  1.00  0.00     0.038 C
HETATM    8  C6  UNL     1     -15.863  29.917  -0.460  1.00  0.00    -0.002 C
HETATM    9  C7  UNL     1     -15.855  31.254  -1.173  1.00  0.00    -0.001 C
HETATM   10  C8  UNL     1     -15.762  31.224  -2.656  1.00  0.00     0.008 C
HETATM   11  C9  UNL     1     -15.112  32.531  -3.107  1.00  0.00     0.037 C
HETATM   12  C10 UNL     1     -13.626  32.354  -2.743  1.00  0.00     0.146 C
HETATM   13  C11 UNL     1     -13.594  32.294  -1.236  1.00  0.00    -0.056 C
HETATM   14  C12 UNL     1     -12.634  32.976  -0.648  1.00  0.00     0.017 C
HETATM   15  C13 UNL     1     -14.561  31.545  -0.451  1.00  0.00     0.026 C
HETATM   16  C14 UNL     1     -14.416  30.135  -0.108  1.00  0.00     0.012 C
HETATM   17  C15 UNL     1     -13.497  29.201  -0.780  1.00  0.00     0.091 C
HETATM   18  C18 UNL     1     -13.585  27.860  -0.025  1.00  0.00     0.027 C
HETATM   19  C19 UNL     1     -14.566  27.008  -0.731  1.00  0.00     0.054 C
ENDROOT
BRANCH  17  20
HETATM   20  C16 UNL     1     -12.068  29.581  -0.644  1.00  0.00     0.263 C
HETATM   21  O4  UNL     1     -11.324  29.829  -1.649  1.00  0.00    -0.265 OA
BRANCH  20  22
HETATM   22  O5  UNL     1     -11.456  29.687   0.603  1.00  0.00    -0.326 OA
HETATM   23  C17 UNL     1     -10.920  28.567   1.285  1.00  0.00     0.213 C
ENDBRANCH  20  22
ENDBRANCH  17  20
BRANCH  12  24
HETATM   24  O3  UNL     1     -12.970  33.449  -3.239  1.00  0.00    -0.391 OA
ATOM     25  H3  UNL     1     -12.827  34.034  -2.505  1.00  0.00     0.210 HD
ENDBRANCH  12  24
TORSDOF 3
ENDMDL