MODEL 3
REMARK VINA RESULT: -7.570348466      3.405      6.832
REMARK  3 active torsions:
REMARK  status: ('A' for Active; 'I' for Inactive)
REMARK    1  A    between atoms: C6_6  and  C7_7
REMARK    2  A    between atoms: C10_13  and  O1_14
REMARK    3  A    between atoms: O1_14  and  C11_15
REMARK       I    between atoms: C11_15  and  N2_17
ROOT
HETATM    1  C7  UNL     1     -14.155  28.910  -2.044  1.00  0.00     0.328 C
HETATM    2  N1  UNL     1     -15.195  28.888  -3.057  1.00  0.00    -0.048 N
ATOM      3  H11 UNL     1     -16.113  29.147  -2.694  1.00  0.00     0.280 HD
ATOM      4  H12 UNL     1     -15.438  27.945  -3.362  1.00  0.00     0.280 HD
HETATM    5  C8  UNL     1     -14.750  29.740  -4.142  1.00  0.00     0.240 C
HETATM    6  C9  UNL     1     -14.883  31.161  -3.578  1.00  0.00     0.089 C
HETATM    7  C10 UNL     1     -13.925  31.215  -2.407  1.00  0.00     0.275 C
HETATM    8  O4  UNL     1     -13.333  30.022  -2.119  1.00  0.00    -0.328 OA
ENDROOT
BRANCH   1   9
HETATM    9  C6  UNL     1     -14.676  28.676  -0.667  1.00  0.00     0.052 A
HETATM   10  C5  UNL     1     -15.088  27.406  -0.112  1.00  0.00    -0.000 A
HETATM   11  C4  UNL     1     -14.686  26.058  -0.535  1.00  0.00     0.010 C
HETATM   12  C16 UNL     1     -13.813  28.125   0.421  1.00  0.00     0.006 A
HETATM   13  C3  UNL     1     -14.112  25.325   0.682  1.00  0.00     0.034 C
HETATM   14  C2  UNL     1     -12.804  26.010   0.952  1.00  0.00    -0.085 C
HETATM   15  C1  UNL     1     -11.918  25.530   1.787  1.00  0.00     0.014 C
HETATM   16  C17 UNL     1     -12.606  27.292   0.177  1.00  0.00     0.014 C
HETATM   17  C18 UNL     1     -11.428  27.999   0.811  1.00  0.00     0.015 C
ENDBRANCH   1   9
BRANCH   7  18
HETATM   18  O1  UNL     1     -14.582  31.812  -1.308  1.00  0.00    -0.272 OA
BRANCH  18  19
HETATM   19  C11 UNL     1     -15.929  32.115  -1.369  1.00  0.00     0.365 C
HETATM   20  O2  UNL     1     -16.797  31.208  -1.309  1.00  0.00    -0.238 OA
HETATM   21  N2  UNL     1     -16.410  33.442  -1.500  1.00  0.00    -0.324 N
HETATM   22  C12 UNL     1     -17.810  33.781  -1.566  1.00  0.00     0.154 C
HETATM   23  C15 UNL     1     -15.447  34.517  -1.571  1.00  0.00     0.154 C
HETATM   24  C13 UNL     1     -17.902  35.271  -1.225  1.00  0.00     0.187 C
HETATM   25  O3  UNL     1     -17.221  36.052  -2.130  1.00  0.00    -0.388 OA
HETATM   26  C14 UNL     1     -16.025  35.528  -2.567  1.00  0.00     0.187 C
ENDBRANCH  18  19
ENDBRANCH   7  18
TORSDOF 3
ENDMDL