MODEL 3
REMARK VINA RESULT: -9.008222781      0.684      1.388
REMARK  4 active torsions:
REMARK  status: ('A' for Active; 'I' for Inactive)
REMARK    1  A    between atoms: C8_11  and  C9_12
REMARK    2  A    between atoms: C8_11  and  C15_18
REMARK    3  A    between atoms: C18_21  and  O4_22
REMARK    4  A    between atoms: C19_24  and  O5_25
ROOT
HETATM    1  O1  UNL     1       2.342  45.188   1.174  1.00  0.00    -0.261 OA
HETATM    2  C1  UNL     1       1.596  46.095   1.636  1.00  0.00     0.309 C
HETATM    3  O2  UNL     1       0.881  46.836   0.692  1.00  0.00    -0.273 OA
HETATM    4  C2  UNL     1      -0.086  47.749   1.120  1.00  0.00     0.112 A
HETATM    5  C3  UNL     1      -0.809  48.495   0.180  1.00  0.00     0.040 A
HETATM    6  C4  UNL     1      -1.750  49.378   0.626  1.00  0.00     0.003 A
HETATM    7  C5  UNL     1      -2.012  49.562   1.964  1.00  0.00     0.003 A
HETATM    8  C6  UNL     1      -1.284  48.814   2.859  1.00  0.00     0.040 A
HETATM    9  C7  UNL     1      -0.310  47.894   2.461  1.00  0.00     0.105 A
HETATM   10  O3  UNL     1       0.389  47.169   3.408  1.00  0.00    -0.317 OA
HETATM   11  C8  UNL     1       1.495  46.350   3.086  1.00  0.00     0.210 C
ENDROOT
BRANCH  11  12
HETATM   12  C9  UNL     1       1.418  45.036   3.785  1.00  0.00    -0.009 A
HETATM   13  C10 UNL     1       2.502  44.244   4.043  1.00  0.00     0.011 A
HETATM   14  C11 UNL     1       2.414  43.026   4.688  1.00  0.00     0.001 A
HETATM   15  C12 UNL     1       1.156  42.619   5.074  1.00  0.00     0.000 A
HETATM   16  C13 UNL     1       0.038  43.384   4.834  1.00  0.00     0.001 A
HETATM   17  C14 UNL     1       0.176  44.601   4.184  1.00  0.00     0.011 A
ENDBRANCH  11  12
BRANCH  11  18
HETATM   18  C15 UNL     1       2.702  47.033   3.649  1.00  0.00    -0.006 A
HETATM   19  C16 UNL     1       2.722  47.297   5.007  1.00  0.00     0.014 A
HETATM   20  C17 UNL     1       3.824  47.923   5.549  1.00  0.00     0.040 A
HETATM   21  C18 UNL     1       4.888  48.277   4.733  1.00  0.00     0.098 A
HETATM   22  C19 UNL     1       4.852  48.006   3.380  1.00  0.00     0.099 A
HETATM   23  C20 UNL     1       3.755  47.381   2.831  1.00  0.00     0.050 A
BRANCH  21  24
HETATM   24  O4  UNL     1       6.003  48.909   5.273  1.00  0.00    -0.358 OA
ATOM     25  H4  UNL     1       6.779  49.044   4.742  1.00  0.00     0.217 HD
ENDBRANCH  21  24
BRANCH  22  26
HETATM   26  O5  UNL     1       5.953  48.383   2.589  1.00  0.00    -0.358 OA
ATOM     27  H5  UNL     1       6.033  48.014   1.717  1.00  0.00     0.217 HD
ENDBRANCH  22  26
ENDBRANCH  11  18
TORSDOF 4
ENDMDL