MODEL 1
REMARK VINA RESULT: -9.854353429      0.000      0.000
REMARK  3 active torsions:
REMARK  status: ('A' for Active; 'I' for Inactive)
REMARK    1  A    between atoms: C6_7  and  C7_8
REMARK    2  A    between atoms: C10_11  and  C11_12
REMARK    3  A    between atoms: C15_17  and  O2_18
ROOT
HETATM    1  N1  UNL     1       3.514  60.201   1.999  1.00  0.00    -0.191 NA
HETATM    2  C1  UNL     1       4.508  59.887   1.499  1.00  0.00     0.099 C
HETATM    3  C2  UNL     1       5.746  59.500   0.881  1.00  0.00     0.045 A
HETATM    4  C3  UNL     1       6.432  60.470   0.184  1.00  0.00     0.023 A
HETATM    5  C4  UNL     1       7.620  60.119  -0.416  1.00  0.00     0.002 A
HETATM    6  C5  UNL     1       8.118  58.812  -0.322  1.00  0.00     0.014 A
HETATM    7  C6  UNL     1       7.432  57.848   0.372  1.00  0.00    -0.001 A
HETATM    8  C20 UNL     1       6.250  58.217   0.963  1.00  0.00     0.037 A
ENDROOT
BRANCH   7   9
HETATM    9  C7  UNL     1       7.926  56.477   0.487  1.00  0.00     0.086 A
HETATM   10  C8  UNL     1       9.248  56.105   0.728  1.00  0.00     0.041 A
HETATM   11  C9  UNL     1       9.226  54.730   0.751  1.00  0.00     0.040 A
HETATM   12  C10 UNL     1       7.940  54.283   0.534  1.00  0.00     0.079 A
HETATM   13  O4  UNL     1       7.214  55.395   0.383  1.00  0.00    -0.310 OA
BRANCH  12  14
HETATM   14  C11 UNL     1       7.400  52.936   0.468  1.00  0.00     0.080 C
HETATM   15  C12 UNL     1       6.849  52.207   1.399  1.00  0.00     0.146 A
HETATM   16  O1  UNL     1       6.424  50.906   1.014  1.00  0.00    -0.303 OA
HETATM   17  C19 UNL     1       6.639  52.622   2.764  1.00  0.00     0.280 A
HETATM   18  C13 UNL     1       5.831  50.053   1.897  1.00  0.00     0.105 A
HETATM   19  C14 UNL     1       5.431  48.779   1.464  1.00  0.00     0.076 A
HETATM   20  C18 UNL     1       5.628  50.437   3.195  1.00  0.00     0.069 A
HETATM   21  C15 UNL     1       4.840  47.906   2.314  1.00  0.00     0.068 A
HETATM   22  C16 UNL     1       4.629  48.278   3.626  1.00  0.00     0.039 A
HETATM   23  C17 UNL     1       5.025  49.542   4.056  1.00  0.00     0.035 A
HETATM   24  N2  UNL     1       6.014  51.711   3.682  1.00  0.00    -0.319 N
ATOM     25  H2  UNL     1       5.853  51.972   4.655  1.00  0.00     0.169 HD
HETATM   26  O3  UNL     1       6.989  53.754   3.148  1.00  0.00    -0.265 OA
BRANCH  21  27
HETATM   27  O2  UNL     1       4.442  46.635   1.878  1.00  0.00    -0.361 OA
ATOM     28  H2  UNL     1       4.846  46.233   1.119  1.00  0.00     0.217 HD
ENDBRANCH  21  27
ENDBRANCH  12  14
ENDBRANCH   7   9
TORSDOF 3
ENDMDL