MODEL 5
REMARK VINA RESULT: -7.938880501      1.773      2.012
REMARK  3 active torsions:
REMARK  status: ('A' for Active; 'I' for Inactive)
REMARK    1  A    between atoms: C2_2  and  N1_4
REMARK    2  A    between atoms: N1_4  and  C3_6
REMARK    3  A    between atoms: C3_6  and  C4_7
ROOT
HETATM    1  C4  UNL     1       7.913  51.244   2.105  1.00  0.00     0.003 C
HETATM    2  C5  UNL     1       8.711  52.436   2.584  1.00  0.00     0.009 C
HETATM    3  C6  UNL     1       8.671  53.559   1.611  1.00  0.00     0.044 C
HETATM    4  C7  UNL     1       7.273  54.013   1.286  1.00  0.00     0.120 C
HETATM    5  C8  UNL     1       6.476  52.783   0.883  1.00  0.00     0.044 C
HETATM    6  C9  UNL     1       6.470  51.729   1.963  1.00  0.00     0.009 C
HETATM    7  C10 UNL     1       6.687  54.688   2.479  1.00  0.00     0.251 C
HETATM    8  O1  UNL     1       6.997  56.011   2.614  1.00  0.00    -0.235 OA
HETATM    9  O2  UNL     1       7.850  56.481   1.764  1.00  0.00    -0.198 OA
HETATM   10  C11 UNL     1       7.097  56.947   0.659  1.00  0.00     0.229 C
HETATM   11  C12 UNL     1       8.033  57.273  -0.463  1.00  0.00     0.074 C
HETATM   12  C13 UNL     1       8.991  58.358  -0.089  1.00  0.00     0.006 C
HETATM   13  C14 UNL     1       8.474  59.683  -0.579  1.00  0.00     0.000 C
HETATM   14  C15 UNL     1       7.265  60.149   0.193  1.00  0.00     0.000 C
HETATM   15  C16 UNL     1       6.111  59.185   0.092  1.00  0.00     0.006 C
HETATM   16  C17 UNL     1       6.231  58.065   1.094  1.00  0.00     0.074 C
HETATM   17  O3  UNL     1       6.366  55.802   0.259  1.00  0.00    -0.197 OA
HETATM   18  O4  UNL     1       7.282  54.849   0.171  1.00  0.00    -0.224 OA
ENDROOT
BRANCH   1  19
HETATM   19  C3  UNL     1       7.934  50.154   3.133  1.00  0.00     0.124 C
BRANCH  19  20
HETATM   20  N1  UNL     1       8.007  48.863   2.451  1.00  0.00    -0.384 N
ATOM     21  H1  UNL     1       7.219  48.538   1.890  1.00  0.00     0.160 HD
BRANCH  20  22
HETATM   22  C2  UNL     1       9.171  48.061   2.568  1.00  0.00     0.069 C
HETATM   23  C1  UNL     1      10.423  48.459   1.882  1.00  0.00     0.081 C
HETATM   24  S1  UNL     1       9.155  46.695   3.452  1.00  0.00    -0.066 SA
ENDBRANCH  20  22
ENDBRANCH  19  20
ENDBRANCH   1  19
TORSDOF 3
ENDMDL