MODEL 2
REMARK VINA RESULT: -9.541254056      1.014      1.747
REMARK  5 active torsions:
REMARK  status: ('A' for Active; 'I' for Inactive)
REMARK    1  A    between atoms: C3_4  and  C4_5
REMARK    2  A    between atoms: C5_6  and  C6_7
REMARK    3  A    between atoms: C6_7  and  O1_8
REMARK    4  A    between atoms: C6_7  and  C7_10
REMARK    5  A    between atoms: C13_18  and  C14_19
ROOT
HETATM    1  C14 UNL     1       5.277  50.640   2.470  1.00  0.00    -0.006 A
HETATM    2  C15 UNL     1       5.000  50.061   3.693  1.00  0.00     0.015 A
HETATM    3  C16 UNL     1       4.304  48.862   3.757  1.00  0.00     0.025 A
HETATM    4  C17 UNL     1       3.883  48.235   2.614  1.00  0.00     0.068 A
HETATM    5  C18 UNL     1       3.152  46.978   2.652  1.00  0.00     0.101 C
HETATM    6  N2  UNL     1       2.581  45.973   2.675  1.00  0.00    -0.191 NA
HETATM    7  C19 UNL     1       4.172  48.834   1.404  1.00  0.00     0.068 A
HETATM    8  N3  UNL     1       3.758  48.227   0.186  1.00  0.00    -0.101 NA
HETATM    9  C20 UNL     1       4.870  50.038   1.321  1.00  0.00     0.042 A
ENDROOT
BRANCH   1  10
HETATM   10  C13 UNL     1       6.029  51.928   2.402  1.00  0.00     0.056 A
HETATM   11  C2  UNL     1       7.392  51.988   2.558  1.00  0.00     0.009 A
HETATM   12  C1  UNL     1       8.350  50.859   2.811  1.00  0.00     0.059 C
HETATM   13  S1  UNL     1       7.686  53.664   2.385  1.00  0.00    -0.066 SA
HETATM   14  C3  UNL     1       6.084  54.182   2.128  1.00  0.00     0.130 A
HETATM   15  N1  UNL     1       5.406  53.053   2.187  1.00  0.00    -0.342 N
ATOM     16  H1  UNL     1       4.394  53.060   2.064  1.00  0.00     0.167 HD
BRANCH  14  17
HETATM   17  C4  UNL     1       5.546  55.518   1.896  1.00  0.00    -0.038 C
HETATM   18  C5  UNL     1       5.107  56.614   1.684  1.00  0.00    -0.062 C
BRANCH  18  19
HETATM   19  C6  UNL     1       4.578  57.955   1.401  1.00  0.00     0.230 C
BRANCH  19  20
HETATM   20  O1  UNL     1       4.169  58.597   2.591  1.00  0.00    -0.379 OA
ATOM     21  H1  UNL     1       3.595  59.330   2.401  1.00  0.00     0.211 HD
ENDBRANCH  19  20
BRANCH  19  22
HETATM   22  C7  UNL     1       5.656  58.758   0.828  1.00  0.00    -0.018 A
HETATM   23  C8  UNL     1       5.608  60.127   0.838  1.00  0.00     0.011 A
HETATM   24  C9  UNL     1       6.657  60.848   0.281  1.00  0.00     0.001 A
HETATM   25  C10 UNL     1       7.743  60.235  -0.282  1.00  0.00     0.000 A
HETATM   26  C11 UNL     1       7.771  58.861  -0.281  1.00  0.00     0.001 A
HETATM   27  C12 UNL     1       6.738  58.126   0.268  1.00  0.00     0.011 A
ENDBRANCH  19  22
ENDBRANCH  18  19
ENDBRANCH  14  17
ENDBRANCH   1  10
TORSDOF 5
ENDMDL