MODEL 5
REMARK VINA RESULT: -10.210392855      1.645      2.884
REMARK  3 active torsions:
REMARK  status: ('A' for Active; 'I' for Inactive)
REMARK    1  A    between atoms: C4_7  and  N3_8
REMARK    2  A    between atoms: N3_8  and  C5_10
REMARK    3  A    between atoms: C13_23  and  C14_24
ROOT
HETATM    1  N1  UNL     1      10.172  57.713  -1.026  1.00  0.00    -0.190 NA
HETATM    2  C1  UNL     1       9.331  57.106  -0.517  1.00  0.00     0.118 C
HETATM    3  C2  UNL     1       8.266  56.361   0.139  1.00  0.00     0.128 A
HETATM    4  N2  UNL     1       8.285  55.038   0.360  1.00  0.00    -0.341 N
ATOM      5  H2  UNL     1       9.050  54.421   0.089  1.00  0.00     0.167 HD
HETATM    6  C3  UNL     1       7.167  54.630   0.983  1.00  0.00     0.117 A
HETATM    7  C4  UNL     1       6.452  53.580   1.519  1.00  0.00     0.156 A
HETATM    8  N4  UNL     1       5.318  54.117   1.987  1.00  0.00    -0.242 N
ATOM      9  H4  UNL     1       4.568  53.600   2.447  1.00  0.00     0.196 HD
HETATM   10  O3  UNL     1       5.318  55.399   1.765  1.00  0.00    -0.233 OA
HETATM   11  C12 UNL     1       6.408  55.793   1.158  1.00  0.00     0.143 A
HETATM   12  C13 UNL     1       7.085  56.873   0.635  1.00  0.00     0.050 A
ENDROOT
BRANCH  12  13
HETATM   13  C14 UNL     1       6.624  58.254   0.622  1.00  0.00    -0.020 A
HETATM   14  C15 UNL     1       7.337  59.272  -0.010  1.00  0.00     0.012 A
HETATM   15  C16 UNL     1       6.896  60.567  -0.019  1.00  0.00     0.001 A
HETATM   16  C17 UNL     1       5.701  60.881   0.622  1.00  0.00     0.000 A
HETATM   17  C18 UNL     1       4.975  59.892   1.256  1.00  0.00     0.001 A
HETATM   18  C19 UNL     1       5.434  58.592   1.254  1.00  0.00     0.012 A
ENDBRANCH  12  13
BRANCH   7  19
HETATM   19  N3  UNL     1       6.807  52.350   1.557  1.00  0.00    -0.339 N
ATOM     20  H3  UNL     1       7.800  52.134   1.462  1.00  0.00     0.167 HD
BRANCH  19  21
HETATM   21  C5  UNL     1       5.910  51.274   1.723  1.00  0.00     0.036 A
HETATM   22  C6  UNL     1       5.621  50.758   2.982  1.00  0.00     0.032 A
HETATM   23  C7  UNL     1       4.739  49.700   3.140  1.00  0.00     0.042 A
HETATM   24  C8  UNL     1       4.128  49.133   2.046  1.00  0.00     0.105 A
HETATM   25  C9  UNL     1       4.390  49.618   0.785  1.00  0.00     0.107 A
HETATM   26  O2  UNL     1       3.217  48.083   1.882  1.00  0.00    -0.323 OA
HETATM   27  C10 UNL     1       5.281  50.685   0.649  1.00  0.00     0.069 A
HETATM   28  O1  UNL     1       3.651  48.876  -0.126  1.00  0.00    -0.323 OA
HETATM   29  C11 UNL     1       3.115  47.734   0.516  1.00  0.00     0.352 C
ENDBRANCH  19  21
ENDBRANCH   7  19
TORSDOF 3
ENDMDL