MODEL 3
REMARK VINA RESULT: -7.472516941      2.329      6.020
REMARK  4 active torsions:
REMARK  status: ('A' for Active; 'I' for Inactive)
REMARK    1  A    between atoms: C2_2  and  O1_3
REMARK    2  A    between atoms: C2_2  and  C3_5
REMARK    3  A    between atoms: C3_5  and  O2_6
REMARK    4  A    between atoms: C3_5  and  C4_8
ROOT
HETATM    1  C4  UNL     1       4.603  48.062   3.752  1.00  0.00     0.029 C
HETATM    2  C5  UNL     1       4.129  47.398   5.037  1.00  0.00     0.017 C
HETATM    3  C6  UNL     1       4.929  46.125   5.207  1.00  0.00    -0.047 C
HETATM    4  C7  UNL     1       4.132  45.075   5.957  1.00  0.00     0.015 C
HETATM    5  C8  UNL     1       6.163  46.425   6.052  1.00  0.00     0.015 C
HETATM    6  C9  UNL     1       5.448  45.612   3.894  1.00  0.00     0.015 C
HETATM    7  C10 UNL     1       4.527  45.866   2.733  1.00  0.00     0.007 C
HETATM    8  C11 UNL     1       3.308  45.007   2.915  1.00  0.00     0.082 C
HETATM    9  S1  UNL     1       2.456  45.004   1.296  1.00  0.00    -0.134 SA
HETATM   10  C12 UNL     1       2.576  46.747   0.739  1.00  0.00     0.216 C
HETATM   11  O3  UNL     1       1.229  47.143   0.550  1.00  0.00    -0.338 OA
HETATM   12  C13 UNL     1       0.739  47.324   1.841  1.00  0.00     0.159 C
HETATM   13  C14 UNL     1      -0.082  48.609   1.904  1.00  0.00     0.078 C
HETATM   14  C15 UNL     1      -0.124  46.194   2.312  1.00  0.00     0.078 C
HETATM   15  O4  UNL     1       1.816  47.436   2.706  1.00  0.00    -0.346 OA
HETATM   16  C16 UNL     1       2.918  47.625   1.923  1.00  0.00     0.173 C
HETATM   17  C17 UNL     1       4.240  47.332   2.514  1.00  0.00    -0.004 C
HETATM   18  C18 UNL     1       5.264  47.788   1.447  1.00  0.00     0.019 C
ENDROOT
BRANCH   1  19
HETATM   19  C3  UNL     1       4.468  49.527   3.811  1.00  0.00     0.151 C
BRANCH  19  20
HETATM   20  C2  UNL     1       5.513  50.368   4.402  1.00  0.00     0.143 C
HETATM   21  C1  UNL     1       6.846  49.922   3.757  1.00  0.00     0.042 C
BRANCH  20  22
HETATM   22  O1  UNL     1       5.728  50.210   5.763  1.00  0.00    -0.393 OA
ATOM     23  H1  UNL     1       6.343  50.900   5.981  1.00  0.00     0.210 HD
ENDBRANCH  20  22
ENDBRANCH  19  20
BRANCH  19  24
HETATM   24  O2  UNL     1       3.251  49.860   4.421  1.00  0.00    -0.393 OA
ATOM     25  H2  UNL     1       3.046  49.181   5.053  1.00  0.00     0.210 HD
ENDBRANCH  19  24
ENDBRANCH   1  19
TORSDOF 4
ENDMDL