MODEL 3
REMARK VINA RESULT: -9.360644435      6.685      9.440
REMARK  3 active torsions:
REMARK  status: ('A' for Active; 'I' for Inactive)
REMARK    1  A    between atoms: C2_3  and  C3_4
REMARK    2  A    between atoms: C3_4  and  C4_5
REMARK    3  A    between atoms: C13_14  and  O1_15
ROOT
HETATM    1  N1  UNL     1       3.229  49.757   3.560  1.00  0.00    -0.195 NA
HETATM    2  C1  UNL     1       3.498  49.072   2.636  1.00  0.00     0.090 C
HETATM    3  C2  UNL     1       3.892  48.218   1.486  1.00  0.00     0.197 C
HETATM    4  C14 UNL     1       5.065  47.438   1.895  1.00  0.00     0.153 C
HETATM    5  N2  UNL     1       5.336  46.220   1.837  1.00  0.00    -0.381 N
ATOM      6  H21 UNL     1       6.151  45.678   2.122  1.00  0.00     0.158 HD
ATOM      7  H22 UNL     1       4.594  45.655   1.424  1.00  0.00     0.158 HD
HETATM    8  O2  UNL     1       6.105  48.229   2.473  1.00  0.00    -0.295 OA
HETATM    9  C15 UNL     1       6.376  49.526   2.093  1.00  0.00     0.091 A
HETATM   10  C16 UNL     1       7.392  50.295   2.643  1.00  0.00     0.038 A
HETATM   11  C17 UNL     1       7.602  51.590   2.200  1.00  0.00     0.003 A
HETATM   12  C18 UNL     1       6.808  52.145   1.203  1.00  0.00     0.001 A
HETATM   13  C19 UNL     1       5.800  51.397   0.652  1.00  0.00     0.018 A
HETATM   14  C20 UNL     1       5.591  50.081   1.107  1.00  0.00     0.046 A
HETATM   15  C21 UNL     1       4.536  49.269   0.546  1.00  0.00     0.197 C
HETATM   16  O3  UNL     1       4.144  49.381  -0.614  1.00  0.00    -0.289 OA
ENDROOT
BRANCH   3  17
HETATM   17  C3  UNL     1       2.783  47.608   0.781  1.00  0.00     0.028 C
BRANCH  17  18
HETATM   18  C4  UNL     1       1.391  47.808   1.076  1.00  0.00    -0.003 A
HETATM   19  C5  UNL     1       0.731  46.898   1.875  1.00  0.00     0.026 A
HETATM   20  C6  UNL     1      -0.592  47.025   2.212  1.00  0.00    -0.025 A
HETATM   21  C7  UNL     1      -1.247  46.106   3.017  1.00  0.00     0.012 A
HETATM   22  C11 UNL     1      -1.334  48.103   1.750  1.00  0.00    -0.023 A
HETATM   23  C8  UNL     1      -2.581  46.242   3.353  1.00  0.00     0.001 A
HETATM   24  C9  UNL     1      -3.311  47.317   2.889  1.00  0.00     0.001 A
HETATM   25  C10 UNL     1      -2.659  48.238   2.085  1.00  0.00     0.012 A
HETATM   26  C12 UNL     1      -0.665  48.999   0.956  1.00  0.00     0.049 A
HETATM   27  C13 UNL     1       0.662  48.875   0.613  1.00  0.00     0.076 A
BRANCH  27  28
HETATM   28  O1  UNL     1       1.200  49.859  -0.207  1.00  0.00    -0.360 OA
ATOM     29  H1  UNL     1       0.713  50.627  -0.480  1.00  0.00     0.217 HD
ENDBRANCH  27  28
ENDBRANCH  17  18
ENDBRANCH   3  17
TORSDOF 3
ENDMDL