MODEL 4
REMARK VINA RESULT: -10.023605014      2.270      3.536
REMARK  2 active torsions:
REMARK  status: ('A' for Active; 'I' for Inactive)
REMARK    1  A    between atoms: C3_4  and  C4_5
REMARK    2  A    between atoms: C9_11  and  C10_12
ROOT
HETATM    1  N1  UNL     1       7.117  49.141   1.723  1.00  0.00    -0.191 NA
HETATM    2  C1  UNL     1       7.101  50.277   1.676  1.00  0.00     0.104 C
HETATM    3  C2  UNL     1       7.041  51.701   1.587  1.00  0.00     0.099 A
HETATM    4  C3  UNL     1       8.107  52.472   1.298  1.00  0.00     0.008 A
HETATM    5  C8  UNL     1       7.893  53.846   1.159  1.00  0.00     0.045 A
HETATM    6  C9  UNL     1       6.652  54.450   1.303  1.00  0.00     0.051 A
HETATM    7  N2  UNL     1       5.640  53.625   1.593  1.00  0.00    -0.341 N
ATOM      8  H2  UNL     1       4.710  54.028   1.710  1.00  0.00     0.167 HD
HETATM    9  C19 UNL     1       5.778  52.282   1.740  1.00  0.00     0.121 A
HETATM   10  N3  UNL     1       4.742  51.568   2.019  1.00  0.00    -0.384 N
ATOM     11  H31 UNL     1       3.821  51.992   2.130  1.00  0.00     0.157 HD
ATOM     12  H32 UNL     1       4.846  50.559   2.129  1.00  0.00     0.157 HD
ENDROOT
BRANCH   4  13
HETATM   13  C4  UNL     1       9.496  51.985   1.200  1.00  0.00     0.016 A
HETATM   14  C5  UNL     1      10.567  51.999   2.024  1.00  0.00     0.020 A
HETATM   15  C6  UNL     1      11.733  51.507   1.567  1.00  0.00     0.008 A
HETATM   16  C7  UNL     1      11.767  51.023   0.296  1.00  0.00     0.050 A
HETATM   17  S1  UNL     1      10.177  51.261  -0.239  1.00  0.00    -0.101 SA
ENDBRANCH   4  13
BRANCH   6  18
HETATM   18  C10 UNL     1       6.479  55.873   1.105  1.00  0.00     0.067 A
HETATM   19  C11 UNL     1       7.526  56.567   0.481  1.00  0.00     0.034 A
HETATM   20  C12 UNL     1       7.349  57.919   0.254  1.00  0.00    -0.001 A
HETATM   21  C13 UNL     1       8.370  58.657  -0.369  1.00  0.00     0.014 A
HETATM   22  C17 UNL     1       6.178  58.525   0.641  1.00  0.00     0.089 A
HETATM   23  C14 UNL     1       8.225  59.999  -0.607  1.00  0.00     0.001 A
HETATM   24  C15 UNL     1       7.059  60.618  -0.225  1.00  0.00     0.003 A
HETATM   25  C16 UNL     1       6.064  59.889   0.385  1.00  0.00     0.038 A
HETATM   26  O1  UNL     1       5.206  57.867   1.223  1.00  0.00    -0.274 OA
HETATM   27  C18 UNL     1       5.345  56.554   1.458  1.00  0.00     0.300 A
HETATM   28  O2  UNL     1       4.357  56.010   2.019  1.00  0.00    -0.259 OA
ENDBRANCH   6  18
TORSDOF 2
ENDMDL