MODEL 5
REMARK VINA RESULT: -8.988999154     10.245     14.070
REMARK  3 active torsions:
REMARK  status: ('A' for Active; 'I' for Inactive)
REMARK    1  A    between atoms: C7_8  and  N2_9
REMARK    2  A    between atoms: C9_14  and  C10_15
REMARK    3  A    between atoms: C14_19  and  O1_20
ROOT
HETATM    1  N1  UNL     1       6.195  52.619   0.712  1.00  0.00    -0.191 NA
HETATM    2  C1  UNL     1       7.324  52.799   0.877  1.00  0.00     0.102 C
HETATM    3  C2  UNL     1       8.748  53.045   1.061  1.00  0.00     0.071 A
HETATM    4  C3  UNL     1       9.620  51.977   1.037  1.00  0.00     0.025 A
HETATM    5  C4  UNL     1      10.973  52.163   1.208  1.00  0.00     0.002 A
HETATM    6  C5  UNL     1      11.434  53.446   1.404  1.00  0.00     0.002 A
HETATM    7  C6  UNL     1      10.579  54.527   1.432  1.00  0.00     0.031 A
HETATM    8  C7  UNL     1       9.233  54.313   1.259  1.00  0.00     0.070 A
ENDROOT
BRANCH   8   9
HETATM    9  N2  UNL     1       8.326  55.400   1.282  1.00  0.00    -0.190 N
HETATM   10  C8  UNL     1       8.475  56.470   0.576  1.00  0.00     0.688 C
HETATM   11  N3  UNL     1       9.584  56.636  -0.297  1.00  0.00    -0.200 N
HETATM   12  N5  UNL     1       7.507  57.539   0.651  1.00  0.00    -0.143 N
HETATM   13  C9  UNL     1       9.476  57.563  -1.396  1.00  0.00     0.234 C
ATOM     14  H3  UNL     1      10.444  56.108  -0.147  1.00  0.00     0.180 HD
HETATM   15  N4  UNL     1       8.825  58.758  -0.962  1.00  0.00    -0.350 N
HETATM   16  C16 UNL     1       7.695  58.639  -0.101  1.00  0.00     0.126 A
ATOM     17  H4  UNL     1       9.160  59.674  -1.260  1.00  0.00     0.163 HD
HETATM   18  C17 UNL     1       6.739  59.637   0.007  1.00  0.00     0.049 A
HETATM   19  C18 UNL     1       5.647  59.515   0.841  1.00  0.00     0.005 A
HETATM   20  C19 UNL     1       5.479  58.380   1.599  1.00  0.00     0.018 A
HETATM   21  C20 UNL     1       6.454  57.386   1.476  1.00  0.00     0.117 A
ATOM     22  H2  UNL     1       7.510  55.334   1.890  1.00  0.00     0.184 HD
BRANCH  13  23
HETATM   23  C10 UNL     1      10.778  57.816  -2.048  1.00  0.00    -0.013 A
HETATM   24  C11 UNL     1      11.497  56.779  -2.647  1.00  0.00     0.011 A
HETATM   25  C12 UNL     1      12.711  56.978  -3.261  1.00  0.00     0.003 A
HETATM   26  C13 UNL     1      13.256  58.244  -3.298  1.00  0.00     0.036 A
HETATM   27  C14 UNL     1      12.570  59.312  -2.710  1.00  0.00     0.066 A
HETATM   28  C15 UNL     1      11.350  59.071  -2.101  1.00  0.00     0.047 A
BRANCH  27  29
HETATM   29  O1  UNL     1      13.163  60.549  -2.779  1.00  0.00    -0.361 OA
ATOM     30  H1  UNL     1      13.383  60.969  -1.956  1.00  0.00     0.217 HD
ENDBRANCH  27  29
ENDBRANCH  13  23
ENDBRANCH   8   9
TORSDOF 3
ENDMDL