MODEL 4
REMARK VINA RESULT: -7.292805099      6.218     10.448
REMARK  2 active torsions:
REMARK  status: ('A' for Active; 'I' for Inactive)
REMARK    1  A    between atoms: C5_5  and  C6_6
REMARK    2  A    between atoms: C8_12  and  C9_13
ROOT
HETATM    1  C6  UNL     1       0.864  46.354   1.623  1.00  0.00     0.053 A
HETATM    2  N1  UNL     1      -0.235  45.907   2.159  1.00  0.00    -0.316 N
ATOM      3  H1  UNL     1      -0.307  44.938   2.468  1.00  0.00     0.170 HD
HETATM    4  C7  UNL     1      -1.268  46.749   2.299  1.00  0.00     0.289 A
HETATM    5  O1  UNL     1      -2.416  46.471   2.802  1.00  0.00    -0.260 OA
HETATM    6  S1  UNL     1      -0.672  48.203   1.659  1.00  0.00    -0.027 SA
HETATM    7  C8  UNL     1       0.889  47.673   1.235  1.00  0.00     0.037 A
ENDROOT
BRANCH   7   8
HETATM    8  C9  UNL     1       2.016  48.387   0.593  1.00  0.00     0.034 C
HETATM    9  C10 UNL     1       2.889  49.063   1.295  1.00  0.00     0.018 C
HETATM   10  C11 UNL     1       2.974  49.271   2.760  1.00  0.00     0.114 C
HETATM   11  C13 UNL     1       4.045  49.795   0.749  1.00  0.00     0.253 C
HETATM   12  C12 UNL     1       4.393  49.645   3.028  1.00  0.00     0.084 C
HETATM   13  S2  UNL     1       5.084  49.476   4.493  1.00  0.00    -0.065 SA
HETATM   14  N2  UNL     1       4.926  50.128   1.811  1.00  0.00    -0.317 N
ATOM     15  H2  UNL     1       5.805  50.636   1.712  1.00  0.00     0.169 HD
HETATM   16  O2  UNL     1       4.224  50.078  -0.456  1.00  0.00    -0.268 OA
ENDBRANCH   7   8
BRANCH   1  17
HETATM   17  C5  UNL     1       2.078  45.519   1.398  1.00  0.00     0.039 C
HETATM   18  C4  UNL     1       2.982  45.253   2.319  1.00  0.00    -0.045 C
HETATM   19  C3  UNL     1       3.054  45.655   3.700  1.00  0.00     0.021 C
HETATM   20  C14 UNL     1       4.175  44.386   1.929  1.00  0.00     0.117 C
HETATM   21  C2  UNL     1       3.710  44.872   4.518  1.00  0.00    -0.025 C
HETATM   22  C1  UNL     1       3.931  45.049   5.953  1.00  0.00     0.056 C
HETATM   23  S3  UNL     1       4.328  43.514   3.547  1.00  0.00    -0.130 SA
ENDBRANCH   1  17
TORSDOF 2
ENDMDL