MODEL 5
REMARK VINA RESULT: -8.933341378      4.258      6.747
REMARK  4 active torsions:
REMARK  status: ('A' for Active; 'I' for Inactive)
REMARK    1  A    between atoms: N1_5  and  C5_6
REMARK    2  A    between atoms: C8_9  and  C9_10
REMARK    3  A    between atoms: C13_17  and  C14_18
REMARK    4  A    between atoms: C14_18  and  C15_19
ROOT
HETATM    1  C1  UNL     1       3.745  60.144   1.706  1.00  0.00     0.024 C
HETATM    2  C2  UNL     1       4.833  59.945   1.018  1.00  0.00    -0.029 A
HETATM    3  C3  UNL     1       5.477  61.124   0.599  1.00  0.00     0.029 A
HETATM    4  C4  UNL     1       6.633  61.018  -0.134  1.00  0.00     0.101 A
HETATM    5  N1  UNL     1       7.127  59.814  -0.437  1.00  0.00    -0.289 N
HETATM    6  C12 UNL     1       6.539  58.682  -0.057  1.00  0.00     0.263 A
HETATM    7  O3  UNL     1       7.071  57.554  -0.386  1.00  0.00    -0.267 OA
HETATM    8  C13 UNL     1       5.351  58.716   0.698  1.00  0.00     0.043 A
ENDROOT
BRANCH   8   9
HETATM    9  C14 UNL     1       4.854  57.584   1.021  1.00  0.00     0.029 C
BRANCH   9  10
HETATM   10  C15 UNL     1       5.303  56.321   1.544  1.00  0.00    -0.034 A
HETATM   11  C16 UNL     1       6.307  56.236   2.519  1.00  0.00     0.014 A
HETATM   12  C17 UNL     1       6.758  55.013   2.963  1.00  0.00     0.031 A
HETATM   13  C18 UNL     1       6.235  53.830   2.463  1.00  0.00     0.045 A
HETATM   14  N2  UNL     1       6.678  52.639   2.900  1.00  0.00    -0.323 N
HETATM   15  C22 UNL     1       5.248  53.877   1.505  1.00  0.00    -0.008 A
HETATM   16  C19 UNL     1       6.182  51.481   2.425  1.00  0.00     0.245 A
ATOM     17  H2  UNL     1       7.409  52.611   3.611  1.00  0.00     0.169 HD
HETATM   18  O4  UNL     1       6.628  50.383   2.865  1.00  0.00    -0.268 OA
HETATM   19  C20 UNL     1       5.187  51.463   1.460  1.00  0.00     0.075 A
HETATM   20  C21 UNL     1       4.729  52.684   1.009  1.00  0.00     0.019 A
HETATM   21  C23 UNL     1       4.809  55.101   1.073  1.00  0.00     0.025 A
ENDBRANCH   9  10
ENDBRANCH   8   9
BRANCH   5  22
HETATM   22  C5  UNL     1       8.320  59.718  -1.193  1.00  0.00     0.042 A
HETATM   23  C6  UNL     1       8.763  60.793  -1.925  1.00  0.00     0.031 A
HETATM   24  C7  UNL     1       9.938  60.708  -2.675  1.00  0.00     0.020 A
HETATM   25  C8  UNL     1      10.649  59.528  -2.671  1.00  0.00     0.041 A
HETATM   26  C10 UNL     1      10.212  58.435  -1.935  1.00  0.00     0.020 A
HETATM   27  C11 UNL     1       9.042  58.560  -1.206  1.00  0.00     0.031 A
BRANCH  25  28
HETATM   28  C9  UNL     1      11.867  59.422  -3.441  1.00  0.00     0.209 C
HETATM   29  O1  UNL     1      12.675  60.365  -3.464  1.00  0.00    -0.644 OA
HETATM   30  O2  UNL     1      12.139  58.268  -4.156  1.00  0.00    -0.644 OA
ENDBRANCH  25  28
ENDBRANCH   5  22
TORSDOF 4
ENDMDL