MODEL 2
REMARK VINA RESULT: -9.079224567      0.847      1.548
REMARK  5 active torsions:
REMARK  status: ('A' for Active; 'I' for Inactive)
REMARK    1  A    between atoms: O1_1  and  C1_3
REMARK    2  A    between atoms: C1_3  and  N1_4
REMARK    3  A    between atoms: C1_3  and  C12_26
REMARK       I    between atoms: N1_4  and  C2_6
REMARK       I    between atoms: C2_6  and  N2_7
REMARK       I    between atoms: C2_6  and  N4_17
REMARK    4  A    between atoms: N4_17  and  C5_19
REMARK    5  A    between atoms: C5_19  and  C6_20
ROOT
HETATM    1  N1  UNL     1       8.879  55.384   1.529  1.00  0.00    -0.308 N
ATOM      2  H1  UNL     1       8.705  56.387   1.478  1.00  0.00     0.171 HD
HETATM    3  C2  UNL     1       9.867  55.301   1.059  1.00  0.00     0.187 C
HETATM    4  N2  UNL     1      11.040  54.786   0.565  1.00  0.00    -0.308 N
ATOM      5  H2  UNL     1      11.793  55.473   0.607  1.00  0.00     0.171 HD
HETATM    6  C3  UNL     1      11.438  53.704   0.078  1.00  0.00     0.157 C
HETATM    7  N3  UNL     1      12.788  53.526  -0.343  1.00  0.00    -0.263 N
ATOM      8  H3  UNL     1      13.424  54.300  -0.532  1.00  0.00     0.180 HD
HETATM    9  S1  UNL     1      13.230  51.892  -0.499  1.00  0.00     0.241 S
HETATM   10  O2  UNL     1      13.854  51.389   0.781  1.00  0.00    -0.205 OA
HETATM   11  O3  UNL     1      14.164  51.681  -1.676  1.00  0.00    -0.205 OA
HETATM   12  C4  UNL     1      11.698  51.057  -0.762  1.00  0.00     0.245 C
HETATM   13  S2  UNL     1      10.473  52.242  -0.164  1.00  0.00    -0.076 SA
HETATM   14  N4  UNL     1      10.117  56.883   0.604  1.00  0.00    -0.337 N
ATOM     15  H4  UNL     1      10.715  57.557   1.081  1.00  0.00     0.168 HD
ENDROOT
BRANCH   1  16
HETATM   16  C1  UNL     1       7.744  54.931   2.144  1.00  0.00     0.153 C
BRANCH  16  17
HETATM   17  O1  UNL     1       7.449  55.553   3.307  1.00  0.00    -0.345 OA
ATOM     18  H1  UNL     1       7.451  56.501   3.258  1.00  0.00     0.219 HD
ENDBRANCH  16  17
BRANCH  16  19
HETATM   19  C12 UNL     1       6.774  53.925   1.824  1.00  0.00     0.015 A
HETATM   20  C13 UNL     1       6.995  52.580   2.126  1.00  0.00     0.016 A
HETATM   21  C14 UNL     1       6.085  51.582   1.864  1.00  0.00     0.001 A
HETATM   22  C15 UNL     1       4.886  51.862   1.278  1.00  0.00     0.000 A
HETATM   23  C16 UNL     1       4.622  53.187   0.956  1.00  0.00     0.001 A
HETATM   24  C17 UNL     1       5.561  54.188   1.230  1.00  0.00     0.016 A
ENDBRANCH  16  19
ENDBRANCH   1  16
BRANCH  14  25
HETATM   25  C5  UNL     1       9.362  57.127  -0.550  1.00  0.00     0.102 C
BRANCH  25  26
HETATM   26  C6  UNL     1       8.358  58.186  -0.466  1.00  0.00    -0.021 A
HETATM   27  C7  UNL     1       7.116  57.849   0.101  1.00  0.00     0.013 A
HETATM   28  C8  UNL     1       6.142  58.845   0.204  1.00  0.00     0.001 A
HETATM   29  C9  UNL     1       6.378  60.116  -0.234  1.00  0.00     0.000 A
HETATM   30  C10 UNL     1       7.607  60.397  -0.782  1.00  0.00     0.001 A
HETATM   31  C11 UNL     1       8.612  59.465  -0.913  1.00  0.00     0.013 A
ENDBRANCH  25  26
ENDBRANCH  14  25
TORSDOF 5
ENDMDL