MODEL 2
REMARK VINA RESULT: -8.227564433      1.234      7.753
REMARK  5 active torsions:
REMARK  status: ('A' for Active; 'I' for Inactive)
REMARK    1  A    between atoms: C3_4  and  C4_5
REMARK    2  A    between atoms: C9_10  and  S1_11
REMARK    3  A    between atoms: S1_11  and  N2_12
REMARK    4  A    between atoms: C16_23  and  S2_24
REMARK    5  A    between atoms: S2_24  and  N3_25
ROOT
HETATM    1  C4  UNL     1       5.570  55.772   1.234  1.00  0.00    -0.013 A
HETATM    2  C5  UNL     1       4.249  55.771   1.683  1.00  0.00     0.013 A
HETATM    3  C6  UNL     1       3.536  56.948   1.690  1.00  0.00     0.002 A
HETATM    4  C7  UNL     1       4.144  58.092   1.257  1.00  0.00     0.014 A
HETATM    5  C8  UNL     1       5.451  58.113   0.809  1.00  0.00    -0.002 A
HETATM    6  C9  UNL     1       6.053  59.264   0.363  1.00  0.00     0.090 A
HETATM    7  C10 UNL     1       7.364  59.230  -0.091  1.00  0.00     0.026 A
HETATM    8  C11 UNL     1       8.088  58.065  -0.109  1.00  0.00     0.002 A
HETATM    9  C12 UNL     1       7.484  56.910   0.340  1.00  0.00     0.013 A
HETATM   10  C13 UNL     1       6.188  56.911   0.797  1.00  0.00    -0.013 A
ENDROOT
BRANCH   1  11
HETATM   11  C3  UNL     1       6.267  54.481   1.306  1.00  0.00    -0.009 A
HETATM   12  C2  UNL     1       7.655  54.478   1.123  1.00  0.00     0.103 A
HETATM   13  N1  UNL     1       8.352  53.340   1.134  1.00  0.00    -0.350 N
HETATM   14  C1  UNL     1       9.783  53.385   0.949  1.00  0.00     0.156 C
HETATM   15  C16 UNL     1       7.730  52.182   1.318  1.00  0.00     0.150 A
HETATM   16  C15 UNL     1       6.338  52.125   1.507  1.00  0.00     0.045 A
HETATM   17  C14 UNL     1       5.612  53.287   1.498  1.00  0.00     0.017 A
BRANCH  15  18
HETATM   18  S2  UNL     1       8.654  50.704   1.319  1.00  0.00     0.272 S
HETATM   19  O3  UNL     1       9.984  50.843   1.993  1.00  0.00    -0.199 OA
HETATM   20  O4  UNL     1       8.797  50.124  -0.084  1.00  0.00    -0.199 OA
BRANCH  18  21
HETATM   21  N3  UNL     1       7.708  49.510   2.181  1.00  0.00    -0.323 N
ATOM     22  H32 UNL     1       8.081  48.769   2.774  1.00  0.00     0.169 HD
ATOM     23  H31 UNL     1       6.727  49.702   1.975  1.00  0.00     0.169 HD
ENDBRANCH  18  21
ENDBRANCH  15  18
ENDBRANCH   1  11
BRANCH   6  24
HETATM   24  S1  UNL     1       5.145  60.757   0.391  1.00  0.00     0.257 S
HETATM   25  O1  UNL     1       4.785  61.136  -1.012  1.00  0.00    -0.201 OA
HETATM   26  O2  UNL     1       6.042  61.824   0.965  1.00  0.00    -0.201 OA
BRANCH  24  27
HETATM   27  N2  UNL     1       3.762  60.632   1.419  1.00  0.00    -0.324 N
ATOM     28  H22 UNL     1       3.585  59.835   2.030  1.00  0.00     0.169 HD
ATOM     29  H21 UNL     1       3.160  61.450   1.332  1.00  0.00     0.169 HD
ENDBRANCH  24  27
ENDBRANCH   6  24
TORSDOF 5
ENDMDL