MODEL 1
REMARK VINA RESULT: -8.387009121      0.000      0.000
REMARK  6 active torsions:
REMARK  status: ('A' for Active; 'I' for Inactive)
REMARK    1  A    between atoms: C4_8  and  C5_9
REMARK    2  A    between atoms: C5_9  and  C6_10
REMARK    3  A    between atoms: C9_13  and  O3_14
REMARK    4  A    between atoms: C10_16  and  O4_17
REMARK    5  A    between atoms: C11_19  and  C12_20
REMARK    6  A    between atoms: C12_20  and  C13_21
ROOT
HETATM    1  C6  UNL     1       9.393  51.670   0.855  1.00  0.00    -0.026 A
HETATM    2  C7  UNL     1       9.226  50.575   0.003  1.00  0.00     0.015 A
HETATM    3  C8  UNL     1       9.964  50.488  -1.135  1.00  0.00     0.040 A
HETATM    4  C9  UNL     1      10.889  51.472  -1.473  1.00  0.00     0.099 A
HETATM    5  C10 UNL     1      11.052  52.544  -0.635  1.00  0.00     0.106 A
HETATM    6  C11 UNL     1      10.306  52.643   0.524  1.00  0.00    -0.008 A
ENDROOT
BRANCH   6   7
HETATM    7  C12 UNL     1      10.527  53.840   1.423  1.00  0.00     0.081 C
BRANCH   7   8
HETATM    8  C13 UNL     1       9.660  54.979   1.072  1.00  0.00    -0.053 A
HETATM    9  C14 UNL     1      10.185  56.082   0.419  1.00  0.00     0.010 A
HETATM   10  C15 UNL     1       9.406  57.201   0.097  1.00  0.00     0.031 A
HETATM   11  C16 UNL     1       8.085  57.237   0.423  1.00  0.00     0.044 A
HETATM   12  C17 UNL     1       7.541  56.151   1.074  1.00  0.00    -0.009 A
HETATM   13  N2  UNL     1       7.349  58.322   0.106  1.00  0.00    -0.354 N
HETATM   14  C18 UNL     1       6.185  56.218   1.395  1.00  0.00     0.015 A
HETATM   15  C23 UNL     1       8.308  55.050   1.391  1.00  0.00     0.021 A
HETATM   16  C19 UNL     1       5.450  57.338   1.062  1.00  0.00     0.025 A
HETATM   17  C20 UNL     1       6.023  58.411   0.409  1.00  0.00     0.007 A
HETATM   18  C21 UNL     1       5.227  59.606   0.055  1.00  0.00     0.068 C
HETATM   19  C22 UNL     1       7.957  59.441  -0.578  1.00  0.00     0.156 C
ENDBRANCH   7   8
ENDBRANCH   6   7
BRANCH   1  20
HETATM   20  C5  UNL     1       8.588  51.763   2.051  1.00  0.00     0.032 C
BRANCH  20  21
HETATM   21  C4  UNL     1       7.466  51.188   2.380  1.00  0.00     0.070 A
HETATM   22  C2  UNL     1       6.161  51.481   2.078  1.00  0.00     0.062 A
HETATM   23  C1  UNL     1       5.681  52.466   1.368  1.00  0.00     0.046 C
HETATM   24  N1  UNL     1       5.356  50.536   2.672  1.00  0.00    -0.257 N
HETATM   25  O1  UNL     1       6.109  49.711   3.301  1.00  0.00    -0.194 OA
ATOM     26  H1  UNL     1       4.338  50.498   2.621  1.00  0.00     0.195 HD
HETATM   27  C3  UNL     1       7.364  50.020   3.181  1.00  0.00     0.317 A
HETATM   28  O2  UNL     1       8.322  49.417   3.672  1.00  0.00    -0.257 OA
ENDBRANCH  20  21
ENDBRANCH   1  20
BRANCH   5  29
HETATM   29  O4  UNL     1      11.988  53.550  -0.958  1.00  0.00    -0.357 OA
ATOM     30  H4  UNL     1      12.714  53.724  -0.372  1.00  0.00     0.217 HD
ENDBRANCH   5  29
BRANCH   4  31
HETATM   31  O3  UNL     1      11.639  51.376  -2.634  1.00  0.00    -0.358 OA
ATOM     32  H3  UNL     1      12.342  50.740  -2.710  1.00  0.00     0.217 HD
ENDBRANCH   4  31
TORSDOF 6
ENDMDL