MODEL 3
REMARK VINA RESULT: -8.800004281      1.471      2.087
REMARK  4 active torsions:
REMARK  status: ('A' for Active; 'I' for Inactive)
REMARK    1  A    between atoms: O1_2  and  N1_3
REMARK    2  A    between atoms: C6_9  and  S1_10
REMARK    3  A    between atoms: S1_10  and  N2_13
REMARK    4  A    between atoms: N2_13  and  C7_15
ROOT
HETATM    1  N1  UNL     1      11.045  48.443   1.761  1.00  0.00    -0.268 N
ATOM      2  H1  UNL     1      10.228  47.905   2.049  1.00  0.00     0.194 HD
HETATM    3  C2  UNL     1      10.932  49.739   1.555  1.00  0.00     0.081 A
HETATM    4  C3  UNL     1       9.645  50.418   1.735  1.00  0.00     0.104 A
HETATM    5  C4  UNL     1       9.707  51.863   1.462  1.00  0.00    -0.017 A
HETATM    6  C5  UNL     1       8.516  52.606   1.608  1.00  0.00     0.035 A
HETATM    7  C6  UNL     1       8.454  53.950   1.381  1.00  0.00     0.080 A
HETATM    8  C15 UNL     1       9.637  54.571   0.993  1.00  0.00     0.028 A
HETATM    9  C16 UNL     1      10.808  53.870   0.844  1.00  0.00     0.039 A
HETATM   10  C17 UNL     1      10.864  52.486   1.079  1.00  0.00     0.084 A
HETATM   11  O4  UNL     1      12.067  51.825   0.916  1.00  0.00    -0.297 OA
HETATM   12  C18 UNL     1      12.122  50.469   1.147  1.00  0.00     0.167 A
HETATM   13  S2  UNL     1      13.535  49.625   0.967  1.00  0.00    -0.050 SA
ENDROOT
BRANCH   7  14
HETATM   14  S1  UNL     1       7.000  54.891   1.550  1.00  0.00     0.263 S
HETATM   15  O2  UNL     1       7.136  55.766   2.783  1.00  0.00    -0.200 OA
HETATM   16  O3  UNL     1       5.815  53.981   1.851  1.00  0.00    -0.200 OA
BRANCH  14  17
HETATM   17  N2  UNL     1       6.674  55.909   0.216  1.00  0.00    -0.280 N
ATOM     18  H2  UNL     1       6.769  55.503  -0.715  1.00  0.00     0.179 HD
BRANCH  17  19
HETATM   19  C7  UNL     1       6.281  57.269   0.294  1.00  0.00     0.048 A
HETATM   20  C8  UNL     1       5.014  57.603   0.714  1.00  0.00     0.031 A
HETATM   21  C9  UNL     1       4.621  58.932   0.805  1.00  0.00     0.009 A
HETATM   22  C10 UNL     1       5.480  59.941   0.479  1.00  0.00    -0.061 A
HETATM   23  C11 UNL     1       5.099  61.389   0.562  1.00  0.00     0.048 C
HETATM   24  C12 UNL     1       6.748  59.636   0.058  1.00  0.00     0.015 A
HETATM   25  C13 UNL     1       7.119  58.317  -0.027  1.00  0.00    -0.034 A
HETATM   26  C14 UNL     1       8.489  57.997  -0.482  1.00  0.00     0.050 C
ENDBRANCH  17  19
ENDBRANCH  14  17
ENDBRANCH   7  14
BRANCH   1  27
HETATM   27  O1  UNL     1      12.246  47.808   1.594  1.00  0.00    -0.285 OA
HETATM   28  C1  UNL     1      12.461  46.463   2.008  1.00  0.00     0.237 C
ENDBRANCH   1  27
TORSDOF 4
ENDMDL