MODEL 3
REMARK VINA RESULT: -8.815940044      1.461      2.309
REMARK  5 active torsions:
REMARK  status: ('A' for Active; 'I' for Inactive)
REMARK    1  A    between atoms: C5_5  and  S1_6
REMARK    2  A    between atoms: S1_6  and  N1_9
REMARK    3  A    between atoms: N1_9  and  C6_11
REMARK    4  A    between atoms: C11_16  and  S2_17
REMARK    5  A    between atoms: S2_17  and  N2_18
ROOT
HETATM    1  C6  UNL     1       6.726  53.460   1.143  1.00  0.00     0.115 A
HETATM    2  C7  UNL     1       5.387  53.196   1.292  1.00  0.00     0.050 A
HETATM    3  C8  UNL     1       4.981  52.022   1.892  1.00  0.00     0.017 A
HETATM    4  C9  UNL     1       5.917  51.119   2.338  1.00  0.00    -0.008 A
HETATM    5  C10 UNL     1       5.506  49.947   2.937  1.00  0.00     0.038 A
HETATM    6  C11 UNL     1       6.440  49.040   3.386  1.00  0.00     0.080 A
HETATM    7  C12 UNL     1       7.776  49.325   3.225  1.00  0.00     0.027 A
HETATM    8  C13 UNL     1       8.174  50.513   2.619  1.00  0.00     0.032 A
HETATM    9  C14 UNL     1       7.251  51.431   2.165  1.00  0.00     0.044 A
HETATM   10  N3  UNL     1       7.649  52.572   1.582  1.00  0.00    -0.341 N
ATOM     11  H3  UNL     1       8.643  52.770   1.469  1.00  0.00     0.167 HD
ENDROOT
BRANCH   1  12
HETATM   12  N1  UNL     1       7.085  54.557   0.582  1.00  0.00    -0.266 N
ATOM     13  H1  UNL     1       6.897  54.651  -0.416  1.00  0.00     0.180 HD
BRANCH  12  14
HETATM   14  S1  UNL     1       7.847  55.869   1.353  1.00  0.00     0.264 S
HETATM   15  O1  UNL     1       7.687  55.699   2.841  1.00  0.00    -0.200 OA
HETATM   16  O2  UNL     1       9.342  55.929   1.078  1.00  0.00    -0.200 OA
BRANCH  14  17
HETATM   17  C5  UNL     1       7.094  57.381   0.829  1.00  0.00     0.079 A
HETATM   18  C4  UNL     1       7.794  58.319   0.102  1.00  0.00     0.026 A
HETATM   19  C3  UNL     1       7.185  59.496  -0.298  1.00  0.00     0.008 A
HETATM   20  C2  UNL     1       5.872  59.779   0.008  1.00  0.00    -0.062 A
HETATM   21  C1  UNL     1       5.217  61.053  -0.425  1.00  0.00     0.048 C
HETATM   22  C16 UNL     1       5.170  58.843   0.735  1.00  0.00     0.008 A
HETATM   23  C15 UNL     1       5.780  57.667   1.133  1.00  0.00     0.026 A
ENDBRANCH  14  17
ENDBRANCH  12  14
ENDBRANCH   1  12
BRANCH   6  24
HETATM   24  S2  UNL     1       5.931  47.534   4.155  1.00  0.00     0.256 S
HETATM   25  O3  UNL     1       6.924  47.167   5.196  1.00  0.00    -0.201 OA
HETATM   26  O4  UNL     1       5.875  46.462   3.105  1.00  0.00    -0.201 OA
BRANCH  24  27
HETATM   27  N2  UNL     1       4.381  47.766   4.875  1.00  0.00    -0.324 N
ATOM     28  H22 UNL     1       4.006  48.668   5.167  1.00  0.00     0.169 HD
ATOM     29  H21 UNL     1       3.914  46.863   4.957  1.00  0.00     0.169 HD
ENDBRANCH  24  27
ENDBRANCH   6  24
TORSDOF 5
ENDMDL