MODEL 3
REMARK VINA RESULT: -9.522879843      2.328      3.177
REMARK  5 active torsions:
REMARK  status: ('A' for Active; 'I' for Inactive)
REMARK    1  A    between atoms: C3_3  and  C4_4
REMARK    2  A    between atoms: N2_13  and  O1_14
REMARK    3  A    between atoms: C15_20  and  N3_21
REMARK    4  A    between atoms: N3_21  and  S1_23
REMARK    5  A    between atoms: N4_29  and  O4_30
ROOT
HETATM    1  C1  UNL     1       4.330  54.775   1.510  1.00  0.00     0.072 C
HETATM    2  C2  UNL     1       5.751  54.308   1.472  1.00  0.00     0.051 A
HETATM    3  C3  UNL     1       6.789  55.125   1.118  1.00  0.00     0.036 A
HETATM    4  C11 UNL     1       8.040  54.500   1.089  1.00  0.00     0.031 A
HETATM    5  C12 UNL     1       8.221  53.160   1.394  1.00  0.00    -0.006 A
HETATM    6  C13 UNL     1       9.449  52.553   1.364  1.00  0.00     0.016 A
HETATM    7  C14 UNL     1       9.624  51.194   1.676  1.00  0.00     0.031 A
HETATM    8  C15 UNL     1       8.544  50.431   2.024  1.00  0.00     0.044 A
HETATM    9  C17 UNL     1       7.301  51.057   2.051  1.00  0.00     0.063 A
HETATM   10  C18 UNL     1       7.146  52.383   1.745  1.00  0.00     0.075 A
HETATM   11  N4  UNL     1       5.939  52.981   1.774  1.00  0.00    -0.228 N
ENDROOT
BRANCH   3  12
HETATM   12  C4  UNL     1       6.624  56.552   0.874  1.00  0.00     0.146 A
HETATM   13  N1  UNL     1       5.618  57.390   1.092  1.00  0.00    -0.338 N
HETATM   14  C5  UNL     1       5.880  58.634   0.635  1.00  0.00     0.063 A
ATOM     15  H1  UNL     1       4.747  57.124   1.551  1.00  0.00     0.167 HD
HETATM   16  C6  UNL     1       5.184  59.826   0.618  1.00  0.00     0.032 A
HETATM   17  C10 UNL     1       7.128  58.593   0.093  1.00  0.00     0.091 A
HETATM   18  C7  UNL     1       5.753  60.965   0.054  1.00  0.00     0.002 A
HETATM   19  C8  UNL     1       7.022  60.877  -0.484  1.00  0.00     0.002 A
HETATM   20  C9  UNL     1       7.732  59.699  -0.477  1.00  0.00     0.034 A
HETATM   21  N2  UNL     1       7.562  57.326   0.246  1.00  0.00    -0.205 N
BRANCH  21  22
HETATM   22  O1  UNL     1       8.784  56.892  -0.203  1.00  0.00    -0.281 OA
ATOM     23  H1  UNL     1       9.466  57.443  -0.568  1.00  0.00     0.245 HD
ENDBRANCH  21  22
ENDBRANCH   3  12
BRANCH  11  24
HETATM   24  O4  UNL     1       4.858  52.227   2.121  1.00  0.00    -0.282 OA
ATOM     25  H4  UNL     1       4.947  51.281   2.143  1.00  0.00     0.245 HD
ENDBRANCH  11  24
BRANCH   8  26
HETATM   26  N3  UNL     1       8.616  49.065   2.337  1.00  0.00    -0.285 N
ATOM     27  H3  UNL     1       8.062  48.729   3.125  1.00  0.00     0.178 HD
BRANCH  26  28
HETATM   28  S1  UNL     1       9.558  47.933   1.497  1.00  0.00     0.227 S
HETATM   29  C16 UNL     1       9.601  48.281  -0.232  1.00  0.00     0.186 C
HETATM   30  O2  UNL     1      11.015  47.981   1.972  1.00  0.00    -0.206 OA
HETATM   31  O3  UNL     1       9.074  46.511   1.745  1.00  0.00    -0.206 OA
ENDBRANCH  26  28
ENDBRANCH   8  26
TORSDOF 5
ENDMDL