MODEL 5
REMARK VINA RESULT: -8.255993448      6.441      9.827
REMARK  5 active torsions:
REMARK  status: ('A' for Active; 'I' for Inactive)
REMARK    1  A    between atoms: C5_5  and  C6_6
REMARK    2  A    between atoms: N1_7  and  N2_8
REMARK    3  A    between atoms: N1_7  and  C14_23
REMARK    4  A    between atoms: N2_8  and  C7_10
REMARK    5  A    between atoms: C7_10  and  C8_11
ROOT
HETATM    1  C6  UNL     1       5.866  52.637   1.905  1.00  0.00     0.128 C
HETATM    2  N1  UNL     1       6.743  51.764   1.940  1.00  0.00    -0.267 N
ENDROOT
BRANCH   2   3
HETATM    3  N2  UNL     1       6.337  50.439   2.363  1.00  0.00    -0.304 N
ATOM      4  H2  UNL     1       6.609  49.628   1.809  1.00  0.00     0.186 HD
BRANCH   3   5
HETATM    5  C7  UNL     1       5.568  50.258   3.535  1.00  0.00     0.126 C
BRANCH   5   6
HETATM    6  C8  UNL     1       5.374  48.998   3.968  1.00  0.00     0.025 A
HETATM    7  C9  UNL     1       6.196  47.923   3.762  1.00  0.00     0.040 A
HETATM    8  C10 UNL     1       5.815  46.744   4.282  1.00  0.00     0.067 A
HETATM    9  C11 UNL     1       4.645  46.701   4.974  1.00  0.00     0.087 A
HETATM   10  C13 UNL     1       6.532  45.437   4.195  1.00  0.00     0.255 A
HETATM   11  S1  UNL     1       4.100  48.343   4.875  1.00  0.00    -0.070 SA
HETATM   12  N3  UNL     1       4.137  45.638   5.540  1.00  0.00    -0.367 N
HETATM   13  C12 UNL     1       4.705  44.328   5.543  1.00  0.00     0.247 A
ATOM     14  H3  UNL     1       3.249  45.756   6.027  1.00  0.00     0.161 HD
HETATM   15  N4  UNL     1       5.946  44.311   4.820  1.00  0.00    -0.341 N
ATOM     16  H4  UNL     1       6.440  43.421   4.751  1.00  0.00     0.164 HD
HETATM   17  O1  UNL     1       7.625  45.314   3.591  1.00  0.00    -0.268 OA
ENDBRANCH   5   6
ENDBRANCH   3   5
ENDBRANCH   2   3
BRANCH   2  18
HETATM   18  C14 UNL     1       8.101  51.832   1.632  1.00  0.00     0.056 A
HETATM   19  C15 UNL     1       8.731  53.026   1.282  1.00  0.00     0.031 A
HETATM   20  C16 UNL     1      10.070  53.027   1.033  1.00  0.00     0.002 A
HETATM   21  C17 UNL     1      10.839  51.899   1.112  1.00  0.00     0.000 A
HETATM   22  C18 UNL     1      10.232  50.703   1.458  1.00  0.00     0.002 A
HETATM   23  C19 UNL     1       8.880  50.687   1.712  1.00  0.00     0.031 A
ENDBRANCH   2  18
BRANCH   1  24
HETATM   24  C5  UNL     1       5.834  54.029   1.558  1.00  0.00    -0.019 A
HETATM   25  C4  UNL     1       5.681  54.573   0.319  1.00  0.00     0.013 A
HETATM   26  C3  UNL     1       5.664  55.959   0.076  1.00  0.00     0.007 A
HETATM   27  C2  UNL     1       5.802  56.824   1.107  1.00  0.00    -0.062 A
HETATM   28  C1  UNL     1       5.779  58.278   0.811  1.00  0.00     0.048 C
HETATM   29  C21 UNL     1       5.958  56.322   2.371  1.00  0.00     0.007 A
HETATM   30  C20 UNL     1       5.974  54.968   2.595  1.00  0.00     0.013 A
ENDBRANCH   1  24
TORSDOF 5
ENDMDL