MODEL 4
REMARK VINA RESULT: -5.993535635      3.385      7.551
REMARK  3 active torsions:
REMARK  status: ('A' for Active; 'I' for Inactive)
REMARK    1  A    between atoms: C2_2  and  N1_3
REMARK    2  A    between atoms: C6_7  and  S1_8
REMARK    3  A    between atoms: S1_8  and  C7_11
ROOT
HETATM    1  N1  UNL     1       8.604  50.830   2.082  1.00  0.00    -0.365 N
HETATM    2  C3  UNL     1       7.654  51.720   2.395  1.00  0.00     0.098 A
HETATM    3  C4  UNL     1       7.788  53.064   2.046  1.00  0.00    -0.023 A
HETATM    4  C5  UNL     1       8.947  53.444   1.359  1.00  0.00     0.062 A
HETATM    5  C6  UNL     1       9.925  52.505   1.043  1.00  0.00     0.096 A
HETATM    6  C14 UNL     1       9.722  51.166   1.427  1.00  0.00     0.115 A
HETATM    7  C15 UNL     1       9.082  54.844   0.985  1.00  0.00     0.254 C
HETATM    8  O4  UNL     1      10.079  55.249   0.380  1.00  0.00    -0.268 OA
HETATM    9  N3  UNL     1       8.055  55.792   1.311  1.00  0.00    -0.348 N
ATOM     10  H3  UNL     1       8.257  56.791   1.357  1.00  0.00     0.163 HD
HETATM   11  C16 UNL     1       6.726  55.287   1.572  1.00  0.00     0.030 C
HETATM   12  C17 UNL     1       5.969  55.054   0.256  1.00  0.00     0.038 C
HETATM   13  C18 UNL     1       5.956  56.360   2.302  1.00  0.00     0.038 C
HETATM   14  C19 UNL     1       6.757  54.044   2.399  1.00  0.00     0.071 C
ENDROOT
BRANCH   5  15
HETATM   15  S1  UNL     1      11.359  52.955   0.189  1.00  0.00     0.215 S
HETATM   16  O1  UNL     1      12.380  53.709   0.972  1.00  0.00    -0.217 OA
HETATM   17  O2  UNL     1      11.127  53.476  -1.195  1.00  0.00    -0.217 OA
BRANCH  15  18
HETATM   18  C7  UNL     1      12.234  51.428  -0.108  1.00  0.00     0.138 A
HETATM   19  C8  UNL     1      11.865  50.681  -1.208  1.00  0.00    -0.033 A
HETATM   20  C9  UNL     1      10.816  51.032  -2.163  1.00  0.00     0.050 C
HETATM   21  C10 UNL     1      12.574  49.495  -1.386  1.00  0.00     0.033 A
HETATM   22  C11 UNL     1      13.565  49.117  -0.513  1.00  0.00     0.009 A
HETATM   23  C12 UNL     1      14.309  47.840  -0.731  1.00  0.00     0.068 C
HETATM   24  N2  UNL     1      13.886  49.877   0.540  1.00  0.00    -0.326 N
HETATM   25  C13 UNL     1      13.234  51.033   0.759  1.00  0.00     0.268 A
ATOM     26  H2  UNL     1      14.625  49.581   1.178  1.00  0.00     0.169 HD
HETATM   27  O3  UNL     1      13.550  51.752   1.772  1.00  0.00    -0.267 OA
ENDBRANCH  15  18
ENDBRANCH   5  15
BRANCH   1  28
HETATM   28  C2  UNL     1       8.409  49.432   2.475  1.00  0.00     0.123 C
HETATM   29  C1  UNL     1       7.301  49.305   3.494  1.00  0.00     0.027 C
ENDBRANCH   1  28
TORSDOF 3
ENDMDL