MODEL 4
REMARK VINA RESULT: -9.187370446      1.628      2.037
REMARK  4 active torsions:
REMARK  status: ('A' for Active; 'I' for Inactive)
REMARK       I    between atoms: C1_2  and  N2_4
REMARK    1  A    between atoms: N2_4  and  S1_6
REMARK    2  A    between atoms: S1_6  and  C2_9
REMARK    3  A    between atoms: C7_14  and  C8_15
REMARK       I    between atoms: C8_15  and  N3_17
REMARK    4  A    between atoms: N3_17  and  C9_19
ROOT
HETATM    1  C8  UNL     1       7.986  55.471   1.803  1.00  0.00     0.257 C
HETATM    2  O4  UNL     1       7.739  55.749   2.977  1.00  0.00    -0.267 OA
HETATM    3  N3  UNL     1       7.181  56.150   0.826  1.00  0.00    -0.322 N
ATOM      4  H3  UNL     1       6.298  55.722   0.546  1.00  0.00     0.169 HD
ENDROOT
BRANCH   1   5
HETATM    5  C7  UNL     1       8.985  54.546   1.326  1.00  0.00     0.055 A
HETATM    6  C2  UNL     1       8.835  53.180   1.365  1.00  0.00     0.095 A
HETATM    7  C3  UNL     1       9.861  52.349   0.905  1.00  0.00     0.026 A
HETATM    8  C4  UNL     1      11.036  52.862   0.405  1.00  0.00     0.002 A
HETATM    9  C5  UNL     1      11.205  54.221   0.356  1.00  0.00     0.001 A
HETATM   10  C6  UNL     1      10.202  55.024   0.806  1.00  0.00     0.018 A
BRANCH   6  11
HETATM   11  S1  UNL     1       7.392  52.431   1.945  1.00  0.00     0.267 S
HETATM   12  O2  UNL     1       6.729  51.704   0.767  1.00  0.00    -0.200 OA
HETATM   13  O3  UNL     1       7.638  51.333   2.948  1.00  0.00    -0.200 OA
BRANCH  11  14
HETATM   14  N2  UNL     1       6.212  53.566   2.473  1.00  0.00    -0.234 N
HETATM   15  C1  UNL     1       5.263  54.068   1.560  1.00  0.00     0.342 C
HETATM   16  N1  UNL     1       4.291  55.004   2.002  1.00  0.00    -0.039 NA
HETATM   17  O1  UNL     1       5.226  53.729   0.348  1.00  0.00    -0.250 OA
ATOM     18  H2  UNL     1       6.198  53.874   3.445  1.00  0.00     0.183 HD
ENDBRANCH  11  14
ENDBRANCH   6  11
ENDBRANCH   1   5
BRANCH   3  19
HETATM   19  C9  UNL     1       7.507  57.248   0.296  1.00  0.00     0.046 A
HETATM   20  C10 UNL     1       8.713  57.413  -0.339  1.00  0.00     0.030 A
HETATM   21  C11 UNL     1       9.051  58.641  -0.920  1.00  0.00     0.003 A
HETATM   22  C12 UNL     1       8.210  59.727  -0.887  1.00  0.00     0.012 A
HETATM   23  C13 UNL     1       6.995  59.610  -0.265  1.00  0.00    -0.024 A
HETATM   24  C14 UNL     1       6.224  60.745  -0.282  1.00  0.00     0.012 C
HETATM   25  C19 UNL     1       6.650  58.321   0.340  1.00  0.00     0.001 A
HETATM   26  C15 UNL     1       5.092  61.114   0.409  1.00  0.00     0.001 C
HETATM   27  C16 UNL     1       4.267  60.221   1.084  1.00  0.00     0.000 C
HETATM   28  C17 UNL     1       4.393  58.847   1.222  1.00  0.00     0.001 C
HETATM   29  C18 UNL     1       5.464  58.039   1.005  1.00  0.00     0.014 C
ENDBRANCH   3  19
TORSDOF 4
ENDMDL