MODEL 1
REMARK VINA RESULT: -7.410175396      0.000      0.000
REMARK  4 active torsions:
REMARK  status: ('A' for Active; 'I' for Inactive)
REMARK    1  A    between atoms: C2_2  and  O1_6
REMARK    2  A    between atoms: O1_6  and  C3_7
REMARK    3  A    between atoms: C3_7  and  C4_9
REMARK    4  A    between atoms: C10_16  and  C11_17
ROOT
HETATM    1  C4  UNL     1      -0.443 -47.389 -19.647  1.00  0.00     0.152 C
HETATM    2  C5  UNL     1      -0.493 -47.284 -18.122  1.00  0.00     0.057 C
HETATM    3  O3  UNL     1       0.459 -46.526 -20.209  1.00  0.00    -0.356 OA
HETATM    4  C6  UNL     1       0.222 -46.104 -21.465  1.00  0.00     0.093 C
HETATM    5  C7  UNL     1       1.581 -45.848 -22.136  1.00  0.00     0.049 C
HETATM    6  C8  UNL     1      -0.562 -46.974 -22.363  1.00  0.00     0.160 C
HETATM    7  C9  UNL     1      -1.594 -47.832 -21.715  1.00  0.00     0.046 C
HETATM    8  C10 UNL     1      -1.801 -47.347 -20.269  1.00  0.00     0.067 C
HETATM    9  C11 UNL     1      -2.525 -46.088 -20.305  1.00  0.00     0.067 C
HETATM   10  C12 UNL     1      -3.934 -46.334 -19.722  1.00  0.00     0.047 C
HETATM   11  C13 UNL     1      -1.987 -44.917 -19.569  1.00  0.00     0.039 C
HETATM   12  C14 UNL     1      -0.743 -44.319 -20.134  1.00  0.00     0.015 C
HETATM   13  C15 UNL     1      -0.539 -44.788 -21.531  1.00  0.00     0.078 C
HETATM   14  C16 UNL     1      -1.747 -45.149 -22.287  1.00  0.00     0.268 C
HETATM   15  O4  UNL     1      -1.253 -46.086 -23.223  1.00  0.00    -0.352 OA
HETATM   16  O5  UNL     1      -2.798 -45.660 -21.621  1.00  0.00    -0.350 OA
ENDROOT
BRANCH   1  17
HETATM   17  C3  UNL     1       0.087 -48.782 -19.911  1.00  0.00     0.300 C
HETATM   18  O2  UNL     1       1.261 -48.997 -20.306  1.00  0.00    -0.261 OA
BRANCH  17  19
HETATM   19  O1  UNL     1      -0.701 -49.908 -19.730  1.00  0.00    -0.264 OA
BRANCH  19  20
HETATM   20  C2  UNL     1      -0.647 -50.660 -18.571  1.00  0.00     0.117 C
HETATM   21  C1  UNL     1      -1.693 -51.655 -18.289  1.00  0.00     0.097 C
HETATM   22  N1  UNL     1       0.338 -50.450 -17.775  1.00  0.00    -0.383 N
ATOM     23  H12 UNL     1       0.378 -51.005 -16.919  1.00  0.00     0.157 HD
ATOM     24  H11 UNL     1       1.063 -49.760 -17.971  1.00  0.00     0.157 HD
ENDBRANCH  19  20
ENDBRANCH  17  19
ENDBRANCH   1  17
TORSDOF 4
ENDMDL