MODEL 4
REMARK VINA RESULT: -6.987971844      2.248      4.099
REMARK  4 active torsions:
REMARK  status: ('A' for Active; 'I' for Inactive)
REMARK    1  A    between atoms: C2_2  and  O2_4
REMARK    2  A    between atoms: O2_4  and  C3_5
REMARK    3  A    between atoms: C6_10  and  C7_11
REMARK    4  A    between atoms: C17_21  and  O5_22
ROOT
HETATM    1  C3  UNL     1       1.804 -48.705 -18.424  1.00  0.00     0.260 C
HETATM    2  C4  UNL     1       3.090 -48.618 -19.201  1.00  0.00     0.291 C
HETATM    3  O3  UNL     1       4.167 -49.103 -18.781  1.00  0.00    -0.262 OA
HETATM    4  O4  UNL     1       2.976 -47.949 -20.426  1.00  0.00    -0.319 OA
HETATM    5  C5  UNL     1       1.903 -47.001 -20.591  1.00  0.00     0.186 C
HETATM    6  C6  UNL     1       0.635 -47.739 -20.434  1.00  0.00     0.047 C
HETATM    7  C17 UNL     1       0.717 -48.912 -19.481  1.00  0.00     0.164 C
ENDROOT
BRANCH   6   8
HETATM    8  C7  UNL     1      -0.604 -46.950 -20.205  1.00  0.00     0.002 C
HETATM    9  C8  UNL     1      -1.846 -47.600 -20.751  1.00  0.00    -0.009 C
HETATM   10  C9  UNL     1      -3.011 -47.043 -19.918  1.00  0.00     0.010 C
HETATM   11  C13 UNL     1      -2.135 -47.241 -22.178  1.00  0.00     0.010 C
HETATM   12  C10 UNL     1      -3.045 -45.552 -20.070  1.00  0.00    -0.013 C
HETATM   13  C11 UNL     1      -3.381 -45.226 -21.491  1.00  0.00     0.009 C
HETATM   14  C16 UNL     1      -1.732 -44.892 -19.662  1.00  0.00     0.010 C
HETATM   15  C12 UNL     1      -2.257 -45.770 -22.380  1.00  0.00    -0.013 C
HETATM   16  C14 UNL     1      -0.971 -45.108 -21.908  1.00  0.00     0.010 C
HETATM   17  C15 UNL     1      -0.610 -45.518 -20.519  1.00  0.00    -0.009 C
ENDBRANCH   6   8
BRANCH   7  18
HETATM   18  O5  UNL     1      -0.512 -49.212 -18.898  1.00  0.00    -0.392 OA
ATOM     19  H5  UNL     1      -1.196 -48.632 -19.210  1.00  0.00     0.210 HD
ENDBRANCH   7  18
BRANCH   1  20
HETATM   20  O2  UNL     1       1.800 -49.795 -17.558  1.00  0.00    -0.303 OA
BRANCH  20  21
HETATM   21  C2  UNL     1       1.208 -49.856 -16.331  1.00  0.00     0.255 C
HETATM   22  C1  UNL     1       1.684 -49.145 -15.118  1.00  0.00     0.126 C
HETATM   23  O1  UNL     1       0.177 -50.569 -16.202  1.00  0.00    -0.266 OA
ENDBRANCH  20  21
ENDBRANCH   1  20
TORSDOF 4
ENDMDL