MODEL 5
REMARK VINA RESULT: -6.664381363      1.929      5.445
REMARK  3 active torsions:
REMARK  status: ('A' for Active; 'I' for Inactive)
REMARK    1  A    between atoms: C12_14  and  C13_15
REMARK    2  A    between atoms: C13_15  and  O3_16
REMARK    3  A    between atoms: C13_15  and  C14_18
ROOT
HETATM    1  C1  UNL     1      -3.935 -46.217 -22.749  1.00  0.00     0.040 C
HETATM    2  C2  UNL     1      -3.010 -45.501 -21.770  1.00  0.00     0.123 C
HETATM    3  C3  UNL     1      -3.715 -45.507 -20.433  1.00  0.00     0.058 C
HETATM    4  C4  UNL     1      -2.719 -45.079 -19.390  1.00  0.00     0.174 C
HETATM    5  O1  UNL     1      -1.443 -44.956 -19.806  1.00  0.00    -0.354 OA
HETATM    6  C5  UNL     1      -0.974 -45.869 -20.727  1.00  0.00     0.174 C
HETATM    7  O2  UNL     1      -1.885 -46.299 -21.636  1.00  0.00    -0.349 OA
HETATM    8  C6  UNL     1       0.122 -45.122 -21.511  1.00  0.00     0.049 C
HETATM    9  C7  UNL     1      -0.285 -44.831 -22.927  1.00  0.00     0.016 C
HETATM   10  C8  UNL     1       1.302 -46.061 -21.563  1.00  0.00     0.004 A
HETATM   11  C9  UNL     1       0.995 -47.325 -22.351  1.00  0.00     0.016 A
HETATM   12  C10 UNL     1       0.948 -47.336 -20.896  1.00  0.00    -0.028 A
HETATM   13  C11 UNL     1       2.090 -48.008 -20.131  1.00  0.00     0.016 C
HETATM   14  C12 UNL     1      -0.236 -46.972 -20.053  1.00  0.00     0.090 C
ENDROOT
BRANCH  14  15
HETATM   15  C13 UNL     1      -1.015 -48.114 -19.538  1.00  0.00     0.183 C
BRANCH  15  16
HETATM   16  O3  UNL     1      -2.024 -47.563 -18.703  1.00  0.00    -0.390 OA
ATOM     17  H3  UNL     1      -2.333 -48.275 -18.155  1.00  0.00     0.210 HD
ENDBRANCH  15  16
BRANCH  15  18
HETATM   18  C14 UNL     1      -0.327 -49.137 -18.724  1.00  0.00     0.294 C
HETATM   19  O4  UNL     1       0.238 -48.618 -17.517  1.00  0.00    -0.330 OA
HETATM   20  C15 UNL     1       0.770 -49.554 -16.639  1.00  0.00     0.136 C
HETATM   21  C16 UNL     1       0.286 -50.784 -16.694  1.00  0.00     0.023 C
HETATM   22  C17 UNL     1      -0.787 -51.133 -17.664  1.00  0.00     0.200 C
HETATM   23  O5  UNL     1      -1.349 -50.005 -18.249  1.00  0.00    -0.355 OA
ENDBRANCH  15  18
ENDBRANCH  14  15
TORSDOF 3
ENDMDL