MODEL 5
REMARK VINA RESULT: -5.606627046      2.364      5.630
REMARK  3 active torsions:
REMARK  status: ('A' for Active; 'I' for Inactive)
REMARK    1  A    between atoms: C2_2  and  C4_4
REMARK    2  A    between atoms: C6_6  and  O1_7
REMARK    3  A    between atoms: N1_14  and  O3_16
ROOT
HETATM    1  C4  UNL     1       3.346 -49.545 -23.202  1.00  0.00     0.016 C
HETATM    2  C5  UNL     1       4.065 -48.402 -23.938  1.00  0.00     0.042 C
HETATM    3  C6  UNL     1       3.119 -47.236 -23.773  1.00  0.00     0.135 C
HETATM    4  C7  UNL     1       2.891 -46.834 -22.341  1.00  0.00     0.061 C
HETATM    5  C8  UNL     1       3.939 -45.738 -22.058  1.00  0.00     0.027 C
HETATM    6  C9  UNL     1       1.578 -46.142 -22.330  1.00  0.00     0.213 C
HETATM    7  O2  UNL     1       1.535 -44.910 -22.537  1.00  0.00    -0.288 OA
HETATM    8  C10 UNL     1       0.374 -46.905 -22.081  1.00  0.00     0.215 C
HETATM    9  N1  UNL     1      -0.697 -46.645 -22.726  1.00  0.00    -0.242 N
ATOM     10  H1  UNL     1      -0.659 -45.890 -23.409  1.00  0.00     0.196 HD
HETATM   11  O4  UNL     1       0.486 -47.915 -21.105  1.00  0.00    -0.293 OA
HETATM   12  C12 UNL     1       1.741 -48.065 -20.490  1.00  0.00     0.062 C
HETATM   13  C13 UNL     1       1.832 -48.340 -19.201  1.00  0.00    -0.057 C
HETATM   14  C14 UNL     1       0.618 -48.499 -18.367  1.00  0.00     0.045 C
HETATM   15  C15 UNL     1       3.151 -48.489 -18.553  1.00  0.00     0.045 C
HETATM   16  C16 UNL     1       2.993 -47.909 -21.322  1.00  0.00     0.062 C
HETATM   17  C17 UNL     1       3.504 -49.232 -21.755  1.00  0.00     0.021 C
ENDROOT
BRANCH   9  18
HETATM   18  O3  UNL     1      -1.881 -47.289 -22.580  1.00  0.00    -0.283 OA
HETATM   19  C11 UNL     1      -2.949 -46.644 -21.910  1.00  0.00     0.237 C
ENDBRANCH   9  18
BRANCH   3  20
HETATM   20  O1  UNL     1       3.578 -46.113 -24.458  1.00  0.00    -0.394 OA
ATOM     21  H1  UNL     1       4.526 -46.060 -24.435  1.00  0.00     0.210 HD
ENDBRANCH   3  20
BRANCH   1  22
HETATM   22  C2  UNL     1       3.857 -50.851 -23.587  1.00  0.00    -0.089 C
HETATM   23  C1  UNL     1       3.490 -51.416 -24.716  1.00  0.00     0.014 C
HETATM   24  C3  UNL     1       4.808 -51.566 -22.699  1.00  0.00     0.043 C
ENDBRANCH   1  22
TORSDOF 3
ENDMDL