MODEL 3
REMARK VINA RESULT: -6.630471662      2.496      4.614
REMARK  4 active torsions:
REMARK  status: ('A' for Active; 'I' for Inactive)
REMARK    1  A    between atoms: C2_2  and  O2_4
REMARK    2  A    between atoms: O2_4  and  C3_5
REMARK    3  A    between atoms: C13_17  and  C15_19
REMARK    4  A    between atoms: C15_19  and  O5_22
ROOT
HETATM    1  C3  UNL     1       0.260 -48.598 -18.586  1.00  0.00     0.134 C
HETATM    2  C4  UNL     1      -1.138 -48.335 -19.031  1.00  0.00     0.065 C
HETATM    3  C5  UNL     1      -1.253 -47.364 -20.185  1.00  0.00     0.134 C
HETATM    4  O3  UNL     1      -0.823 -47.965 -21.339  1.00  0.00    -0.371 OA
HETATM    5  C6  UNL     1       0.090 -47.220 -22.089  1.00  0.00     0.202 C
HETATM    6  C7  UNL     1      -0.343 -45.812 -22.232  1.00  0.00     0.157 C
HETATM    7  O4  UNL     1      -0.365 -45.280 -23.301  1.00  0.00    -0.295 OA
HETATM    8  C8  UNL     1      -0.737 -45.131 -20.978  1.00  0.00     0.093 C
HETATM    9  C9  UNL     1      -0.435 -46.137 -19.883  1.00  0.00    -0.006 C
HETATM   10  C10 UNL     1      -0.717 -45.507 -18.571  1.00  0.00     0.018 C
HETATM   11  C11 UNL     1       1.024 -46.616 -19.958  1.00  0.00     0.013 C
HETATM   12  C12 UNL     1       1.227 -47.478 -18.763  1.00  0.00     0.039 C
HETATM   13  C13 UNL     1       1.395 -47.181 -21.271  1.00  0.00     0.024 C
HETATM   14  C14 UNL     1       1.895 -48.600 -21.252  1.00  0.00     0.022 C
ENDROOT
BRANCH  13  15
HETATM   15  C15 UNL     1       2.455 -46.351 -21.944  1.00  0.00     0.061 C
HETATM   16  C16 UNL     1       2.556 -46.573 -23.419  1.00  0.00     0.046 C
HETATM   17  C17 UNL     1       3.787 -46.822 -21.337  1.00  0.00     0.046 C
BRANCH  15  18
HETATM   18  O5  UNL     1       2.384 -45.005 -21.692  1.00  0.00    -0.390 OA
ATOM     19  H5  UNL     1       1.645 -44.560 -22.090  1.00  0.00     0.210 HD
ENDBRANCH  15  18
ENDBRANCH  13  15
BRANCH   1  20
HETATM   20  O2  UNL     1       0.292 -48.938 -17.188  1.00  0.00    -0.316 OA
BRANCH  20  21
HETATM   21  C2  UNL     1       0.427 -50.216 -16.714  1.00  0.00     0.255 C
HETATM   22  C1  UNL     1      -0.621 -51.267 -16.847  1.00  0.00     0.126 C
HETATM   23  O1  UNL     1       1.532 -50.485 -16.128  1.00  0.00    -0.266 OA
ENDBRANCH  20  21
ENDBRANCH   1  20
TORSDOF 4
ENDMDL