MODEL 3
REMARK VINA RESULT: -6.309677860      1.701      3.333
REMARK  3 active torsions:
REMARK  status: ('A' for Active; 'I' for Inactive)
REMARK    1  A    between atoms: O1_2  and  C2_3
REMARK    2  A    between atoms: C2_3  and  C4_5
REMARK    3  A    between atoms: C17_21  and  O5_22
ROOT
HETATM    1  C4  UNL     1       0.052 -46.548 -19.651  1.00  0.00     0.179 C
HETATM    2  O2  UNL     1       1.221 -47.089 -20.083  1.00  0.00    -0.375 OA
HETATM    3  C5  UNL     1       1.797 -46.466 -21.184  1.00  0.00     0.127 C
HETATM    4  C6  UNL     1       3.109 -47.163 -21.360  1.00  0.00     0.052 C
HETATM    5  C7  UNL     1       3.937 -46.663 -22.491  1.00  0.00     0.053 C
HETATM    6  C8  UNL     1       4.302 -45.225 -22.412  1.00  0.00     0.026 C
HETATM    7  C9  UNL     1       5.191 -47.455 -22.539  1.00  0.00     0.268 C
HETATM    8  O3  UNL     1       5.750 -47.962 -21.548  1.00  0.00    -0.264 OA
HETATM    9  O4  UNL     1       5.560 -47.488 -23.873  1.00  0.00    -0.315 OA
HETATM   10  C10 UNL     1       4.421 -47.371 -24.707  1.00  0.00     0.133 C
HETATM   11  C11 UNL     1       4.236 -48.747 -25.360  1.00  0.00     0.040 C
HETATM   12  C12 UNL     1       3.274 -47.063 -23.781  1.00  0.00     0.033 C
HETATM   13  C13 UNL     1       2.446 -45.927 -24.266  1.00  0.00     0.009 C
HETATM   14  C14 UNL     1       1.239 -45.634 -23.484  1.00  0.00     0.008 C
HETATM   15  C15 UNL     1       0.894 -46.583 -22.390  1.00  0.00     0.017 C
HETATM   16  C16 UNL     1      -0.542 -46.310 -21.995  1.00  0.00     0.041 C
HETATM   17  C17 UNL     1      -0.669 -45.700 -20.631  1.00  0.00     0.150 C
ENDROOT
BRANCH   1  18
HETATM   18  C2  UNL     1      -0.822 -47.687 -19.119  1.00  0.00     0.148 C
HETATM   19  C3  UNL     1      -2.272 -47.258 -19.048  1.00  0.00     0.042 C
BRANCH  18  20
HETATM   20  O1  UNL     1      -0.761 -48.806 -19.944  1.00  0.00    -0.388 OA
HETATM   21  C1  UNL     1      -0.678 -49.927 -19.133  1.00  0.00     0.202 C
ENDBRANCH  18  20
ENDBRANCH   1  18
BRANCH  17  22
HETATM   22  O5  UNL     1      -0.204 -44.388 -20.585  1.00  0.00    -0.393 OA
ATOM     23  H5  UNL     1      -0.800 -43.803 -21.039  1.00  0.00     0.210 HD
ENDBRANCH  17  22
TORSDOF 3
ENDMDL