MODEL 4
REMARK VINA RESULT: -5.262888888      1.612      2.450
REMARK  4 active torsions:
REMARK  status: ('A' for Active; 'I' for Inactive)
REMARK    1  A    between atoms: O1_2  and  C2_3
REMARK    2  A    between atoms: C2_3  and  C3_5
REMARK    3  A    between atoms: C3_5  and  O3_6
REMARK    4  A    between atoms: C16_21  and  O5_22
ROOT
HETATM    1  C3  UNL     1       0.648 -46.194 -21.293  1.00  0.00     0.220 C
HETATM    2  C4  UNL     1      -0.652 -45.753 -20.688  1.00  0.00    -0.017 C
HETATM    3  C5  UNL     1      -1.446 -45.422 -21.579  1.00  0.00    -0.033 C
HETATM    4  C6  UNL     1      -2.783 -44.964 -21.243  1.00  0.00     0.030 C
HETATM    5  C7  UNL     1      -2.889 -45.703 -19.918  1.00  0.00     0.023 C
HETATM    6  C8  UNL     1      -1.397 -45.587 -19.417  1.00  0.00    -0.020 C
HETATM    7  C9  UNL     1      -1.121 -46.636 -18.405  1.00  0.00     0.019 C
HETATM    8  C10 UNL     1      -1.217 -44.213 -18.862  1.00  0.00     0.019 C
HETATM    9  C11 UNL     1      -3.127 -45.751 -22.545  1.00  0.00    -0.005 C
HETATM   10  C12 UNL     1      -4.140 -44.970 -23.316  1.00  0.00     0.019 C
HETATM   11  C13 UNL     1      -3.413 -47.179 -22.374  1.00  0.00     0.019 C
HETATM   12  C14 UNL     1      -1.643 -45.469 -23.003  1.00  0.00     0.092 C
HETATM   13  C15 UNL     1      -1.470 -44.297 -23.865  1.00  0.00     0.052 C
HETATM   14  O4  UNL     1      -0.845 -46.617 -23.279  1.00  0.00    -0.341 OA
HETATM   15  C16 UNL     1       0.453 -46.389 -22.760  1.00  0.00     0.309 C
ENDROOT
BRANCH   1  16
HETATM   16  C2  UNL     1       1.152 -47.437 -20.711  1.00  0.00     0.303 C
HETATM   17  O2  UNL     1       0.466 -48.490 -20.693  1.00  0.00    -0.261 OA
BRANCH  16  18
HETATM   18  O1  UNL     1       2.421 -47.486 -20.156  1.00  0.00    -0.324 OA
HETATM   19  C1  UNL     1       2.668 -48.123 -18.898  1.00  0.00     0.213 C
ENDBRANCH  16  18
ENDBRANCH   1  16
BRANCH   1  20
HETATM   20  O3  UNL     1       1.548 -45.152 -21.012  1.00  0.00    -0.371 OA
ATOM     21  H3  UNL     1       1.070 -44.332 -20.957  1.00  0.00     0.211 HD
ENDBRANCH   1  20
BRANCH  15  22
HETATM   22  O5  UNL     1       0.942 -45.324 -23.514  1.00  0.00    -0.362 OA
HETATM   23  C17 UNL     1       2.003 -45.649 -24.315  1.00  0.00     0.205 C
ENDBRANCH  15  22
TORSDOF 4
ENDMDL