MODEL 3
REMARK VINA RESULT: -8.764786526      1.562      3.979
REMARK  3 active torsions:
REMARK  status: ('A' for Active; 'I' for Inactive)
REMARK    1  A    between atoms: O1_2  and  C2_3
REMARK    2  A    between atoms: C4_5  and  O2_6
REMARK    3  A    between atoms: C17_20  and  O4_21
ROOT
HETATM    1  C2  UNL     1       2.116 -46.446 -22.051  1.00  0.00     0.071 A
HETATM    2  C3  UNL     1       1.483 -46.830 -20.891  1.00  0.00     0.074 A
HETATM    3  C4  UNL     1       0.108 -46.674 -20.661  1.00  0.00     0.083 A
HETATM    4  C6  UNL     1      -0.642 -46.107 -21.648  1.00  0.00     0.025 A
HETATM    5  C7  UNL     1      -0.016 -45.710 -22.831  1.00  0.00     0.033 A
HETATM    6  C8  UNL     1       1.335 -45.875 -23.032  1.00  0.00     0.053 A
HETATM    7  C9  UNL     1      -1.016 -45.128 -23.700  1.00  0.00     0.210 A
HETATM    8  O3  UNL     1      -0.833 -44.657 -24.849  1.00  0.00    -0.285 OA
HETATM    9  C10 UNL     1      -2.277 -45.195 -22.978  1.00  0.00     0.098 A
HETATM   10  C11 UNL     1      -2.074 -45.771 -21.771  1.00  0.00     0.015 A
HETATM   11  C12 UNL     1      -3.214 -45.941 -20.865  1.00  0.00    -0.040 A
HETATM   12  C13 UNL     1      -3.068 -46.641 -19.578  1.00  0.00     0.050 C
HETATM   13  C14 UNL     1      -4.455 -45.539 -21.181  1.00  0.00    -0.026 A
HETATM   14  C15 UNL     1      -5.533 -45.746 -20.206  1.00  0.00     0.051 C
HETATM   15  C16 UNL     1      -4.689 -44.922 -22.469  1.00  0.00     0.063 A
HETATM   16  C17 UNL     1      -5.902 -44.551 -22.806  1.00  0.00     0.161 C
HETATM   17  N1  UNL     1      -3.595 -44.762 -23.342  1.00  0.00    -0.345 N
HETATM   18  C18 UNL     1      -3.806 -44.132 -24.639  1.00  0.00     0.156 C
ENDROOT
BRANCH  16  19
HETATM   19  O4  UNL     1      -6.241 -43.956 -23.998  1.00  0.00    -0.370 OA
ATOM     20  H4  UNL     1      -5.744 -44.032 -24.804  1.00  0.00     0.216 HD
ENDBRANCH  16  19
BRANCH   3  21
HETATM   21  O2  UNL     1      -0.317 -47.112 -19.451  1.00  0.00    -0.355 OA
HETATM   22  C5  UNL     1       0.229 -48.135 -18.692  1.00  0.00     0.210 C
ENDBRANCH   3  21
BRANCH   1  23
HETATM   23  O1  UNL     1       3.475 -46.610 -22.258  1.00  0.00    -0.356 OA
HETATM   24  C1  UNL     1       4.196 -45.520 -22.818  1.00  0.00     0.210 C
ENDBRANCH   1  23
TORSDOF 3
ENDMDL