MODEL 3
REMARK VINA RESULT: -6.984307197      1.862      6.415
REMARK  3 active torsions:
REMARK  status: ('A' for Active; 'I' for Inactive)
REMARK    1  A    between atoms: C2_2  and  O2_4
REMARK    2  A    between atoms: O2_4  and  C3_5
REMARK    3  A    between atoms: C17_21  and  O5_22
ROOT
HETATM    1  C3  UNL     1       1.201 -45.666 -23.192  1.00  0.00     0.194 C
HETATM    2  C4  UNL     1       2.111 -46.521 -24.041  1.00  0.00     0.039 C
HETATM    3  C5  UNL     1       3.095 -47.307 -23.263  1.00  0.00     0.012 C
HETATM    4  C6  UNL     1       2.704 -47.646 -21.872  1.00  0.00    -0.036 C
HETATM    5  C7  UNL     1       3.439 -46.741 -20.932  1.00  0.00     0.015 C
HETATM    6  C8  UNL     1       3.221 -49.067 -21.595  1.00  0.00     0.015 C
HETATM    7  C9  UNL     1       1.229 -47.682 -21.677  1.00  0.00     0.088 C
HETATM    8  C10 UNL     1       0.820 -47.914 -20.252  1.00  0.00     0.139 C
HETATM    9  O3  UNL     1       0.882 -49.198 -19.817  1.00  0.00    -0.375 OA
HETATM   10  C11 UNL     1      -0.051 -49.408 -18.833  1.00  0.00     0.054 C
HETATM   11  C12 UNL     1      -0.980 -50.518 -19.311  1.00  0.00     0.045 C
HETATM   12  C13 UNL     1       0.525 -49.809 -17.509  1.00  0.00     0.045 C
HETATM   13  C14 UNL     1      -0.888 -48.127 -18.718  1.00  0.00     0.046 C
HETATM   14  C15 UNL     1      -0.687 -47.631 -20.157  1.00  0.00     0.042 C
HETATM   15  C16 UNL     1      -0.881 -46.177 -20.312  1.00  0.00     0.178 C
HETATM   16  O4  UNL     1       0.188 -45.655 -21.079  1.00  0.00    -0.352 OA
HETATM   17  C17 UNL     1       0.481 -46.488 -22.165  1.00  0.00     0.195 C
ENDROOT
BRANCH   1  18
HETATM   18  O2  UNL     1       0.253 -45.083 -24.066  1.00  0.00    -0.311 OA
BRANCH  18  19
HETATM   19  C2  UNL     1       0.615 -44.538 -25.281  1.00  0.00     0.255 C
HETATM   20  C1  UNL     1       0.089 -45.088 -26.557  1.00  0.00     0.126 C
HETATM   21  O1  UNL     1       1.402 -43.563 -25.290  1.00  0.00    -0.266 OA
ENDBRANCH  18  19
ENDBRANCH   1  18
BRANCH  17  22
HETATM   22  O5  UNL     1      -0.743 -46.891 -22.750  1.00  0.00    -0.363 OA
ATOM     23  H5  UNL     1      -0.631 -47.794 -23.025  1.00  0.00     0.213 HD
ENDBRANCH  17  22
TORSDOF 3
ENDMDL