MODEL 5
REMARK VINA RESULT: -5.534053389      3.530      5.584
REMARK  4 active torsions:
REMARK  status: ('A' for Active; 'I' for Inactive)
REMARK    1  A    between atoms: C2_2  and  C4_4
REMARK    2  A    between atoms: C11_13  and  O3_14
REMARK    3  A    between atoms: C15_19  and  O4_20
REMARK    4  A    between atoms: O4_20  and  C16_21
ROOT
HETATM    1  C4  UNL     1       3.454 -46.425 -22.953  1.00  0.00     0.044 C
HETATM    2  C5  UNL     1       2.571 -45.746 -21.874  1.00  0.00     0.025 C
HETATM    3  C6  UNL     1       1.446 -46.667 -21.626  1.00  0.00     0.006 C
HETATM    4  C7  UNL     1       0.277 -46.255 -22.490  1.00  0.00     0.019 C
HETATM    5  C8  UNL     1       1.926 -48.012 -22.053  1.00  0.00     0.057 C
HETATM    6  C9  UNL     1       2.364 -48.833 -20.894  1.00  0.00     0.143 C
HETATM    7  O1  UNL     1       1.124 -49.214 -20.248  1.00  0.00    -0.313 OA
HETATM    8  C10 UNL     1       0.267 -48.104 -20.088  1.00  0.00     0.294 C
HETATM    9  O2  UNL     1      -0.946 -48.200 -19.883  1.00  0.00    -0.262 OA
HETATM   10  C11 UNL     1       0.993 -46.784 -20.193  1.00  0.00     0.153 C
HETATM   11  C12 UNL     1       2.193 -46.937 -19.264  1.00  0.00     0.056 C
HETATM   12  C13 UNL     1       3.076 -48.025 -19.800  1.00  0.00     0.015 C
HETATM   13  C14 UNL     1       3.266 -49.029 -18.649  1.00  0.00     0.012 C
HETATM   14  C15 UNL     1       2.953 -47.789 -23.132  1.00  0.00     0.147 C
ENDROOT
BRANCH  14  15
HETATM   15  O4  UNL     1       3.819 -48.846 -23.310  1.00  0.00    -0.315 OA
BRANCH  15  16
HETATM   16  C16 UNL     1       3.585 -49.965 -24.122  1.00  0.00     0.255 C
HETATM   17  C17 UNL     1       3.344 -49.799 -25.579  1.00  0.00     0.126 C
HETATM   18  O5  UNL     1       3.590 -51.089 -23.564  1.00  0.00    -0.266 OA
ENDBRANCH  15  16
ENDBRANCH  14  15
BRANCH   1  19
HETATM   19  C2  UNL     1       4.864 -46.167 -22.676  1.00  0.00    -0.086 C
HETATM   20  C1  UNL     1       5.750 -46.804 -21.964  1.00  0.00     0.014 C
HETATM   21  C3  UNL     1       5.431 -44.905 -23.365  1.00  0.00     0.043 C
ENDBRANCH   1  19
BRANCH  10  22
HETATM   22  O3  UNL     1       0.130 -45.797 -19.795  1.00  0.00    -0.379 OA
ATOM     23  H3  UNL     1      -0.466 -46.057 -19.103  1.00  0.00     0.211 HD
ENDBRANCH  10  22
TORSDOF 4
ENDMDL