MODEL 2
REMARK VINA RESULT: -7.315233052      1.718      2.161
REMARK  6 active torsions:
REMARK  status: ('A' for Active; 'I' for Inactive)
REMARK    1  A    between atoms: N1_1  and  C1_5
REMARK    2  A    between atoms: C1_5  and  C2_6
REMARK    3  A    between atoms: C2_6  and  N2_7
REMARK       I    between atoms: N2_7  and  C3_9
REMARK    4  A    between atoms: C3_9  and  C4_11
REMARK    5  A    between atoms: C12_19  and  C13_20
REMARK    6  A    between atoms: C14_21  and  C15_22
ROOT
HETATM    1  C4  UNL     1      12.339  25.785   6.923  1.00  0.00     0.061 C
HETATM    2  C5  UNL     1      12.184  25.475   5.471  1.00  0.00     0.025 C
HETATM    3  C6  UNL     1      11.149  24.386   5.268  1.00  0.00    -0.013 C
HETATM    4  C7  UNL     1      11.497  23.134   5.986  1.00  0.00     0.010 C
HETATM    5  C8  UNL     1      11.243  23.126   7.448  1.00  0.00    -0.008 C
HETATM    6  C9  UNL     1       9.800  23.582   7.718  1.00  0.00     0.011 C
HETATM    7  C10 UNL     1       9.940  25.044   7.263  1.00  0.00     0.008 C
HETATM    8  C11 UNL     1       9.839  25.011   5.764  1.00  0.00     0.011 C
HETATM    9  C12 UNL     1      11.239  25.442   7.812  1.00  0.00     0.047 C
HETATM   10  C20 UNL     1      12.001  24.172   8.214  1.00  0.00     0.013 C
HETATM   11  C21 UNL     1      13.216  24.741   7.583  1.00  0.00     0.027 C
ENDROOT
BRANCH   1  12
HETATM   12  C3  UNL     1      12.957  27.140   7.098  1.00  0.00     0.228 C
HETATM   13  N2  UNL     1      12.506  28.240   6.328  1.00  0.00    -0.359 N
ATOM     14  H2  UNL     1      11.756  28.049   5.664  1.00  0.00     0.162 HD
HETATM   15  O1  UNL     1      13.882  27.314   7.932  1.00  0.00    -0.273 OA
BRANCH  13  16
HETATM   16  C2  UNL     1      12.981  29.576   6.375  1.00  0.00     0.150 C
BRANCH  16  17
HETATM   17  C1  UNL     1      13.013  30.224   5.018  1.00  0.00     0.249 C
BRANCH  17  18
HETATM   18  N1  UNL     1      14.354  30.653   4.662  1.00  0.00    -0.078 N
ATOM     19  H13 UNL     1      14.917  30.844   5.491  1.00  0.00     0.274 HD
ATOM     20  H12 UNL     1      14.901  29.883   4.275  1.00  0.00     0.274 HD
ATOM     21  H11 UNL     1      14.338  31.453   4.030  1.00  0.00     0.274 HD
ENDBRANCH  17  18
ENDBRANCH  16  17
ENDBRANCH  13  16
ENDBRANCH   1  12
BRANCH   9  22
HETATM   22  C13 UNL     1      11.180  26.360   8.978  1.00  0.00    -0.094 C
HETATM   23  C14 UNL     1      11.145  27.091   9.935  1.00  0.00    -0.101 C
BRANCH  23  24
HETATM   24  C15 UNL     1      11.118  27.967  11.117  1.00  0.00     0.065 C
HETATM   25  C16 UNL     1      11.251  27.167  12.395  1.00  0.00     0.017 C
HETATM   26  C17 UNL     1      12.724  27.228  12.674  1.00  0.00     0.001 C
HETATM   27  C18 UNL     1      13.045  28.683  12.337  1.00  0.00     0.001 C
HETATM   28  C19 UNL     1      12.333  28.852  11.027  1.00  0.00     0.017 C
ENDBRANCH  23  24
ENDBRANCH   9  22
TORSDOF 6
ENDMDL