MODEL 1
REMARK VINA RESULT: -8.094272712      0.000      0.000
REMARK  5 active torsions:
REMARK  status: ('A' for Active; 'I' for Inactive)
REMARK    1  A    between atoms: C6_6  and  C7_7
REMARK    2  A    between atoms: C7_7  and  O1_8
REMARK    3  A    between atoms: C10_12  and  C11_13
REMARK    4  A    between atoms: C13_15  and  O2_16
REMARK    5  A    between atoms: C14_18  and  C15_19
REMARK       I    between atoms: C15_19  and  N1_21
ROOT
HETATM    1  C11 UNL     1      10.667  24.049   6.912  1.00  0.00    -0.006 C
HETATM    2  C12 UNL     1      11.996  23.830   7.509  1.00  0.00     0.037 C
HETATM    3  C13 UNL     1      11.976  24.387   8.927  1.00  0.00     0.131 C
HETATM    4  C14 UNL     1      11.040  25.548   8.787  1.00  0.00     0.107 C
HETATM    5  C20 UNL     1      10.083  25.217   7.692  1.00  0.00     0.022 C
ENDROOT
BRANCH   1   6
HETATM    6  C10 UNL     1       9.699  22.931   6.969  1.00  0.00    -0.001 C
HETATM    7  C2  UNL     1       9.505  22.154   5.715  1.00  0.00    -0.030 C
HETATM    8  C1  UNL     1       9.541  23.008   4.467  1.00  0.00     0.016 C
HETATM    9  C3  UNL     1      10.409  20.980   5.547  1.00  0.00     0.010 C
HETATM   10  C6  UNL     1       8.132  21.547   5.912  1.00  0.00    -0.011 C
HETATM   11  C4  UNL     1       9.554  19.731   5.513  1.00  0.00     0.002 C
HETATM   12  C5  UNL     1       8.398  20.164   6.424  1.00  0.00     0.012 C
HETATM   13  C8  UNL     1       7.430  22.339   6.961  1.00  0.00     0.013 C
HETATM   14  C9  UNL     1       8.303  23.543   7.153  1.00  0.00     0.007 C
BRANCH  10  15
HETATM   15  C7  UNL     1       7.327  21.524   4.636  1.00  0.00     0.174 C
BRANCH  15  16
HETATM   16  O1  UNL     1       6.198  20.733   4.891  1.00  0.00    -0.400 OA
ATOM     17  H1  UNL     1       6.194  20.047   4.235  1.00  0.00     0.209 HD
ENDBRANCH  15  16
ENDBRANCH  10  15
ENDBRANCH   1   6
BRANCH   3  18
HETATM   18  O2  UNL     1      11.387  23.442   9.788  1.00  0.00    -0.395 OA
ATOM     19  H2  UNL     1      11.051  23.886  10.557  1.00  0.00     0.210 HD
ENDBRANCH   3  18
BRANCH   4  20
HETATM   20  C15 UNL     1      11.730  26.841   8.564  1.00  0.00     0.226 C
HETATM   21  O3  UNL     1      11.769  27.265   7.381  1.00  0.00    -0.273 OA
HETATM   22  N1  UNL     1      12.324  27.579   9.613  1.00  0.00    -0.352 N
HETATM   23  C16 UNL     1      12.398  27.291  11.016  1.00  0.00     0.126 C
HETATM   24  C19 UNL     1      13.015  28.858   9.458  1.00  0.00     0.126 C
HETATM   25  C17 UNL     1      12.478  28.628  11.730  1.00  0.00     0.021 C
HETATM   26  C18 UNL     1      12.366  29.637  10.609  1.00  0.00     0.021 C
ENDBRANCH   4  20
TORSDOF 5
ENDMDL