MODEL 5
REMARK VINA RESULT: -7.225194807      1.163      1.498
REMARK  5 active torsions:
REMARK  status: ('A' for Active; 'I' for Inactive)
REMARK    1  A    between atoms: C2_2  and  C3_3
REMARK    2  A    between atoms: C2_2  and  N3_21
REMARK       I    between atoms: C3_3  and  N1_5
REMARK    3  A    between atoms: N1_5  and  C4_7
REMARK    4  A    between atoms: C4_7  and  C5_8
REMARK       I    between atoms: C5_8  and  N2_10
REMARK    5  A    between atoms: N2_10  and  C6_12
ROOT
HETATM    1  C4  UNL     1      11.434  25.651   6.300  1.00  0.00     0.114 C
HETATM    2  C10 UNL     1      10.113  25.109   5.782  1.00  0.00     0.041 C
HETATM    3  C11 UNL     1       9.988  23.627   5.845  1.00  0.00     0.003 C
HETATM    4  C12 UNL     1      10.326  22.996   7.151  1.00  0.00     0.000 C
HETATM    5  C13 UNL     1      11.519  23.671   7.767  1.00  0.00     0.003 C
HETATM    6  C14 UNL     1      12.251  24.424   6.674  1.00  0.00     0.041 C
ENDROOT
BRANCH   1   7
HETATM    7  N1  UNL     1      11.202  26.397   7.496  1.00  0.00    -0.341 N
HETATM    8  C3  UNL     1      12.153  27.175   8.196  1.00  0.00     0.241 C
HETATM    9  O1  UNL     1      13.320  27.233   7.748  1.00  0.00    -0.271 OA
ATOM     10  H1  UNL     1      10.259  26.366   7.883  1.00  0.00     0.163 HD
BRANCH   8  11
HETATM   11  C2  UNL     1      11.858  27.931   9.433  1.00  0.00     0.171 C
HETATM   12  C1  UNL     1      12.170  29.389   9.219  1.00  0.00     0.042 C
BRANCH  11  13
HETATM   13  N3  UNL     1      12.447  27.362  10.579  1.00  0.00    -0.380 N
HETATM   14  C15 UNL     1      12.432  28.072  11.790  1.00  0.00     0.059 C
HETATM   15  C16 UNL     1      12.281  27.229  13.031  1.00  0.00     0.044 C
HETATM   16  C17 UNL     1      11.399  26.048  12.882  1.00  0.00     0.007 C
HETATM   17  C18 UNL     1      11.536  25.319  11.582  1.00  0.00     0.020 C
HETATM   18  C19 UNL     1      12.503  25.951  10.639  1.00  0.00     0.123 C
ENDBRANCH  11  13
ENDBRANCH   8  11
ENDBRANCH   1   7
BRANCH   1  19
HETATM   19  C5  UNL     1      12.143  26.428   5.245  1.00  0.00     0.246 C
HETATM   20  O2  UNL     1      13.037  25.916   4.524  1.00  0.00    -0.271 OA
HETATM   21  N2  UNL     1      11.828  27.779   5.020  1.00  0.00    -0.351 N
ATOM     22  H2  UNL     1      11.105  28.213   5.594  1.00  0.00     0.163 HD
BRANCH  21  23
HETATM   23  C6  UNL     1      12.481  28.578   4.015  1.00  0.00     0.022 C
HETATM   24  C7  UNL     1      11.887  29.987   4.097  1.00  0.00     0.037 C
HETATM   25  C8  UNL     1      12.198  28.076   2.617  1.00  0.00     0.037 C
HETATM   26  C9  UNL     1      13.968  28.656   4.194  1.00  0.00     0.037 C
ENDBRANCH  21  23
ENDBRANCH   1  19
TORSDOF 5
ENDMDL