MODEL 3
REMARK VINA RESULT: -7.397249222      1.699      2.296
REMARK  7 active torsions:
REMARK  status: ('A' for Active; 'I' for Inactive)
REMARK    1  A    between atoms: C2_2  and  O1_4
REMARK    2  A    between atoms: C2_2  and  C4_6
REMARK    3  A    between atoms: C4_6  and  C5_7
REMARK    4  A    between atoms: C6_8  and  C7_9
REMARK    5  A    between atoms: C7_9  and  N1_10
REMARK       I    between atoms: N2_13  and  C10_14
REMARK       I    between atoms: C10_14  and  N3_16
REMARK    6  A    between atoms: N3_16  and  C11_18
REMARK    7  A    between atoms: C11_18  and  C14_21
ROOT
HETATM    1  N1  UNL     1      12.598  28.188   7.992  1.00  0.00     0.102 N
HETATM    2  C8  UNL     1      13.594  27.162   8.166  1.00  0.00     0.293 C
HETATM    3  C9  UNL     1      13.051  25.870   8.680  1.00  0.00     0.158 C
HETATM    4  N2  UNL     1      11.776  25.540   8.123  1.00  0.00    -0.331 N
HETATM    5  C10 UNL     1      11.470  24.234   7.581  1.00  0.00     0.319 C
HETATM    6  O2  UNL     1      12.414  23.427   7.630  1.00  0.00    -0.247 OA
HETATM    7  N3  UNL     1      10.191  24.009   7.073  1.00  0.00    -0.334 N
ATOM      8  H3  UNL     1       9.556  24.805   7.145  1.00  0.00     0.165 HD
HETATM    9  C18 UNL     1      10.762  26.573   8.106  1.00  0.00     0.158 C
HETATM   10  C19 UNL     1      11.343  27.871   8.624  1.00  0.00     0.293 C
ENDROOT
BRANCH   7  11
HETATM   11  C11 UNL     1       9.626  22.843   6.465  1.00  0.00     0.034 C
HETATM   12  C12 UNL     1       8.748  22.133   7.552  1.00  0.00     0.039 C
HETATM   13  C13 UNL     1      10.631  21.860   5.966  1.00  0.00     0.039 C
BRANCH  11  14
HETATM   14  C14 UNL     1       8.672  23.189   5.366  1.00  0.00    -0.027 C
HETATM   15  C15 UNL     1       9.101  24.452   4.642  1.00  0.00     0.017 C
HETATM   16  C16 UNL     1       8.447  22.095   4.398  1.00  0.00     0.017 C
HETATM   17  C17 UNL     1       7.327  23.490   6.043  1.00  0.00     0.017 C
ENDBRANCH  11  14
ENDBRANCH   7  11
BRANCH   1  18
HETATM   18  C7  UNL     1      13.046  29.518   8.247  1.00  0.00     0.365 C
BRANCH  18  19
HETATM   19  C6  UNL     1      12.910  29.907   9.664  1.00  0.00    -0.076 C
HETATM   20  C5  UNL     1      12.789  30.205  10.827  1.00  0.00    -0.102 C
BRANCH  20  21
HETATM   21  C4  UNL     1      12.633  30.543  12.244  1.00  0.00     0.131 C
BRANCH  21  22
HETATM   22  C2  UNL     1      12.892  29.272  13.023  1.00  0.00     0.061 C
HETATM   23  C1  UNL     1      12.278  28.074  12.380  1.00  0.00     0.046 C
HETATM   24  C3  UNL     1      14.414  29.117  13.089  1.00  0.00     0.046 C
BRANCH  22  25
HETATM   25  O1  UNL     1      12.419  29.484  14.323  1.00  0.00    -0.390 OA
ATOM     26  H1  UNL     1      12.427  28.692  14.846  1.00  0.00     0.210 HD
ENDBRANCH  22  25
ENDBRANCH  21  22
ENDBRANCH  20  21
ENDBRANCH  18  19
ENDBRANCH   1  18
TORSDOF 7
ENDMDL