MODEL 2
REMARK VINA RESULT: -7.643034045      0.157      1.527
REMARK  3 active torsions:
REMARK  status: ('A' for Active; 'I' for Inactive)
REMARK    1  A    between atoms: C2_2  and  N1_4
REMARK       I    between atoms: N1_4  and  C4_6
REMARK       I    between atoms: C4_6  and  N2_8
REMARK    2  A    between atoms: C7_12  and  C8_13
REMARK       I    between atoms: C8_13  and  N3_15
REMARK    3  A    between atoms: N3_15  and  C9_17
ROOT
HETATM    1  C8  UNL     1       9.304  24.375   5.976  1.00  0.00     0.243 C
HETATM    2  O3  UNL     1       9.925  25.167   5.237  1.00  0.00    -0.271 OA
HETATM    3  N3  UNL     1       9.744  24.181   7.306  1.00  0.00    -0.350 N
ATOM      4  H3  UNL     1       9.216  23.528   7.886  1.00  0.00     0.163 HD
ENDROOT
BRANCH   1   5
HETATM    5  C7  UNL     1       8.114  23.660   5.423  1.00  0.00     0.207 C
HETATM    6  N2  UNL     1       8.529  22.506   4.670  1.00  0.00    -0.297 N
HETATM    7  C4  UNL     1       8.970  22.479   3.340  1.00  0.00     0.321 C
HETATM    8  C5  UNL     1       8.406  21.373   5.544  1.00  0.00     0.298 C
HETATM    9  N1  UNL     1       9.045  23.679   2.582  1.00  0.00    -0.339 N
HETATM   10  O1  UNL     1       9.296  21.381   2.830  1.00  0.00    -0.247 OA
ATOM     11  H1  UNL     1       8.773  24.558   3.021  1.00  0.00     0.164 HD
HETATM   12  O2  UNL     1       7.226  21.671   6.238  1.00  0.00    -0.369 OA
HETATM   13  C6  UNL     1       7.290  23.025   6.537  1.00  0.00     0.205 C
BRANCH   9  14
HETATM   14  C2  UNL     1       9.492  23.694   1.212  1.00  0.00     0.078 C
HETATM   15  C1  UNL     1       8.368  23.480   0.250  1.00  0.00     0.032 C
HETATM   16  C3  UNL     1      10.161  25.012   0.850  1.00  0.00     0.032 C
ENDBRANCH   9  14
ENDBRANCH   1   5
BRANCH   3  17
HETATM   17  C9  UNL     1      10.872  24.830   7.902  1.00  0.00     0.034 C
HETATM   18  C10 UNL     1      12.061  24.749   7.010  1.00  0.00     0.035 C
HETATM   19  C11 UNL     1      13.317  25.225   7.720  1.00  0.00    -0.012 C
HETATM   20  C12 UNL     1      13.112  26.688   8.029  1.00  0.00     0.009 C
HETATM   21  C16 UNL     1      13.501  24.418   8.964  1.00  0.00     0.009 C
HETATM   22  C13 UNL     1      11.880  26.847   8.887  1.00  0.00    -0.012 C
HETATM   23  C14 UNL     1      12.162  26.150  10.202  1.00  0.00     0.009 C
HETATM   24  C18 UNL     1      10.632  26.304   8.215  1.00  0.00     0.035 C
HETATM   25  C15 UNL     1      12.360  24.686   9.912  1.00  0.00    -0.012 C
HETATM   26  C17 UNL     1      11.104  24.177   9.254  1.00  0.00     0.035 C
ENDBRANCH   3  17
TORSDOF 3
ENDMDL