MODEL 3
REMARK VINA RESULT: -8.152479095      1.145      1.438
REMARK  4 active torsions:
REMARK  status: ('A' for Active; 'I' for Inactive)
REMARK    1  A    between atoms: C1_2  and  O2_3
REMARK    2  A    between atoms: C1_2  and  C10_15
REMARK    3  A    between atoms: O2_3  and  C2_4
REMARK       I    between atoms: N2_18  and  C13_19
REMARK       I    between atoms: C13_19  and  N3_21
REMARK    4  A    between atoms: N3_21  and  C14_23
ROOT
HETATM    1  O1  UNL     1      12.848  24.719   5.215  1.00  0.00    -0.265 OA
HETATM    2  C1  UNL     1      11.890  25.191   5.878  1.00  0.00     0.263 C
ENDROOT
BRANCH   2   3
HETATM    3  O2  UNL     1      10.624  24.757   5.513  1.00  0.00    -0.316 OA
BRANCH   3   4
HETATM    4  C2  UNL     1      10.171  23.417   5.642  1.00  0.00     0.136 C
HETATM    5  C3  UNL     1       8.938  23.151   4.850  1.00  0.00     0.065 C
HETATM    6  C4  UNL     1       7.685  22.948   5.580  1.00  0.00     0.189 C
HETATM    7  C5  UNL     1       7.029  21.616   5.180  1.00  0.00     0.033 C
HETATM    8  N1  UNL     1       7.788  22.861   7.018  1.00  0.00    -0.067 N
HETATM    9  C6  UNL     1       7.913  20.501   5.587  1.00  0.00     0.004 C
HETATM   10  C7  UNL     1       9.039  20.814   6.472  1.00  0.00     0.033 C
HETATM   11  C8  UNL     1       8.952  22.045   7.295  1.00  0.00     0.189 C
HETATM   12  C9  UNL     1      10.130  22.972   7.070  1.00  0.00     0.065 C
ATOM     13  H12 UNL     1       7.813  23.771   7.478  1.00  0.00     0.278 HD
ATOM     14  H11 UNL     1       6.938  22.517   7.465  1.00  0.00     0.278 HD
ENDBRANCH   3   4
ENDBRANCH   2   3
BRANCH   2  15
HETATM   15  C10 UNL     1      12.116  26.156   6.985  1.00  0.00     0.088 C
HETATM   16  C11 UNL     1      12.933  27.329   6.521  1.00  0.00     0.034 C
HETATM   17  C12 UNL     1      12.491  28.540   7.316  1.00  0.00     0.128 C
HETATM   18  N2  UNL     1      12.187  28.201   8.685  1.00  0.00    -0.334 N
HETATM   19  C13 UNL     1      12.909  28.749   9.764  1.00  0.00     0.318 C
HETATM   20  C17 UNL     1      11.115  27.277   8.941  1.00  0.00     0.128 C
HETATM   21  O3  UNL     1      13.855  29.561   9.556  1.00  0.00    -0.247 OA
HETATM   22  N3  UNL     1      12.582  28.396  11.087  1.00  0.00    -0.338 N
ATOM     23  H3  UNL     1      11.821  27.742  11.270  1.00  0.00     0.164 HD
HETATM   24  C18 UNL     1      10.807  26.580   7.610  1.00  0.00     0.034 C
BRANCH  22  25
HETATM   25  C14 UNL     1      13.332  28.967  12.186  1.00  0.00     0.086 A
HETATM   26  C15 UNL     1      12.768  28.792  13.591  1.00  0.00     0.027 A
HETATM   27  C16 UNL     1      12.747  30.113  12.931  1.00  0.00     0.027 A
ENDBRANCH  22  25
ENDBRANCH   2  15
TORSDOF 4
ENDMDL