MODEL 2
REMARK VINA RESULT: -8.173055276      1.507      2.062
REMARK  4 active torsions:
REMARK  status: ('A' for Active; 'I' for Inactive)
REMARK    1  A    between atoms: O1_2  and  C2_3
REMARK       I    between atoms: C2_3  and  N1_5
REMARK    2  A    between atoms: N1_5  and  C3_7
REMARK    3  A    between atoms: C11_15  and  C12_16
REMARK       I    between atoms: C12_16  and  N2_18
REMARK    4  A    between atoms: N2_18  and  C13_20
ROOT
HETATM    1  C3  UNL     1       7.506  19.312   6.091  1.00  0.00     0.091 C
HETATM    2  C4  UNL     1       8.088  18.992   4.742  1.00  0.00     0.030 C
HETATM    3  C5  UNL     1       9.355  19.709   4.437  1.00  0.00    -0.011 C
HETATM    4  C6  UNL     1       9.066  20.967   3.605  1.00  0.00     0.010 C
HETATM    5  C7  UNL     1       8.579  21.910   4.696  1.00  0.00     0.004 C
HETATM    6  C8  UNL     1       7.141  21.544   4.997  1.00  0.00     0.012 C
HETATM    7  C9  UNL     1       7.174  20.756   6.269  1.00  0.00     0.010 C
HETATM    8  C10 UNL     1       8.312  21.409   7.024  1.00  0.00     0.026 C
HETATM    9  C11 UNL     1       9.347  21.574   5.933  1.00  0.00     0.045 C
HETATM   10  C19 UNL     1      10.056  20.286   5.617  1.00  0.00     0.024 C
ENDROOT
BRANCH   9  11
HETATM   11  C12 UNL     1      10.270  22.660   6.306  1.00  0.00     0.227 C
HETATM   12  O3  UNL     1      11.132  23.055   5.473  1.00  0.00    -0.273 OA
HETATM   13  N2  UNL     1      10.238  23.294   7.578  1.00  0.00    -0.356 N
ATOM     14  H2  UNL     1       9.549  22.988   8.266  1.00  0.00     0.162 HD
BRANCH  13  15
HETATM   15  C13 UNL     1      11.157  24.363   7.927  1.00  0.00     0.084 C
HETATM   16  C14 UNL     1      10.421  25.649   7.847  1.00  0.00     0.025 C
HETATM   17  C15 UNL     1      10.999  26.791   8.614  1.00  0.00     0.002 C
HETATM   18  C16 UNL     1      12.155  26.397   9.503  1.00  0.00     0.000 C
HETATM   19  C17 UNL     1      11.694  25.155  10.254  1.00  0.00     0.002 C
HETATM   20  C18 UNL     1      11.739  24.035   9.269  1.00  0.00     0.025 C
ENDBRANCH  13  15
ENDBRANCH   9  11
BRANCH   1  21
HETATM   21  N1  UNL     1       6.338  18.527   6.328  1.00  0.00    -0.332 N
HETATM   22  C2  UNL     1       6.239  17.459   7.230  1.00  0.00     0.360 C
HETATM   23  O2  UNL     1       7.239  17.126   7.914  1.00  0.00    -0.239 OA
ATOM     24  H1  UNL     1       5.502  18.763   5.794  1.00  0.00     0.165 HD
BRANCH  22  25
HETATM   25  O1  UNL     1       5.071  16.736   7.410  1.00  0.00    -0.309 OA
HETATM   26  C1  UNL     1       4.491  15.948   6.415  1.00  0.00     0.215 C
ENDBRANCH  22  25
ENDBRANCH   1  21
TORSDOF 4
ENDMDL