MODEL 1
REMARK VINA RESULT: -7.027418098      0.000      0.000
REMARK  10 active torsions:
REMARK  status: ('A' for Active; 'I' for Inactive)
REMARK    1  A    between atoms: C5_5  and  C6_6
REMARK    2  A    between atoms: C6_6  and  O1_7
REMARK    3  A    between atoms: C6_6  and  N1_9
REMARK    4  A    between atoms: N1_9  and  C8_11
REMARK    5  A    between atoms: C13_16  and  O2_17
REMARK    6  A    between atoms: C13_16  and  C14_19
REMARK    7  A    between atoms: C15_20  and  C16_21
REMARK    8  A    between atoms: C16_21  and  N2_23
REMARK    9  A    between atoms: N2_23  and  O3_24
REMARK   10  A    between atoms: N2_23  and  C18_26
ROOT
HETATM    1  C1  UNL     1      13.093  27.857   6.859  1.00  0.00     0.048 C
HETATM    2  C2  UNL     1      12.586  26.444   6.782  1.00  0.00    -0.037 C
HETATM    3  C3  UNL     1      12.124  25.939   5.655  1.00  0.00    -0.015 C
HETATM    4  C4  UNL     1      11.606  24.552   5.507  1.00  0.00     0.070 C
HETATM    5  C5  UNL     1      11.123  24.010   6.770  1.00  0.00    -0.004 C
HETATM    6  C12 UNL     1      11.614  24.537   7.888  1.00  0.00     0.040 C
HETATM    7  C13 UNL     1      12.609  25.620   7.987  1.00  0.00     0.164 C
ENDROOT
BRANCH   7   8
HETATM    8  O2  UNL     1      13.871  25.023   8.195  1.00  0.00    -0.370 OA
ATOM      9  H2  UNL     1      13.807  24.223   8.703  1.00  0.00     0.212 HD
ENDBRANCH   7   8
BRANCH   7  10
HETATM   10  C14 UNL     1      12.311  26.513   9.133  1.00  0.00    -0.057 C
HETATM   11  C15 UNL     1      12.075  27.254  10.053  1.00  0.00    -0.075 C
BRANCH  11  12
HETATM   12  C16 UNL     1      11.799  28.184  11.172  1.00  0.00     0.192 C
HETATM   13  C17 UNL     1      12.410  29.510  10.754  1.00  0.00     0.048 C
BRANCH  12  14
HETATM   14  N2  UNL     1      12.378  27.686  12.394  1.00  0.00    -0.220 N
BRANCH  14  15
HETATM   15  O3  UNL     1      12.224  26.404  12.772  1.00  0.00    -0.284 OA
ATOM     16  H3  UNL     1      12.911  25.939  13.234  1.00  0.00     0.245 HD
ENDBRANCH  14  15
BRANCH  14  17
HETATM   17  C18 UNL     1      13.124  28.546  13.226  1.00  0.00     0.377 C
HETATM   18  O4  UNL     1      12.600  28.961  14.288  1.00  0.00    -0.281 OA
ENDBRANCH  14  17
ENDBRANCH  12  14
ENDBRANCH  11  12
ENDBRANCH   7  10
BRANCH   5  19
HETATM   19  C6  UNL     1      10.145  22.951   6.957  1.00  0.00     0.144 C
BRANCH  19  20
HETATM   20  O1  UNL     1       9.737  22.692   8.175  1.00  0.00    -0.346 OA
ATOM     21  H1  UNL     1       9.241  21.896   8.322  1.00  0.00     0.219 HD
ENDBRANCH  19  20
BRANCH  19  22
HETATM   22  N1  UNL     1       9.545  22.128   6.007  1.00  0.00    -0.358 N
HETATM   23  C7  UNL     1      10.031  20.827   5.656  1.00  0.00     0.152 C
BRANCH  22  24
HETATM   24  C8  UNL     1       8.338  22.629   5.311  1.00  0.00     0.023 C
HETATM   25  C9  UNL     1       8.708  23.257   4.001  1.00  0.00     0.037 C
HETATM   26  C10 UNL     1       7.575  23.601   6.148  1.00  0.00     0.037 C
HETATM   27  C11 UNL     1       7.456  21.431   5.060  1.00  0.00     0.037 C
ENDBRANCH  22  24
ENDBRANCH  19  22
ENDBRANCH   5  19
TORSDOF 10
ENDMDL