MODEL 1
REMARK VINA RESULT: -8.530521929      0.000      0.000
REMARK  3 active torsions:
REMARK  status: ('A' for Active; 'I' for Inactive)
REMARK    1  A    between atoms: N1_8  and  N2_9
REMARK       I    between atoms: N2_9  and  C8_11
REMARK    2  A    between atoms: C8_11  and  C9_13
REMARK       I    between atoms: C9_13  and  N3_15
REMARK    3  A    between atoms: N3_15  and  C10_17
ROOT
HETATM    1  C9  UNL     1      10.658  22.939   6.125  1.00  0.00     0.311 C
HETATM    2  O2  UNL     1      11.532  23.484   5.421  1.00  0.00    -0.262 OA
HETATM    3  N3  UNL     1      10.467  23.237   7.498  1.00  0.00    -0.344 N
ATOM      4  H3  UNL     1       9.730  22.742   8.000  1.00  0.00     0.163 HD
ENDROOT
BRANCH   1   5
HETATM    5  C8  UNL     1       9.765  21.931   5.538  1.00  0.00     0.327 C
HETATM    6  N2  UNL     1       9.996  20.569   5.772  1.00  0.00    -0.263 N
ATOM      7  H2  UNL     1      10.784  20.303   6.362  1.00  0.00     0.190 HD
HETATM    8  O1  UNL     1       8.790  22.262   4.822  1.00  0.00    -0.261 OA
BRANCH   6   9
HETATM    9  N1  UNL     1       9.198  19.562   5.237  1.00  0.00    -0.316 N
HETATM   10  C2  UNL     1       8.343  19.008   6.187  1.00  0.00     0.098 C
HETATM   11  C1  UNL     1       6.861  19.366   5.934  1.00  0.00     0.034 C
HETATM   12  C3  UNL     1       8.465  17.537   6.475  1.00  0.00     0.026 C
HETATM   13  C4  UNL     1       9.276  16.782   5.477  1.00  0.00     0.004 C
HETATM   14  C5  UNL     1      10.454  17.569   4.956  1.00  0.00     0.026 C
HETATM   15  C6  UNL     1       9.919  18.808   4.318  1.00  0.00     0.098 C
HETATM   16  C7  UNL     1       9.197  18.468   3.035  1.00  0.00     0.034 C
ENDBRANCH   6   9
ENDBRANCH   1   5
BRANCH   3  17
HETATM   17  C10 UNL     1      11.262  24.206   8.226  1.00  0.00     0.034 C
HETATM   18  C11 UNL     1      10.763  25.571   7.770  1.00  0.00     0.035 C
HETATM   19  C12 UNL     1      11.518  26.653   8.494  1.00  0.00    -0.012 C
HETATM   20  C13 UNL     1      11.298  26.437   9.968  1.00  0.00     0.009 C
HETATM   21  C17 UNL     1      12.966  26.529   8.083  1.00  0.00     0.009 C
HETATM   22  C14 UNL     1      11.873  25.122  10.430  1.00  0.00    -0.012 C
HETATM   23  C15 UNL     1      13.339  25.100  10.055  1.00  0.00     0.009 C
HETATM   24  C19 UNL     1      11.118  24.028   9.698  1.00  0.00     0.035 C
HETATM   25  C16 UNL     1      13.479  25.200   8.558  1.00  0.00    -0.012 C
HETATM   26  C18 UNL     1      12.732  24.112   7.849  1.00  0.00     0.035 C
ENDBRANCH   3  17
TORSDOF 3
ENDMDL