MODEL 3
REMARK VINA RESULT: -6.332303668      2.234      3.801
REMARK  3 active torsions:
REMARK  status: ('A' for Active; 'I' for Inactive)
REMARK    1  A    between atoms: C4_4  and  C5_5
REMARK    2  A    between atoms: C5_5  and  N1_6
REMARK    3  A    between atoms: N1_6  and  C6_8
ROOT
HETATM    1  N1  UNL     1      14.943 -17.584 -46.473  1.00  0.00    -0.362 N
ATOM      2  H1  UNL     1      15.045 -16.668 -46.037  1.00  0.00     0.162 HD
ENDROOT
BRANCH   1   3
HETATM    3  C5  UNL     1      13.813 -18.424 -46.167  1.00  0.00     0.127 C
BRANCH   3   4
HETATM    4  C4  UNL     1      13.258 -18.155 -44.789  1.00  0.00     0.003 C
HETATM    5  C3  UNL     1      13.239 -19.513 -44.071  1.00  0.00     0.006 C
HETATM    6  C2  UNL     1      12.467 -19.223 -42.788  1.00  0.00     0.000 C
HETATM    7  C1  UNL     1      13.323 -18.367 -41.925  1.00  0.00     0.000 C
HETATM    8  C10 UNL     1      13.963 -17.207 -42.567  1.00  0.00     0.000 C
HETATM    9  C9  UNL     1      14.118 -17.215 -44.029  1.00  0.00     0.006 C
ENDBRANCH   3   4
ENDBRANCH   1   3
BRANCH   1  10
HETATM   10  C6  UNL     1      15.915 -18.064 -47.397  1.00  0.00     0.171 C
HETATM   11  N2  UNL     1      15.794 -19.060 -48.211  1.00  0.00    -0.361 N
HETATM   12  C7  UNL     1      16.998 -19.247 -48.996  1.00  0.00     0.142 C
ATOM     13  H2  UNL     1      14.959 -19.640 -48.291  1.00  0.00     0.162 HD
HETATM   14  C8  UNL     1      18.028 -18.500 -48.176  1.00  0.00     0.142 C
HETATM   15  N3  UNL     1      17.212 -17.479 -47.548  1.00  0.00    -0.361 N
ATOM     16  H3  UNL     1      17.502 -16.541 -47.271  1.00  0.00     0.162 HD
ENDBRANCH   1  10
TORSDOF 3
ENDMDL