MODEL 2
REMARK VINA RESULT: -5.069604624      2.440      4.260
REMARK  4 active torsions:
REMARK  status: ('A' for Active; 'I' for Inactive)
REMARK    1  A    between atoms: C2_2  and  C3_3
REMARK    2  A    between atoms: C3_3  and  C4_4
REMARK    3  A    between atoms: C6_6  and  N1_7
REMARK    4  A    between atoms: C6_6  and  C7_11
ROOT
HETATM    1  C7  UNL     1      17.675 -18.661 -47.930  1.00  0.00     0.162 C
HETATM    2  C8  UNL     1      16.380 -18.350 -47.334  1.00  0.00     0.061 C
HETATM    3  N2  UNL     1      15.342 -18.109 -46.876  1.00  0.00    -0.197 NA
ENDROOT
BRANCH   1   4
HETATM    4  C6  UNL     1      17.484 -19.432 -49.243  1.00  0.00     0.139 C
HETATM    5  C5  UNL     1      17.155 -20.853 -48.976  1.00  0.00     0.072 C
HETATM    6  C4  UNL     1      18.331 -21.766 -48.850  1.00  0.00     0.188 C
HETATM    7  N3  UNL     1      19.336 -21.455 -49.863  1.00  0.00    -0.071 N
HETATM    8  C10 UNL     1      19.798 -20.091 -49.762  1.00  0.00     0.235 C
ATOM      9  H32 UNL     1      20.114 -22.114 -49.828  1.00  0.00     0.277 HD
ATOM     10  H31 UNL     1      18.993 -21.662 -50.801  1.00  0.00     0.277 HD
HETATM   11  C9  UNL     1      18.632 -19.209 -50.174  1.00  0.00     0.067 C
BRANCH   6  12
HETATM   12  C3  UNL     1      17.957 -23.206 -49.102  1.00  0.00     0.033 C
BRANCH  12  13
HETATM   13  C2  UNL     1      19.117 -24.051 -49.528  1.00  0.00    -0.002 C
HETATM   14  C1  UNL     1      19.750 -24.811 -48.405  1.00  0.00     0.005 C
ENDBRANCH  12  13
ENDBRANCH   6  12
BRANCH   4  15
HETATM   15  N1  UNL     1      16.299 -18.817 -49.866  1.00  0.00    -0.069 N
ATOM     16  H13 UNL     1      16.364 -18.766 -50.882  1.00  0.00     0.275 HD
ATOM     17  H12 UNL     1      15.470 -19.409 -49.816  1.00  0.00     0.275 HD
ATOM     18  H11 UNL     1      16.164 -17.905 -49.430  1.00  0.00     0.275 HD
ENDBRANCH   4  15
ENDBRANCH   1   4
TORSDOF 4
ENDMDL