MODEL 5
REMARK VINA RESULT: -5.516122142      4.335      7.447
REMARK  4 active torsions:
REMARK  status: ('A' for Active; 'I' for Inactive)
REMARK    1  A    between atoms: C2_2  and  C4_4
REMARK    2  A    between atoms: C4_4  and  N2_8
REMARK    3  A    between atoms: N2_8  and  O1_10
REMARK    4  A    between atoms: O1_10  and  C5_11
ROOT
HETATM    1  N2  UNL     1      15.462 -17.800 -46.973  1.00  0.00    -0.252 N
ATOM      2  H2  UNL     1      15.658 -16.800 -46.938  1.00  0.00     0.196 HD
ENDROOT
BRANCH   1   3
HETATM    3  C4  UNL     1      14.289 -18.314 -46.359  1.00  0.00     0.098 C
HETATM    4  N1  UNL     1      13.336 -18.728 -47.121  1.00  0.00    -0.387 N
ATOM      5  H12 UNL     1      12.494 -19.097 -46.680  1.00  0.00     0.157 HD
ATOM      6  H11 UNL     1      13.420 -18.689 -48.137  1.00  0.00     0.157 HD
BRANCH   3   7
HETATM    7  C2  UNL     1      14.169 -18.370 -44.897  1.00  0.00     0.046 C
HETATM    8  C1  UNL     1      13.026 -19.249 -44.432  1.00  0.00     0.017 C
HETATM    9  C3  UNL     1      13.983 -16.981 -44.325  1.00  0.00     0.017 C
ENDBRANCH   3   7
ENDBRANCH   1   3
BRANCH   1  10
HETATM   10  O1  UNL     1      16.323 -18.632 -47.605  1.00  0.00    -0.246 OA
BRANCH  10  11
HETATM   11  C5  UNL     1      17.410 -17.948 -48.137  1.00  0.00     0.288 C
HETATM   12  C6  UNL     1      18.631 -18.841 -47.898  1.00  0.00     0.063 C
HETATM   13  C7  UNL     1      19.471 -18.123 -46.854  1.00  0.00     0.007 C
HETATM   14  C8  UNL     1      19.933 -16.832 -47.531  1.00  0.00     0.026 C
HETATM   15  C9  UNL     1      18.676 -16.048 -47.847  1.00  0.00     0.171 C
HETATM   16  O2  UNL     1      17.520 -16.731 -47.519  1.00  0.00    -0.359 OA
ENDBRANCH  10  11
ENDBRANCH   1  10
TORSDOF 4
ENDMDL