MODEL 1
REMARK VINA RESULT: -5.061501524      0.000      0.000
REMARK  3 active torsions:
REMARK  status: ('A' for Active; 'I' for Inactive)
REMARK    1  A    between atoms: S1_2  and  N1_5
REMARK    2  A    between atoms: N1_5  and  C3_7
REMARK    3  A    between atoms: C3_7  and  C4_11
ROOT
HETATM    1  C3  UNL     1      17.128 -21.320 -49.500  1.00  0.00     0.086 C
HETATM    2  N2  UNL     1      15.957 -21.814 -49.350  1.00  0.00    -0.388 N
ATOM      3  H21 UNL     1      15.155 -21.185 -49.309  1.00  0.00     0.157 HD
ATOM      4  H22 UNL     1      15.857 -22.826 -49.273  1.00  0.00     0.157 HD
ENDROOT
BRANCH   1   5
HETATM    5  N1  UNL     1      18.236 -22.189 -49.556  1.00  0.00    -0.306 N
ATOM      6  H1  UNL     1      19.157 -21.802 -49.763  1.00  0.00     0.176 HD
BRANCH   5   7
HETATM    7  S1  UNL     1      18.091 -23.868 -49.289  1.00  0.00     0.018 S
HETATM    8  C1  UNL     1      19.424 -24.500 -48.687  1.00  0.00     0.136 C
HETATM    9  C2  UNL     1      17.641 -24.770 -50.724  1.00  0.00     0.136 C
HETATM   10  O1  UNL     1      17.100 -24.180 -48.185  1.00  0.00    -0.250 OA
ENDBRANCH   5   7
ENDBRANCH   1   5
BRANCH   1  11
HETATM   11  C4  UNL     1      17.273 -19.856 -49.611  1.00  0.00     0.053 C
HETATM   12  C5  UNL     1      16.742 -19.065 -48.447  1.00  0.00     0.012 C
HETATM   13  C6  UNL     1      18.142 -18.793 -48.002  1.00  0.00     0.002 C
HETATM   14  C7  UNL     1      18.649 -19.324 -49.309  1.00  0.00     0.012 C
ENDBRANCH   1  11
TORSDOF 3
ENDMDL