MODEL 4
REMARK VINA RESULT: -6.066416271      1.190      1.979
REMARK  3 active torsions:
REMARK  status: ('A' for Active; 'I' for Inactive)
REMARK    1  A    between atoms: C3_6  and  C4_7
REMARK    2  A    between atoms: C4_7  and  C5_8
REMARK    3  A    between atoms: C5_8  and  C6_9
ROOT
HETATM    1  N1  UNL     1      15.772 -18.094 -47.265  1.00  0.00    -0.064 NA
HETATM    2  C1  UNL     1      14.650 -18.324 -46.403  1.00  0.00     0.184 C
HETATM    3  N2  UNL     1      13.484 -18.759 -46.790  1.00  0.00    -0.363 N
ATOM      4  H2  UNL     1      13.236 -18.986 -47.754  1.00  0.00     0.162 HD
HETATM    5  C2  UNL     1      12.589 -18.873 -45.654  1.00  0.00     0.147 C
HETATM    6  C3  UNL     1      13.533 -18.892 -44.507  1.00  0.00     0.102 C
HETATM    7  N3  UNL     1      14.645 -18.112 -45.002  1.00  0.00    -0.358 N
ATOM      8  H3  UNL     1      15.288 -17.535 -44.460  1.00  0.00     0.162 HD
ENDROOT
BRANCH   6   9
HETATM    9  C4  UNL     1      12.978 -18.314 -43.234  1.00  0.00     0.027 C
BRANCH   9  10
HETATM   10  C5  UNL     1      12.182 -19.416 -42.556  1.00  0.00     0.007 C
BRANCH  10  11
HETATM   11  C6  UNL     1      12.918 -19.976 -41.357  1.00  0.00    -0.014 C
HETATM   12  C7  UNL     1      13.100 -18.969 -40.259  1.00  0.00     0.004 C
HETATM   13  C8  UNL     1      12.279 -19.454 -39.077  1.00  0.00     0.000 C
HETATM   14  C9  UNL     1      11.198 -20.264 -39.765  1.00  0.00     0.000 C
HETATM   15  C10 UNL     1      12.020 -21.059 -40.769  1.00  0.00     0.004 C
ENDBRANCH  10  11
ENDBRANCH   9  10
ENDBRANCH   6   9
TORSDOF 3
ENDMDL