MODEL 5
REMARK VINA RESULT: -5.270025237      6.120      7.919
REMARK  4 active torsions:
REMARK  status: ('A' for Active; 'I' for Inactive)
REMARK    1  A    between atoms: C2_2  and  N1_3
REMARK       I    between atoms: N1_3  and  C3_5
REMARK       I    between atoms: C3_5  and  N4_12
REMARK    2  A    between atoms: N2_6  and  N3_8
REMARK    3  A    between atoms: N3_8  and  O1_10
REMARK    4  A    between atoms: N4_12  and  C4_14
ROOT
HETATM    1  N1  UNL     1      17.860 -18.786 -47.979  1.00  0.00    -0.225 N
ATOM      2  H1  UNL     1      18.443 -19.534 -47.602  1.00  0.00     0.177 HD
HETATM    3  C3  UNL     1      16.530 -19.090 -48.302  1.00  0.00     0.690 C
HETATM    4  N2  UNL     1      16.276 -20.093 -49.104  1.00  0.00    -0.113 N
ATOM      5  H2  UNL     1      15.311 -20.320 -49.343  1.00  0.00     0.207 HD
HETATM    6  N4  UNL     1      15.402 -18.379 -47.815  1.00  0.00    -0.220 N
ATOM      7  H4  UNL     1      14.907 -17.719 -48.415  1.00  0.00     0.178 HD
ENDROOT
BRANCH   1   8
HETATM    8  C2  UNL     1      18.459 -17.479 -48.145  1.00  0.00     0.133 C
HETATM    9  C1  UNL     1      19.671 -17.333 -47.253  1.00  0.00     0.027 C
ENDBRANCH   1   8
BRANCH   4  10
HETATM   10  N3  UNL     1      17.316 -20.852 -49.634  1.00  0.00    -0.196 N
ATOM     11  H3  UNL     1      17.365 -21.832 -49.354  1.00  0.00     0.216 HD
BRANCH  10  12
HETATM   12  O1  UNL     1      18.177 -20.451 -50.405  1.00  0.00    -0.274 OA
ATOM     13  H1  UNL     1      18.993 -20.894 -50.609  1.00  0.00     0.246 HD
ENDBRANCH  10  12
ENDBRANCH   4  10
BRANCH   6  14
HETATM   14  C4  UNL     1      14.972 -18.599 -46.477  1.00  0.00     0.099 C
HETATM   15  C5  UNL     1      13.638 -19.333 -46.403  1.00  0.00     0.026 C
HETATM   16  C6  UNL     1      12.963 -18.821 -45.136  1.00  0.00     0.002 C
HETATM   17  C7  UNL     1      13.997 -17.910 -44.472  1.00  0.00     0.002 C
HETATM   18  C8  UNL     1      14.641 -17.321 -45.735  1.00  0.00     0.026 C
ENDBRANCH   6  14
TORSDOF 4
ENDMDL