MODEL 1
REMARK VINA RESULT: -6.712750244      0.000      0.000
REMARK  5 active torsions:
REMARK  status: ('A' for Active; 'I' for Inactive)
REMARK    1  A    between atoms: C2_2  and  O1_3
REMARK    2  A    between atoms: C2_2  and  C5_11
REMARK    3  A    between atoms: O1_3  and  C3_4
REMARK    4  A    between atoms: C3_4  and  C4_6
REMARK    5  A    between atoms: C4_6  and  N1_7
ROOT
HETATM    1  C1  UNL     1      14.802 -17.546 -41.611  1.00  0.00     0.047 C
HETATM    2  C2  UNL     1      13.853 -18.345 -42.025  1.00  0.00     0.051 C
ENDROOT
BRANCH   2   3
HETATM    3  O1  UNL     1      13.948 -18.935 -43.266  1.00  0.00    -0.282 OA
BRANCH   3   4
HETATM    4  C3  UNL     1      13.669 -18.316 -44.453  1.00  0.00     0.289 C
HETATM    5  O2  UNL     1      13.992 -17.103 -44.599  1.00  0.00    -0.263 OA
BRANCH   4   6
HETATM    6  C4  UNL     1      12.995 -19.017 -45.583  1.00  0.00     0.340 C
BRANCH   6   7
HETATM    7  N1  UNL     1      13.609 -18.681 -46.837  1.00  0.00    -0.070 N
ATOM      8  H13 UNL     1      14.624 -18.621 -46.755  1.00  0.00     0.274 HD
ATOM      9  H12 UNL     1      13.553 -19.454 -47.502  1.00  0.00     0.274 HD
ATOM     10  H11 UNL     1      13.211 -17.825 -47.222  1.00  0.00     0.274 HD
ENDBRANCH   6   7
ENDBRANCH   4   6
ENDBRANCH   3   4
ENDBRANCH   2   3
BRANCH   2  11
HETATM   11  C5  UNL     1      12.686 -18.620 -41.180  1.00  0.00     0.042 C
HETATM   12  C6  UNL     1      11.791 -19.693 -41.722  1.00  0.00     0.011 C
HETATM   13  C7  UNL     1      11.634 -20.885 -40.864  1.00  0.00     0.001 C
HETATM   14  C8  UNL     1      11.503 -20.644 -39.409  1.00  0.00     0.000 C
HETATM   15  C9  UNL     1      11.819 -19.201 -39.009  1.00  0.00     0.001 C
HETATM   16  C10 UNL     1      13.122 -18.884 -39.758  1.00  0.00     0.011 C
ENDBRANCH   2  11
TORSDOF 5
ENDMDL