MODEL 1
REMARK VINA RESULT: -6.995907356      0.000      0.000
REMARK  4 active torsions:
REMARK  status: ('A' for Active; 'I' for Inactive)
REMARK       I    between atoms: C1_2  and  N2_4
REMARK    1  A    between atoms: N2_4  and  N3_6
REMARK    2  A    between atoms: N3_6  and  N4_8
REMARK    3  A    between atoms: N4_8  and  C2_10
REMARK    4  A    between atoms: C2_10  and  C3_11
ROOT
HETATM    1  N4  UNL     1      13.772 -18.871 -47.099  1.00  0.00    -0.322 N
ATOM      2  H4  UNL     1      13.375 -19.641 -47.637  1.00  0.00     0.181 HD
ENDROOT
BRANCH   1   3
HETATM    3  N3  UNL     1      14.944 -18.399 -47.356  1.00  0.00    -0.243 N
ATOM      4  H3  UNL     1      15.293 -17.619 -46.797  1.00  0.00     0.208 HD
BRANCH   3   5
HETATM    5  N2  UNL     1      15.747 -18.909 -48.362  1.00  0.00    -0.240 N
HETATM    6  C1  UNL     1      17.149 -18.829 -48.228  1.00  0.00     0.348 C
HETATM    7  N1  UNL     1      18.005 -19.354 -49.263  1.00  0.00    -0.038 NA
HETATM    8  O1  UNL     1      17.689 -18.308 -47.219  1.00  0.00    -0.249 OA
ATOM      9  H2  UNL     1      15.330 -19.337 -49.188  1.00  0.00     0.193 HD
ENDBRANCH   3   5
ENDBRANCH   1   3
BRANCH   1  10
HETATM   10  C2  UNL     1      13.055 -18.259 -46.018  1.00  0.00     0.145 C
BRANCH  10  11
HETATM   11  C3  UNL     1      13.738 -18.509 -44.666  1.00  0.00     0.005 C
HETATM   12  C4  UNL     1      12.806 -19.384 -43.906  1.00  0.00     0.006 C
HETATM   13  C5  UNL     1      13.041 -19.470 -42.451  1.00  0.00     0.000 C
HETATM   14  C6  UNL     1      13.860 -18.387 -41.854  1.00  0.00     0.000 C
HETATM   15  C7  UNL     1      13.813 -17.087 -42.595  1.00  0.00     0.000 C
HETATM   16  C8  UNL     1      14.016 -17.188 -44.056  1.00  0.00     0.006 C
ENDBRANCH  10  11
ENDBRANCH   1  10
TORSDOF 4
ENDMDL