MODEL 1
REMARK VINA RESULT: -4.465330236      0.000      0.000
REMARK  4 active torsions:
REMARK  status: ('A' for Active; 'I' for Inactive)
REMARK       I    between atoms: C2_2  and  N1_4
REMARK    1  A    between atoms: N1_4  and  C3_6
REMARK    2  A    between atoms: C3_6  and  C4_7
REMARK    3  A    between atoms: C4_7  and  S1_8
REMARK    4  A    between atoms: S1_8  and  C5_9
ROOT
HETATM    1  C3  UNL     1      13.772 -18.058 -41.432  1.00  0.00     0.133 C
ENDROOT
BRANCH   1   2
HETATM    2  N1  UNL     1      12.817 -19.109 -41.250  1.00  0.00    -0.361 N
HETATM    3  C2  UNL     1      12.473 -19.570 -39.976  1.00  0.00     0.213 C
HETATM    4  C1  UNL     1      11.469 -20.675 -39.795  1.00  0.00     0.117 C
HETATM    5  O1  UNL     1      12.963 -19.108 -38.911  1.00  0.00    -0.274 OA
ATOM      6  H1  UNL     1      12.378 -19.531 -42.069  1.00  0.00     0.162 HD
ENDBRANCH   1   2
BRANCH   1   7
HETATM    7  C4  UNL     1      14.024 -17.742 -42.882  1.00  0.00     0.101 C
BRANCH   7   8
HETATM    8  S1  UNL     1      13.243 -18.994 -43.935  1.00  0.00    -0.102 SA
BRANCH   8   9
HETATM    9  C5  UNL     1      13.487 -18.541 -45.631  1.00  0.00     0.149 C
HETATM   10  N2  UNL     1      12.524 -18.847 -46.616  1.00  0.00    -0.082 NA
HETATM   11  S2  UNL     1      14.843 -17.760 -46.053  1.00  0.00    -0.056 SA
ENDBRANCH   8   9
ENDBRANCH   7   8
ENDBRANCH   1   7
TORSDOF 4
ENDMDL