MODEL 1
REMARK VINA RESULT: -7.199056718      0.000      0.000
REMARK  5 active torsions:
REMARK  status: ('A' for Active; 'I' for Inactive)
REMARK    1  A    between atoms: N1_1  and  N2_4
REMARK       I    between atoms: N2_4  and  C1_6
REMARK    2  A    between atoms: C1_6  and  O2_8
REMARK    3  A    between atoms: O2_8  and  C2_9
REMARK    4  A    between atoms: C2_9  and  C3_10
REMARK    5  A    between atoms: C3_10  and  C4_11
ROOT
HETATM    1  O2  UNL     1      13.852 -17.282 -44.205  1.00  0.00    -0.303 OA
ENDROOT
BRANCH   1   2
HETATM    2  C1  UNL     1      13.924 -18.080 -45.333  1.00  0.00     0.378 C
HETATM    3  N2  UNL     1      14.738 -17.740 -46.453  1.00  0.00    -0.252 N
ATOM      4  H2  UNL     1      15.290 -16.883 -46.434  1.00  0.00     0.191 HD
HETATM    5  O1  UNL     1      13.250 -19.136 -45.363  1.00  0.00    -0.237 OA
BRANCH   3   6
HETATM    6  N1  UNL     1      14.787 -18.570 -47.576  1.00  0.00    -0.341 N
ATOM      7  H12 UNL     1      15.639 -19.099 -47.757  1.00  0.00     0.177 HD
ATOM      8  H11 UNL     1      13.985 -18.645 -48.203  1.00  0.00     0.177 HD
ENDBRANCH   3   6
ENDBRANCH   1   2
BRANCH   1   9
HETATM    9  C2  UNL     1      14.387 -17.725 -42.970  1.00  0.00     0.181 C
BRANCH   9  10
HETATM   10  C3  UNL     1      13.281 -17.717 -41.958  1.00  0.00     0.031 C
BRANCH  10  11
HETATM   11  C4  UNL     1      13.081 -19.044 -41.284  1.00  0.00    -0.013 C
HETATM   12  C5  UNL     1      13.223 -18.986 -39.800  1.00  0.00     0.005 C
HETATM   13  C6  UNL     1      11.882 -19.154 -39.091  1.00  0.00     0.000 C
HETATM   14  C7  UNL     1      11.393 -20.565 -39.302  1.00  0.00     0.000 C
HETATM   15  C8  UNL     1      11.631 -20.922 -40.748  1.00  0.00     0.000 C
HETATM   16  C9  UNL     1      11.750 -19.677 -41.619  1.00  0.00     0.005 C
ENDBRANCH  10  11
ENDBRANCH   9  10
ENDBRANCH   1   9
TORSDOF 5
ENDMDL