MODEL 4
REMARK VINA RESULT: -7.104496869      3.076      5.998
REMARK  18 active torsions:
REMARK  status: ('A' for Active; 'I' for Inactive)
REMARK    1  A    between atoms: C3_3  and  C4_4
REMARK    2  A    between atoms: C5_5  and  C6_6
REMARK    3  A    between atoms: C7_7  and  C8_8
REMARK    4  A    between atoms: C8_8  and  C9_9
REMARK    5  A    between atoms: C8_8  and  C11_14
REMARK    6  A    between atoms: C10_10  and  N1_11
REMARK       I    between atoms: C11_14  and  N2_16
REMARK    7  A    between atoms: N2_16  and  C12_18
REMARK    8  A    between atoms: C12_18  and  C13_19
REMARK    9  A    between atoms: C14_20  and  C15_21
REMARK   10  A    between atoms: C15_21  and  C16_22
REMARK   11  A    between atoms: C16_22  and  N3_23
REMARK   12  A    between atoms: N3_23  and  O2_24
REMARK   13  A    between atoms: N3_23  and  C17_26
REMARK   14  A    between atoms: C17_26  and  C18_27
REMARK       I    between atoms: C18_27  and  N4_29
REMARK   15  A    between atoms: N4_29  and  C19_31
REMARK   16  A    between atoms: C19_31  and  C20_32
REMARK   17  A    between atoms: C20_32  and  C21_33
REMARK   18  A    between atoms: C24_37  and  O4_38
ROOT
HETATM    1  C1  UNL     1      22.362   6.109  14.835  1.00  0.00     0.113 C
HETATM    2  C2  UNL     1      22.727   5.687  16.200  1.00  0.00    -0.097 C
HETATM    3  C3  UNL     1      23.023   5.360  17.327  1.00  0.00    -0.015 C
ENDROOT
BRANCH   3   4
HETATM    4  C4  UNL     1      23.349   4.993  18.654  1.00  0.00    -0.001 C
HETATM    5  C5  UNL     1      23.619   4.661  19.783  1.00  0.00    -0.001 C
BRANCH   5   6
HETATM    6  C6  UNL     1      23.929   4.247  21.107  1.00  0.00    -0.012 C
HETATM    7  C7  UNL     1      24.212   3.888  22.225  1.00  0.00    -0.065 C
BRANCH   7   8
HETATM    8  C8  UNL     1      24.581   3.435  23.589  1.00  0.00     0.238 C
BRANCH   8   9
HETATM    9  C9  UNL     1      24.126   4.412  24.590  1.00  0.00    -0.057 C
HETATM   10  C10 UNL     1      23.745   5.236  25.406  1.00  0.00     0.005 C
BRANCH  10  11
HETATM   11  N1  UNL     1      23.294   6.189  26.330  1.00  0.00    -0.359 N
ATOM     12  H12 UNL     1      23.566   5.213  26.204  1.00  0.00     0.166 HD
ATOM     13  H11 UNL     1      22.966   6.892  26.992  1.00  0.00     0.166 HD
ENDBRANCH  10  11
ENDBRANCH   8   9
BRANCH   8  14
HETATM   14  C11 UNL     1      23.875   2.143  23.812  1.00  0.00     0.245 C
HETATM   15  O1  UNL     1      23.205   1.680  22.856  1.00  0.00    -0.271 OA
HETATM   16  N2  UNL     1      24.002   1.519  25.085  1.00  0.00    -0.356 N
ATOM     17  H2  UNL     1      24.556   1.957  25.820  1.00  0.00     0.162 HD
BRANCH  16  18
HETATM   18  C12 UNL     1      23.344   0.270  25.323  1.00  0.00     0.149 C
BRANCH  18  19
HETATM   19  C13 UNL     1      24.085  -0.943  24.961  1.00  0.00    -0.011 C
HETATM   20  C14 UNL     1      23.635  -1.963  24.245  1.00  0.00    -0.027 C
BRANCH  20  21
HETATM   21  C15 UNL     1      24.504  -3.142  23.953  1.00  0.00     0.048 C
BRANCH  21  22
HETATM   22  C16 UNL     1      23.779  -4.457  23.941  1.00  0.00     0.153 C
BRANCH  22  23
HETATM   23  N3  UNL     1      23.289  -4.751  22.647  1.00  0.00    -0.288 N
BRANCH  23  24
HETATM   24  O2  UNL     1      22.347  -5.498  22.538  1.00  0.00    -0.292 OA
ATOM     25  H2  UNL     1      22.501  -6.387  22.240  1.00  0.00     0.244 HD
ENDBRANCH  23  24
BRANCH  23  26
HETATM   26  C17 UNL     1      23.830  -4.254  21.438  1.00  0.00     0.252 C
BRANCH  26  27
HETATM   27  C18 UNL     1      22.842  -3.566  20.595  1.00  0.00     0.237 C
HETATM   28  O3  UNL     1      22.974  -3.668  19.322  1.00  0.00    -0.272 OA
HETATM   29  N4  UNL     1      21.778  -2.808  21.121  1.00  0.00    -0.359 N
ATOM     30  H4  UNL     1      21.684  -2.724  22.133  1.00  0.00     0.162 HD
BRANCH  29  31
HETATM   31  C19 UNL     1      20.826  -2.152  20.278  1.00  0.00     0.127 C
BRANCH  31  32
HETATM   32  C20 UNL     1      19.490  -2.010  20.915  1.00  0.00     0.058 C
BRANCH  32  33
HETATM   33  C21 UNL     1      18.950  -0.631  20.892  1.00  0.00    -0.054 A
HETATM   34  C22 UNL     1      17.736  -0.391  21.511  1.00  0.00     0.029 A
HETATM   35  C23 UNL     1      17.177   0.861  21.510  1.00  0.00     0.045 A
HETATM   36 BR1  UNL     1      15.490   1.213  22.368  1.00  0.00    -0.048 Br
HETATM   37  C24 UNL     1      17.818   1.907  20.889  1.00  0.00     0.100 A
HETATM   38  C25 UNL     1      19.020   1.657  20.279  1.00  0.00     0.045 A
HETATM   39 BR2  UNL     1      19.993   3.051  19.386  1.00  0.00    -0.048 Br
HETATM   40  C26 UNL     1      19.615   0.387  20.264  1.00  0.00     0.029 A
BRANCH  37  41
HETATM   41  O4  UNL     1      17.285   3.193  20.866  1.00  0.00    -0.358 OA
ATOM     42  H4  UNL     1      16.668   3.496  21.523  1.00  0.00     0.217 HD
ENDBRANCH  37  41
ENDBRANCH  32  33
ENDBRANCH  31  32
ENDBRANCH  29  31
ENDBRANCH  26  27
ENDBRANCH  23  26
ENDBRANCH  22  23
ENDBRANCH  21  22
ENDBRANCH  20  21
ENDBRANCH  18  19
ENDBRANCH  16  18
ENDBRANCH   8  14
ENDBRANCH   7   8
ENDBRANCH   5   6
ENDBRANCH   3   4
TORSDOF 18
ENDMDL