MODEL 2
REMARK VINA RESULT: -7.985226937      4.325      6.907
REMARK  13 active torsions:
REMARK  status: ('A' for Active; 'I' for Inactive)
REMARK    1  A    between atoms: C2_2  and  C3_3
REMARK    2  A    between atoms: C11_17  and  N3_18
REMARK    3  A    between atoms: N3_18  and  C12_20
REMARK    4  A    between atoms: C12_20  and  C13_21
REMARK    5  A    between atoms: C13_21  and  C14_22
REMARK    6  A    between atoms: C14_22  and  C15_23
REMARK    7  A    between atoms: C15_23  and  N4_24
REMARK    8  A    between atoms: N4_24  and  C17_27
REMARK    9  A    between atoms: C17_27  and  C18_28
REMARK       I    between atoms: C18_28  and  N5_30
REMARK   10  A    between atoms: N5_30  and  C19_32
REMARK   11  A    between atoms: C19_32  and  C20_33
REMARK   12  A    between atoms: C20_33  and  C21_34
REMARK   13  A    between atoms: C21_34  and  C22_35
ROOT
HETATM    1  C3  UNL     1      22.008   4.172  17.742  1.00  0.00     0.027 A
HETATM    2  C4  UNL     1      22.127   4.825  16.511  1.00  0.00    -0.021 A
HETATM    3  C5  UNL     1      23.360   5.524  16.167  1.00  0.00     0.052 C
HETATM    4  C6  UNL     1      21.072   4.793  15.638  1.00  0.00     0.022 A
HETATM    5 BR1  UNL     1      21.161   5.664  13.934  1.00  0.00    -0.050 Br
HETATM    6  C7  UNL     1      19.932   4.122  15.994  1.00  0.00     0.068 A
HETATM    7  C8  UNL     1      19.820   3.478  17.215  1.00  0.00     0.115 A
HETATM    8  N1  UNL     1      18.801   2.784  17.757  1.00  0.00    -0.334 N
ATOM      9  H1  UNL     1      17.896   2.604  17.321  1.00  0.00     0.168 HD
HETATM   10  C9  UNL     1      19.188   2.375  18.967  1.00  0.00     0.148 A
HETATM   11  C10 UNL     1      18.559   1.642  19.968  1.00  0.00     0.290 A
HETATM   12  O1  UNL     1      17.378   1.237  19.753  1.00  0.00    -0.265 OA
HETATM   13  N2  UNL     1      19.217   1.398  21.102  1.00  0.00    -0.154 N
ATOM     14  H2  UNL     1      18.762   0.861  21.841  1.00  0.00     0.187 HD
HETATM   15  C11 UNL     1      20.490   1.856  21.290  1.00  0.00     0.686 A
HETATM   16  N6  UNL     1      21.112   2.565  20.334  1.00  0.00    -0.173 N
ATOM     17  H6  UNL     1      22.062   2.901  20.489  1.00  0.00     0.186 HD
HETATM   18  C23 UNL     1      20.495   2.831  19.185  1.00  0.00     0.162 A
HETATM   19  N7  UNL     1      20.880   3.521  18.072  1.00  0.00    -0.284 N
ENDROOT
BRANCH  15  20
HETATM   20  N3  UNL     1      21.110   1.612  22.388  1.00  0.00    -0.202 N
ATOM     21  H3  UNL     1      20.678   0.986  23.068  1.00  0.00     0.183 HD
BRANCH  20  22
HETATM   22  C12 UNL     1      22.365   2.178  22.688  1.00  0.00     0.106 C
BRANCH  22  23
HETATM   23  C13 UNL     1      22.740   2.335  24.089  1.00  0.00     0.016 C
BRANCH  23  24
HETATM   24  C14 UNL     1      23.508   3.193  24.648  1.00  0.00     0.010 C
BRANCH  24  25
HETATM   25  C15 UNL     1      23.360   4.611  24.892  1.00  0.00     0.339 C
BRANCH  25  26
HETATM   26  N4  UNL     1      24.382   5.102  25.837  1.00  0.00     0.021 N
HETATM   27  C16 UNL     1      23.735   5.362  27.082  1.00  0.00     0.357 C
HETATM   28  O2  UNL     1      25.346   4.128  25.960  1.00  0.00    -0.064 OA
BRANCH  26  29
HETATM   29  C17 UNL     1      25.020   6.246  25.240  1.00  0.00     0.413 C
BRANCH  29  30
HETATM   30  C18 UNL     1      26.103   5.853  24.276  1.00  0.00     0.251 C
HETATM   31  O3  UNL     1      25.776   5.798  23.063  1.00  0.00    -0.271 OA
HETATM   32  N5  UNL     1      27.413   5.565  24.732  1.00  0.00    -0.359 N
ATOM     33  H5  UNL     1      27.588   5.633  25.734  1.00  0.00     0.162 HD
BRANCH  32  34
HETATM   34  C19 UNL     1      28.518   5.182  23.888  1.00  0.00     0.122 C
BRANCH  34  35
HETATM   35  C20 UNL     1      28.761   3.712  23.816  1.00  0.00     0.020 C
BRANCH  35  36
HETATM   36  C21 UNL     1      28.221   3.112  22.546  1.00  0.00     0.012 C
BRANCH  36  37
HETATM   37  C22 UNL     1      26.868   2.486  22.763  1.00  0.00     0.085 C
HETATM   38 BR2  UNL     1      25.788   2.626  21.148  1.00  0.00    -0.097 Br
ENDBRANCH  36  37
ENDBRANCH  35  36
ENDBRANCH  34  35
ENDBRANCH  32  34
ENDBRANCH  29  30
ENDBRANCH  26  29
ENDBRANCH  25  26
ENDBRANCH  24  25
ENDBRANCH  23  24
ENDBRANCH  22  23
ENDBRANCH  20  22
ENDBRANCH  15  20
BRANCH   1  39
HETATM   39  C2  UNL     1      23.179   4.244  18.613  1.00  0.00     0.054 C
HETATM   40  C1  UNL     1      23.144   5.362  19.630  1.00  0.00     0.011 C
ENDBRANCH   1  39
TORSDOF 13
ENDMDL