MODEL 3
REMARK VINA RESULT: -7.564587321      2.175      4.246
REMARK  16 active torsions:
REMARK  status: ('A' for Active; 'I' for Inactive)
REMARK    1  A    between atoms: C5_5  and  N1_6
REMARK    2  A    between atoms: N1_6  and  C6_8
REMARK    3  A    between atoms: C9_16  and  N4_17
REMARK    4  A    between atoms: N4_17  and  C10_19
REMARK    5  A    between atoms: C10_19  and  N5_21
REMARK    6  A    between atoms: N5_21  and  C11_23
REMARK    7  A    between atoms: C11_23  and  C12_24
REMARK    8  A    between atoms: C12_24  and  C13_25
REMARK    9  A    between atoms: C13_25  and  C14_26
REMARK   10  A    between atoms: C14_26  and  C15_27
REMARK   11  A    between atoms: C15_27  and  C16_28
REMARK   12  A    between atoms: C16_28  and  C17_29
REMARK   13  A    between atoms: C17_29  and  C18_30
REMARK   14  A    between atoms: N6_32  and  N7_34
REMARK   15  A    between atoms: C19_39  and  C20_40
REMARK   16  A    between atoms: C21_41  and  N9_42
ROOT
HETATM    1  C6  UNL     1      18.145   0.391  20.268  1.00  0.00     0.151 A
HETATM    2  N2  UNL     1      17.481  -0.063  21.345  1.00  0.00    -0.332 N
ATOM      3  H2  UNL     1      17.717  -0.961  21.769  1.00  0.00     0.168 HD
HETATM    4  C7  UNL     1      16.493   0.705  21.849  1.00  0.00     0.096 A
HETATM    5 BR1  UNL     1      15.504   0.139  23.370  1.00  0.00    -0.030 Br
HETATM    6  C8  UNL     1      16.172   1.928  21.272  1.00  0.00     0.127 A
HETATM    7  N3  UNL     1      16.837   2.383  20.192  1.00  0.00    -0.346 N
ATOM      8  H3  UNL     1      16.602   3.280  19.767  1.00  0.00     0.167 HD
HETATM    9  C9  UNL     1      17.835   1.602  19.689  1.00  0.00     0.152 A
ENDROOT
BRANCH   9  10
HETATM   10  N4  UNL     1      18.507   1.989  18.650  1.00  0.00    -0.316 N
ATOM     11  H4  UNL     1      18.305   1.585  17.736  1.00  0.00     0.170 HD
BRANCH  10  12
HETATM   12  C10 UNL     1      19.528   2.979  18.777  1.00  0.00     0.177 C
HETATM   13  S1  UNL     1      20.400   3.443  17.487  1.00  0.00    -0.040 SA
BRANCH  12  14
HETATM   14  N5  UNL     1      19.826   3.603  20.060  1.00  0.00    -0.343 N
ATOM     15  H5  UNL     1      19.144   3.593  20.819  1.00  0.00     0.167 HD
BRANCH  14  16
HETATM   16  C11 UNL     1      21.059   4.211  20.221  1.00  0.00     0.087 C
BRANCH  16  17
HETATM   17  C12 UNL     1      21.968   4.067  21.346  1.00  0.00    -0.004 C
BRANCH  17  18
HETATM   18  C13 UNL     1      23.380   3.707  21.198  1.00  0.00     0.082 C
BRANCH  18  19
HETATM   19  C14 UNL     1      24.351   4.094  22.225  1.00  0.00     0.008 C
HETATM   20  N6  UNL     1      24.686   5.317  22.370  1.00  0.00    -0.295 N
ATOM     21  H6  UNL     1      24.278   6.034  21.770  1.00  0.00     0.187 HD
BRANCH  19  22
HETATM   22  C15 UNL     1      25.037   3.013  23.057  1.00  0.00     0.054 C
BRANCH  22  23
HETATM   23  C16 UNL     1      24.060   2.362  23.958  1.00  0.00     0.006 C
BRANCH  23  24
HETATM   24  C17 UNL     1      23.364   3.191  24.958  1.00  0.00     0.011 C
BRANCH  24  25
HETATM   25  C18 UNL     1      24.132   3.686  26.114  1.00  0.00     0.085 C
HETATM   26 BR2  UNL     1      23.808   5.524  26.507  1.00  0.00    -0.097 Br
ENDBRANCH  24  25
ENDBRANCH  23  24
ENDBRANCH  22  23
ENDBRANCH  19  22
BRANCH  20  27
HETATM   27  N7  UNL     1      25.608   5.670  23.349  1.00  0.00    -0.249 N
HETATM   28  N8  UNL     1      26.064   6.863  23.445  1.00  0.00    -0.331 N
ATOM     29  H82 UNL     1      25.731   7.560  22.778  1.00  0.00     0.178 HD
ATOM     30  H81 UNL     1      26.741   7.122  24.162  1.00  0.00     0.178 HD
ATOM     31  H7  UNL     1      25.931   4.961  24.007  1.00  0.00     0.207 HD
ENDBRANCH  20  27
ENDBRANCH  18  19
ENDBRANCH  17  18
ENDBRANCH  16  17
ENDBRANCH  14  16
ENDBRANCH  12  14
ENDBRANCH  10  12
ENDBRANCH   9  10
BRANCH   1  32
HETATM   32  N1  UNL     1      19.091  -0.315  19.754  1.00  0.00    -0.338 N
ATOM     33  H1  UNL     1      18.944  -0.682  18.813  1.00  0.00     0.167 HD
BRANCH  32  34
HETATM   34  C5  UNL     1      20.305  -0.621  20.381  1.00  0.00     0.052 A
HETATM   35  C4  UNL     1      21.014   0.392  20.990  1.00  0.00     0.031 A
HETATM   36  C3  UNL     1      22.217   0.138  21.621  1.00  0.00     0.009 A
HETATM   37  C2  UNL     1      22.695  -1.172  21.625  1.00  0.00    -0.060 A
HETATM   38  C1  UNL     1      23.985  -1.432  22.302  1.00  0.00     0.048 C
HETATM   39  C22 UNL     1      22.003  -2.199  21.021  1.00  0.00     0.029 A
HETATM   40  C19 UNL     1      20.803  -1.896  20.403  1.00  0.00     0.046 A
BRANCH  40  41
HETATM   41  C20 UNL     1      20.107  -3.005  19.781  1.00  0.00    -0.042 C
HETATM   42  C21 UNL     1      19.546  -3.924  19.250  1.00  0.00     0.009 C
BRANCH  42  43
HETATM   43  N9  UNL     1      18.914  -5.008  18.633  1.00  0.00    -0.359 N
ATOM     44  H92 UNL     1      19.858  -4.620  18.629  1.00  0.00     0.166 HD
ATOM     45  H91 UNL     1      18.437  -5.795  18.192  1.00  0.00     0.166 HD
ENDBRANCH  42  43
ENDBRANCH  40  41
ENDBRANCH  32  34
ENDBRANCH   1  32
TORSDOF 16
ENDMDL