MODEL 5
REMARK VINA RESULT: -7.653773182      4.062      6.667
REMARK  11 active torsions:
REMARK  status: ('A' for Active; 'I' for Inactive)
REMARK    1  A    between atoms: C2_2  and  N1_3
REMARK    2  A    between atoms: C5_8  and  C7_10
REMARK    3  A    between atoms: C7_10  and  C8_11
REMARK    4  A    between atoms: C8_11  and  C9_12
REMARK    5  A    between atoms: C10_14  and  O2_15
REMARK    6  A    between atoms: C11_17  and  C12_18
REMARK       I    between atoms: N3_27  and  C19_28
REMARK    7  A    between atoms: C19_28  and  C20_30
REMARK    8  A    between atoms: C21_31  and  C22_32
REMARK    9  A    between atoms: C22_32  and  C23_33
REMARK   10  A    between atoms: C23_33  and  C24_34
REMARK   11  A    between atoms: N4_35  and  N5_37
ROOT
HETATM    1  C12 UNL     1      23.184   0.891  21.533  1.00  0.00     0.195 A
HETATM    2  C13 UNL     1      24.055  -0.019  20.780  1.00  0.00     0.000 A
HETATM    3  C14 UNL     1      25.351  -0.410  20.816  1.00  0.00     0.012 A
HETATM    4  C15 UNL     1      25.839  -1.294  19.878  1.00  0.00     0.001 A
HETATM    5  C16 UNL     1      25.057  -1.806  18.890  1.00  0.00     0.002 A
HETATM    6  C17 UNL     1      23.752  -1.424  18.842  1.00  0.00     0.031 A
HETATM    7  C18 UNL     1      23.261  -0.540  19.779  1.00  0.00     0.057 A
HETATM    8  N2  UNL     1      21.918  -0.080  19.883  1.00  0.00    -0.294 N
ATOM      9  H2  UNL     1      21.145  -0.319  19.264  1.00  0.00     0.187 HD
HETATM   10  N3  UNL     1      21.863   0.757  20.992  1.00  0.00    -0.242 N
HETATM   11  C19 UNL     1      20.671   1.319  21.490  1.00  0.00     0.262 C
HETATM   12  O3  UNL     1      20.589   2.027  22.535  1.00  0.00    -0.267 OA
ENDROOT
BRANCH   1  13
HETATM   13  C11 UNL     1      23.653   2.274  21.753  1.00  0.00     0.051 C
HETATM   14  N1  UNL     1      24.533   2.818  20.736  1.00  0.00    -0.320 N
HETATM   15  C3  UNL     1      25.913   2.984  21.125  1.00  0.00     0.239 C
HETATM   16  O1  UNL     1      26.788   2.694  20.272  1.00  0.00    -0.272 OA
HETATM   17  C4  UNL     1      26.254   3.488  22.499  1.00  0.00     0.161 C
HETATM   18 BR1  UNL     1      27.701   2.459  23.178  1.00  0.00    -0.080 Br
HETATM   19  C5  UNL     1      25.060   3.605  23.370  1.00  0.00     0.009 C
HETATM   20  C6  UNL     1      24.386   4.960  23.101  1.00  0.00     0.020 C
HETATM   21  C10 UNL     1      24.007   2.549  23.154  1.00  0.00     0.176 C
BRANCH  14  22
HETATM   22  C2  UNL     1      24.111   3.178  19.434  1.00  0.00     0.127 C
HETATM   23  C1  UNL     1      23.516   4.592  19.330  1.00  0.00     0.027 C
ENDBRANCH  14  22
BRANCH  19  24
HETATM   24  C7  UNL     1      25.423   3.644  24.837  1.00  0.00     0.014 C
BRANCH  24  25
HETATM   25  C8  UNL     1      26.124   4.915  25.253  1.00  0.00     0.012 C
BRANCH  25  26
HETATM   26  C9  UNL     1      25.581   5.297  26.615  1.00  0.00     0.085 C
HETATM   27 BR2  UNL     1      23.658   5.492  26.581  1.00  0.00    -0.097 Br
ENDBRANCH  25  26
ENDBRANCH  24  25
ENDBRANCH  19  24
BRANCH  21  28
HETATM   28  O2  UNL     1      24.298   1.472  23.958  1.00  0.00    -0.389 OA
ATOM     29  H2  UNL     1      23.642   0.801  23.812  1.00  0.00     0.210 HD
ENDBRANCH  21  28
ENDBRANCH   1  13
BRANCH  11  30
HETATM   30  C20 UNL     1      19.381   1.112  20.795  1.00  0.00     0.072 C
HETATM   31  C21 UNL     1      18.339   1.872  20.984  1.00  0.00    -0.021 C
BRANCH  31  32
HETATM   32  C22 UNL     1      17.084   1.623  20.270  1.00  0.00     0.032 C
BRANCH  32  33
HETATM   33  C23 UNL     1      15.876   1.677  21.180  1.00  0.00     0.050 C
BRANCH  33  34
HETATM   34  C24 UNL     1      15.903   0.622  22.205  1.00  0.00     0.081 C
HETATM   35  N4  UNL     1      15.095   0.683  23.197  1.00  0.00    -0.302 N
ATOM     36  H4  UNL     1      14.456   1.479  23.229  1.00  0.00     0.187 HD
BRANCH  35  37
HETATM   37  N5  UNL     1      15.011  -0.234  24.227  1.00  0.00    -0.250 N
HETATM   38  N6  UNL     1      15.514  -1.376  24.094  1.00  0.00    -0.331 N
ATOM     39  H62 UNL     1      15.981  -1.612  23.219  1.00  0.00     0.178 HD
ATOM     40  H61 UNL     1      15.451  -2.053  24.855  1.00  0.00     0.178 HD
ATOM     41  H5  UNL     1      14.540   0.018  25.096  1.00  0.00     0.207 HD
ENDBRANCH  35  37
ENDBRANCH  33  34
ENDBRANCH  32  33
ENDBRANCH  31  32
ENDBRANCH  11  30
TORSDOF 11
ENDMDL