MODEL 4
REMARK VINA RESULT: -7.685445252      1.483      1.718
REMARK  12 active torsions:
REMARK  status: ('A' for Active; 'I' for Inactive)
REMARK    1  A    between atoms: C4_6  and  N2_7
REMARK       I    between atoms: N2_7  and  C5_9
REMARK    2  A    between atoms: C5_9  and  C6_11
REMARK    3  A    between atoms: C6_11  and  C7_13
REMARK    4  A    between atoms: C7_13  and  N3_15
REMARK       I    between atoms: N3_15  and  C9_17
REMARK    5  A    between atoms: C9_17  and  C10_19
REMARK       I    between atoms: C10_19  and  N4_21
REMARK    6  A    between atoms: C11_23  and  C12_24
REMARK    7  A    between atoms: C11_23  and  N5_28
REMARK    8  A    between atoms: C12_24  and  C13_25
REMARK    9  A    between atoms: N5_28  and  C16_30
REMARK   10  A    between atoms: C16_30  and  C17_31
REMARK   11  A    between atoms: C17_31  and  C18_32
REMARK   12  A    between atoms: C18_32  and  C19_33
ROOT
HETATM    1  C7  UNL     1      22.703   2.978  18.525  1.00  0.00     0.104 C
HETATM    2  C8  UNL     1      23.561   4.240  18.422  1.00  0.00     0.034 C
ENDROOT
BRANCH   1   3
HETATM    3  C6  UNL     1      21.506   3.024  17.595  1.00  0.00     0.172 C
HETATM    4 BR1  UNL     1      21.725   4.611  16.489  1.00  0.00    -0.079 Br
BRANCH   3   5
HETATM    5  C5  UNL     1      20.226   3.146  18.348  1.00  0.00     0.252 C
HETATM    6  N2  UNL     1      19.187   2.191  18.233  1.00  0.00    -0.158 N
ATOM      7  H2  UNL     1      18.955   1.853  17.299  1.00  0.00     0.187 HD
HETATM    8  O1  UNL     1      20.082   4.136  19.105  1.00  0.00    -0.271 OA
BRANCH   6   9
HETATM    9  C4  UNL     1      18.512   1.715  19.232  1.00  0.00     0.686 A
HETATM   10  N1  UNL     1      17.578   2.362  19.959  1.00  0.00    -0.187 N
HETATM   11  C3  UNL     1      17.111   1.532  20.904  1.00  0.00     0.098 A
ATOM     12  H1  UNL     1      17.277   3.326  19.815  1.00  0.00     0.184 HD
HETATM   13  C2  UNL     1      16.163   1.657  21.911  1.00  0.00     0.036 A
HETATM   14  C20 UNL     1      17.750   0.321  20.791  1.00  0.00     0.079 A
HETATM   15  C1  UNL     1      15.480   2.972  22.020  1.00  0.00     0.071 C
HETATM   16  N7  UNL     1      15.844   0.673  22.766  1.00  0.00    -0.363 N
HETATM   17  C22 UNL     1      16.472  -0.505  22.649  1.00  0.00     0.093 A
HETATM   18  C23 UNL     1      14.827   0.898  23.803  1.00  0.00     0.155 C
HETATM   19  C21 UNL     1      17.435  -0.701  21.661  1.00  0.00     0.050 A
HETATM   20  N6  UNL     1      18.600   0.478  19.755  1.00  0.00    -0.189 N
ATOM     21  H6  UNL     1      19.228  -0.249  19.412  1.00  0.00     0.184 HD
ENDBRANCH   6   9
ENDBRANCH   3   5
ENDBRANCH   1   3
BRANCH   1  22
HETATM   22  N3  UNL     1      22.209   2.954  19.894  1.00  0.00    -0.347 N
HETATM   23  C9  UNL     1      22.067   1.763  20.653  1.00  0.00     0.310 C
HETATM   24  O2  UNL     1      22.363   0.644  20.160  1.00  0.00    -0.262 OA
ATOM     25  H3  UNL     1      21.950   3.838  20.331  1.00  0.00     0.163 HD
BRANCH  23  26
HETATM   26  C10 UNL     1      21.561   1.827  22.068  1.00  0.00     0.314 C
HETATM   27  O3  UNL     1      20.509   1.157  22.321  1.00  0.00    -0.262 OA
HETATM   28  N4  UNL     1      22.215   2.561  22.946  1.00  0.00    -0.309 N
HETATM   29  C11 UNL     1      22.675   2.612  24.082  1.00  0.00     0.080 C
ATOM     30  H4  UNL     1      22.423   3.452  22.496  1.00  0.00     0.170 HD
BRANCH  29  31
HETATM   31  C12 UNL     1      23.360   3.898  24.435  1.00  0.00     0.080 C
BRANCH  31  32
HETATM   32  C13 UNL     1      24.058   4.007  25.718  1.00  0.00    -0.016 C
HETATM   33  C14 UNL     1      25.513   3.708  25.786  1.00  0.00     0.010 C
HETATM   34  C15 UNL     1      23.765   5.397  26.331  1.00  0.00     0.010 C
ENDBRANCH  31  32
ENDBRANCH  29  31
BRANCH  29  35
HETATM   35  N5  UNL     1      22.579   1.592  25.029  1.00  0.00    -0.380 N
ATOM     36  H5  UNL     1      21.781   1.680  25.659  1.00  0.00     0.160 HD
BRANCH  35  37
HETATM   37  C16 UNL     1      23.388   0.458  25.274  1.00  0.00     0.121 C
BRANCH  37  38
HETATM   38  C17 UNL     1      23.833  -0.356  24.116  1.00  0.00     0.020 C
BRANCH  38  39
HETATM   39  C18 UNL     1      25.290  -0.201  23.762  1.00  0.00     0.012 C
BRANCH  39  40
HETATM   40  C19 UNL     1      25.437   0.006  22.242  1.00  0.00     0.085 C
HETATM   41 BR2  UNL     1      25.665   1.877  21.924  1.00  0.00    -0.097 Br
ENDBRANCH  39  40
ENDBRANCH  38  39
ENDBRANCH  37  38
ENDBRANCH  35  37
ENDBRANCH  29  35
ENDBRANCH  23  26
ENDBRANCH   1  22
TORSDOF 12
ENDMDL