MODEL 3
REMARK VINA RESULT: -7.764824308      1.656      2.271
REMARK  11 active torsions:
REMARK  status: ('A' for Active; 'I' for Inactive)
REMARK    1  A    between atoms: C4_8  and  C5_9
REMARK    2  A    between atoms: C5_9  and  C6_10
REMARK    3  A    between atoms: C6_10  and  C7_11
REMARK    4  A    between atoms: C7_11  and  C8_12
REMARK    5  A    between atoms: C8_12  and  C9_13
REMARK    6  A    between atoms: C9_13  and  N3_14
REMARK       I    between atoms: N3_14  and  C10_16
REMARK    7  A    between atoms: C10_16  and  C11_18
REMARK    8  A    between atoms: C11_18  and  C12_19
REMARK       I    between atoms: N5_26  and  C17_27
REMARK       I    between atoms: C17_27  and  N6_29
REMARK    9  A    between atoms: C22_35  and  N7_36
REMARK   10  A    between atoms: N7_36  and  C23_38
REMARK   11  A    between atoms: C23_38  and  C24_40
ROOT
HETATM    1  C11 UNL     1      18.723   1.388  20.311  1.00  0.00     0.152 C
HETATM    2  C13 UNL     1      18.994  -0.105  20.019  1.00  0.00     0.280 C
HETATM    3  N4  UNL     1      20.294  -0.393  20.559  1.00  0.00    -0.056 N
HETATM    4  C14 UNL     1      21.268  -0.494  19.461  1.00  0.00     0.274 C
HETATM    5  C15 UNL     1      20.289  -1.640  21.319  1.00  0.00     0.274 C
HETATM    6  C16 UNL     1      20.684   0.720  21.377  1.00  0.00     0.366 C
HETATM    7  N5  UNL     1      19.971   1.841  20.825  1.00  0.00    -0.288 N
HETATM    8  C17 UNL     1      20.509   3.172  20.860  1.00  0.00     0.325 C
HETATM    9  O2  UNL     1      19.888   4.170  20.397  1.00  0.00    -0.247 OA
HETATM   10  N6  UNL     1      21.769   3.434  21.427  1.00  0.00    -0.314 N
ATOM     11  H6  UNL     1      21.797   3.498  22.445  1.00  0.00     0.170 HD
HETATM   12  C18 UNL     1      22.874   3.602  20.830  1.00  0.00     0.014 C
HETATM   13  C19 UNL     1      23.213   3.578  19.391  1.00  0.00     0.055 C
HETATM   14  C20 UNL     1      24.745   3.617  19.323  1.00  0.00     0.008 C
HETATM   15  C21 UNL     1      25.148   3.119  20.702  1.00  0.00     0.031 C
HETATM   16  C22 UNL     1      24.149   3.913  21.557  1.00  0.00     0.128 C
ENDROOT
BRANCH   1  17
HETATM   17  C10 UNL     1      18.296   2.023  19.038  1.00  0.00     0.248 C
HETATM   18  N3  UNL     1      19.216   2.605  18.126  1.00  0.00    -0.359 N
ATOM     19  H3  UNL     1      20.209   2.580  18.357  1.00  0.00     0.162 HD
HETATM   20  O1  UNL     1      17.082   2.047  18.750  1.00  0.00    -0.271 OA
BRANCH  18  21
HETATM   21  C9  UNL     1      18.818   3.227  16.894  1.00  0.00     0.122 C
BRANCH  21  22
HETATM   22  C8  UNL     1      19.828   4.161  16.311  1.00  0.00     0.020 C
BRANCH  22  23
HETATM   23  C7  UNL     1      21.210   3.564  16.496  1.00  0.00     0.002 C
BRANCH  23  24
HETATM   24  C6  UNL     1      22.249   4.344  15.676  1.00  0.00     0.002 C
BRANCH  24  25
HETATM   25  C5  UNL     1      21.578   4.790  14.422  1.00  0.00     0.027 C
BRANCH  25  26
HETATM   26  C4  UNL     1      22.357   4.449  13.172  1.00  0.00     0.104 C
HETATM   27  N1  UNL     1      21.519   4.747  12.046  1.00  0.00    -0.356 N
HETATM   28  C1  UNL     1      21.534   5.940  11.246  1.00  0.00     0.152 C
HETATM   29  C2  UNL     1      20.656   3.640  11.855  1.00  0.00     0.169 C
HETATM   30  S1  UNL     1      19.333   3.510  10.901  1.00  0.00    -0.041 SA
HETATM   31  N2  UNL     1      21.135   2.559  12.676  1.00  0.00    -0.365 N
HETATM   32  C3  UNL     1      22.476   2.923  13.054  1.00  0.00     0.147 C
ATOM     33  H2  UNL     1      20.630   1.711  12.935  1.00  0.00     0.161 HD
ENDBRANCH  25  26
ENDBRANCH  24  25
ENDBRANCH  23  24
ENDBRANCH  22  23
ENDBRANCH  21  22
ENDBRANCH  18  21
ENDBRANCH   1  17
BRANCH   1  34
HETATM   34  C12 UNL     1      17.648   1.404  21.367  1.00  0.00     0.128 C
HETATM   35 BR1  UNL     1      16.994  -0.365  21.709  1.00  0.00    -0.093 Br
ENDBRANCH   1  34
BRANCH  16  36
HETATM   36  N7  UNL     1      24.168   3.335  22.889  1.00  0.00    -0.373 N
ATOM     37  H7  UNL     1      23.908   2.358  23.022  1.00  0.00     0.161 HD
BRANCH  36  38
HETATM   38  C23 UNL     1      24.546   4.121  24.001  1.00  0.00     0.102 C
HETATM   39  S2  UNL     1      26.086   4.643  24.236  1.00  0.00    -0.063 SA
BRANCH  38  40
HETATM   40  C24 UNL     1      23.507   4.490  24.995  1.00  0.00     0.291 C
HETATM   41  F1  UNL     1      23.800   3.929  26.235  1.00  0.00    -0.248 F
ENDBRANCH  38  40
ENDBRANCH  36  38
ENDBRANCH  16  36
TORSDOF 11
ENDMDL