MODEL 5
REMARK VINA RESULT: -7.426323616      2.662      9.963
REMARK  10 active torsions:
REMARK  status: ('A' for Active; 'I' for Inactive)
REMARK    1  A    between atoms: C2_2  and  C4_4
REMARK    2  A    between atoms: C4_4  and  N1_5
REMARK    3  A    between atoms: N1_5  and  C5_7
REMARK    4  A    between atoms: N2_9  and  C7_10
REMARK    5  A    between atoms: C7_10  and  C8_11
REMARK    6  A    between atoms: C8_11  and  C9_12
REMARK    7  A    between atoms: C9_12  and  C10_13
REMARK       I    between atoms: C10_13  and  N3_15
REMARK    8  A    between atoms: N3_15  and  C11_17
REMARK    9  A    between atoms: C12_18  and  C13_19
REMARK   10  A    between atoms: C24_35  and  C25_36
ROOT
HETATM    1  C10 UNL     1      20.434   3.415  16.852  1.00  0.00     0.218 C
HETATM    2  O1  UNL     1      21.633   3.070  16.700  1.00  0.00    -0.274 OA
HETATM    3  N3  UNL     1      19.845   4.228  15.826  1.00  0.00    -0.352 N
ATOM      4  H3  UNL     1      18.873   4.520  15.923  1.00  0.00     0.163 HD
ENDROOT
BRANCH   1   5
HETATM    5  C9  UNL     1      19.665   3.007  18.020  1.00  0.00     0.104 C
BRANCH   5   6
HETATM    6  C8  UNL     1      20.440   2.438  19.169  1.00  0.00     0.037 C
BRANCH   6   7
HETATM    7  C7  UNL     1      20.566   3.414  20.269  1.00  0.00     0.238 C
BRANCH   7   8
HETATM    8  N2  UNL     1      21.683   3.151  21.096  1.00  0.00    -0.063 N
HETATM    9  C6  UNL     1      22.439   4.255  21.629  1.00  0.00     0.263 C
HETATM   10  C5  UNL     1      23.484   3.466  22.457  1.00  0.00     0.115 C
HETATM   11  C24 UNL     1      23.060   2.099  22.083  1.00  0.00     0.039 C
HETATM   12  C23 UNL     1      21.545   2.185  22.170  1.00  0.00     0.251 C
HETATM   13  C26 UNL     1      22.737   2.289  20.589  1.00  0.00     0.251 C
BRANCH  10  14
HETATM   14  N1  UNL     1      23.315   3.872  23.796  1.00  0.00    -0.414 N
ATOM     15  H1  UNL     1      22.567   3.478  24.367  1.00  0.00     0.153 HD
BRANCH  14  16
HETATM   16  C4  UNL     1      24.200   4.833  24.337  1.00  0.00     0.118 C
BRANCH  16  17
HETATM   17  C2  UNL     1      24.502   4.581  25.810  1.00  0.00    -0.005 C
HETATM   18  C1  UNL     1      23.690   5.535  26.671  1.00  0.00     0.011 C
HETATM   19  C3  UNL     1      24.011   3.178  26.124  1.00  0.00     0.011 C
ENDBRANCH  16  17
ENDBRANCH  14  16
ENDBRANCH  10  14
BRANCH  11  20
HETATM   20  C25 UNL     1      23.731   0.893  22.476  1.00  0.00     0.100 C
HETATM   21 BR2  UNL     1      25.616   1.260  22.854  1.00  0.00    -0.096 Br
ENDBRANCH  11  20
ENDBRANCH   7   8
ENDBRANCH   6   7
ENDBRANCH   5   6
ENDBRANCH   1   5
BRANCH   3  22
HETATM   22  C11 UNL     1      20.600   4.652  14.640  1.00  0.00     0.133 C
HETATM   23  C12 UNL     1      20.986   6.084  14.746  1.00  0.00     0.112 C
HETATM   24  N4  UNL     1      20.477   6.967  13.755  1.00  0.00    -0.350 N
HETATM   25  C16 UNL     1      19.932   6.569  12.515  1.00  0.00     0.249 C
ATOM     26  H4  UNL     1      20.507   7.966  13.956  1.00  0.00     0.163 HD
HETATM   27  O2  UNL     1      19.600   7.418  11.619  1.00  0.00    -0.268 OA
HETATM   28  C17 UNL     1      19.770   5.138  12.315  1.00  0.00     0.031 C
HETATM   29  C18 UNL     1      19.530   4.666  11.104  1.00  0.00     0.017 C
HETATM   30  C22 UNL     1      19.867   4.216  13.438  1.00  0.00     0.099 C
HETATM   31  C19 UNL     1      19.353   3.238  10.814  1.00  0.00     0.300 C
HETATM   32  N5  UNL     1      19.841   2.348  11.818  1.00  0.00     0.089 N
HETATM   33  C20 UNL     1      20.778   1.429  11.156  1.00  0.00     0.310 C
HETATM   34  C21 UNL     1      20.566   2.961  12.885  1.00  0.00     0.300 C
HETATM   35 BR1  UNL     1      18.078   3.657  13.948  1.00  0.00    -0.076 Br
BRANCH  23  36
HETATM   36  C13 UNL     1      22.492   6.290  14.822  1.00  0.00     0.002 C
HETATM   37  C14 UNL     1      23.018   6.123  16.219  1.00  0.00     0.011 C
HETATM   38  C15 UNL     1      23.128   5.205  13.968  1.00  0.00     0.011 C
ENDBRANCH  23  36
ENDBRANCH   3  22
TORSDOF 10
ENDMDL