MODEL 5
REMARK VINA RESULT: -7.177258861      1.088      1.263
REMARK  11 active torsions:
REMARK  status: ('A' for Active; 'I' for Inactive)
REMARK    1  A    between atoms: C2_2  and  C3_3
REMARK    2  A    between atoms: C2_2  and  C24_35
REMARK    3  A    between atoms: C3_3  and  C4_4
REMARK    4  A    between atoms: N2_12  and  C10_13
REMARK    5  A    between atoms: C10_13  and  C11_14
REMARK    6  A    between atoms: C11_14  and  O1_15
REMARK    7  A    between atoms: O1_15  and  C12_16
REMARK    8  A    between atoms: C12_16  and  C13_17
REMARK    9  A    between atoms: C13_17  and  N3_18
REMARK   10  A    between atoms: N3_18  and  C14_20
REMARK   11  A    between atoms: C22_31  and  O2_32
ROOT
HETATM    1  C4  UNL     1      21.298   3.836  18.026  1.00  0.00    -0.048 C
HETATM    2  C5  UNL     1      20.433   3.023  18.856  1.00  0.00     0.046 A
HETATM    3  N1  UNL     1      19.261   2.648  18.356  1.00  0.00    -0.365 N
ATOM      4  H1  UNL     1      18.905   2.881  17.429  1.00  0.00     0.165 HD
HETATM    5  C6  UNL     1      18.620   1.906  19.288  1.00  0.00     0.089 A
HETATM    6  C7  UNL     1      19.399   1.823  20.368  1.00  0.00     0.032 A
HETATM    7  C8  UNL     1      20.598   2.527  20.162  1.00  0.00     0.018 A
HETATM    8  C9  UNL     1      21.442   2.469  21.319  1.00  0.00     0.250 C
HETATM    9  N2  UNL     1      22.657   3.113  21.504  1.00  0.00     0.112 N
HETATM   10  C15 UNL     1      22.779   4.485  21.166  1.00  0.00     0.279 C
HETATM   11  C16 UNL     1      21.985   5.049  20.036  1.00  0.00     0.040 C
HETATM   12  C17 UNL     1      22.440   4.529  18.729  1.00  0.00     0.020 C
HETATM   13  C18 UNL     1      23.703   3.721  18.746  1.00  0.00     0.039 C
HETATM   14  C19 UNL     1      23.663   2.435  19.431  1.00  0.00     0.273 C
HETATM   15  N5  UNL     1      23.739   2.392  20.862  1.00  0.00     0.094 N
HETATM   16  C20 UNL     1      25.027   2.876  21.229  1.00  0.00     0.275 C
HETATM   17  C21 UNL     1      25.927   1.688  21.493  1.00  0.00     0.064 C
HETATM   18  C22 UNL     1      25.158   0.503  21.025  1.00  0.00     0.148 C
HETATM   19  C23 UNL     1      23.715   0.998  21.178  1.00  0.00     0.304 C
ENDROOT
BRANCH   9  20
HETATM   20  C10 UNL     1      23.038   3.012  22.906  1.00  0.00     0.304 C
BRANCH  20  21
HETATM   21  C11 UNL     1      23.244   4.200  23.740  1.00  0.00     0.198 C
BRANCH  21  22
HETATM   22  O1  UNL     1      23.392   4.122  25.086  1.00  0.00    -0.388 OA
BRANCH  22  23
HETATM   23  C12 UNL     1      23.566   5.221  25.845  1.00  0.00     0.187 C
BRANCH  23  24
HETATM   24  C13 UNL     1      25.020   5.582  26.136  1.00  0.00     0.148 C
BRANCH  24  25
HETATM   25  N3  UNL     1      25.610   6.391  25.105  1.00  0.00    -0.367 N
ATOM     26  H3  UNL     1      25.240   7.331  24.967  1.00  0.00     0.161 HD
BRANCH  25  27
HETATM   27  C14 UNL     1      26.671   5.966  24.270  1.00  0.00     0.181 C
HETATM   28  N4  UNL     1      27.424   6.881  23.510  1.00  0.00    -0.070 NA
HETATM   29  S1  UNL     1      27.057   4.382  24.137  1.00  0.00    -0.044 SA
ENDBRANCH  25  27
ENDBRANCH  24  25
ENDBRANCH  23  24
ENDBRANCH  22  23
ENDBRANCH  21  22
ENDBRANCH  20  21
ENDBRANCH   9  20
BRANCH  18  30
HETATM   30  O2  UNL     1      25.410  -0.543  21.937  1.00  0.00    -0.394 OA
ATOM     31  H2  UNL     1      25.081  -1.342  21.544  1.00  0.00     0.210 HD
ENDBRANCH  18  30
BRANCH   1  32
HETATM   32  C3  UNL     1      21.778   3.328  16.715  1.00  0.00     0.043 C
BRANCH  32  33
HETATM   33  C2  UNL     1      21.134   3.817  15.458  1.00  0.00     0.010 C
HETATM   34  C1  UNL     1      20.353   5.105  15.663  1.00  0.00     0.012 C
BRANCH  33  35
HETATM   35  C24 UNL     1      22.332   4.269  14.568  1.00  0.00     0.133 C
HETATM   36 BR1  UNL     1      23.086   5.885  15.301  1.00  0.00    -0.079 Br
HETATM   37 BR2  UNL     1      21.761   4.608  12.775  1.00  0.00    -0.079 Br
ENDBRANCH  33  35
ENDBRANCH  32  33
ENDBRANCH   1  32
TORSDOF 11
ENDMDL