MODEL 2
REMARK VINA RESULT: -8.715835155      2.410      3.312
REMARK  12 active torsions:
REMARK  status: ('A' for Active; 'I' for Inactive)
REMARK    1  A    between atoms: C2_2  and  C4_4
REMARK    2  A    between atoms: C4_4  and  N1_5
REMARK    3  A    between atoms: C4_4  and  C10_14
REMARK       I    between atoms: N1_5  and  C5_7
REMARK    4  A    between atoms: C5_7  and  C6_9
REMARK    5  A    between atoms: C6_9  and  C9_12
REMARK    6  A    between atoms: C13_17  and  C14_18
REMARK    7  A    between atoms: C14_18  and  C16_20
REMARK    8  A    between atoms: C17_21  and  C18_22
REMARK    9  A    between atoms: C18_22  and  C19_23
REMARK   10  A    between atoms: C19_23  and  N2_24
REMARK       I    between atoms: C20_26  and  N3_27
REMARK       I    between atoms: C20_26  and  N6_34
REMARK       I    between atoms: N3_27  and  C21_29
REMARK   11  A    between atoms: C25_39  and  C26_40
REMARK   12  A    between atoms: C26_40  and  N7_41
ROOT
HETATM    1  C18 UNL     1      22.999   6.048  17.201  1.00  0.00     0.114 C
ENDROOT
BRANCH   1   2
HETATM    2  C17 UNL     1      22.654   5.173  18.324  1.00  0.00    -0.104 C
HETATM    3  C16 UNL     1      22.380   4.427  19.255  1.00  0.00    -0.100 C
BRANCH   3   4
HETATM    4  C14 UNL     1      22.028   3.539  20.365  1.00  0.00     0.090 C
HETATM    5  C15 UNL     1      20.671   3.931  20.956  1.00  0.00     0.026 C
BRANCH   4   6
HETATM    6  C13 UNL     1      23.073   3.685  21.451  1.00  0.00     0.137 C
HETATM    7  C12 UNL     1      24.343   3.002  21.008  1.00  0.00     0.036 C
HETATM    8  C11 UNL     1      24.690   2.194  22.255  1.00  0.00     0.036 C
HETATM    9  C10 UNL     1      23.828   2.742  23.344  1.00  0.00     0.145 C
HETATM   10  O2  UNL     1      22.662   3.092  22.624  1.00  0.00    -0.377 OA
BRANCH   9  11
HETATM   11  C4  UNL     1      24.328   3.990  23.992  1.00  0.00     0.116 C
BRANCH  11  12
HETATM   12  C2  UNL     1      23.580   4.106  25.330  1.00  0.00     0.003 C
HETATM   13  C1  UNL     1      23.677   5.516  25.868  1.00  0.00     0.011 C
HETATM   14  C3  UNL     1      24.118   3.129  26.330  1.00  0.00     0.011 C
ENDBRANCH  11  12
BRANCH  11  15
HETATM   15  N1  UNL     1      25.733   4.012  24.271  1.00  0.00    -0.353 N
HETATM   16  C5  UNL     1      26.600   5.071  23.894  1.00  0.00     0.226 C
HETATM   17  O1  UNL     1      26.109   6.045  23.281  1.00  0.00    -0.273 OA
ATOM     18  H1  UNL     1      26.135   3.218  24.771  1.00  0.00     0.163 HD
BRANCH  16  19
HETATM   19  C6  UNL     1      28.044   5.066  24.198  1.00  0.00     0.043 C
HETATM   20  C7  UNL     1      28.244   4.655  25.640  1.00  0.00     0.026 C
HETATM   21  C8  UNL     1      28.796   4.069  23.343  1.00  0.00     0.026 C
BRANCH  19  22
HETATM   22  C9  UNL     1      28.597   6.461  23.991  1.00  0.00     0.103 C
HETATM   23 BR1  UNL     1      30.068   6.355  22.754  1.00  0.00    -0.095 Br
ENDBRANCH  19  22
ENDBRANCH  16  19
ENDBRANCH  11  15
ENDBRANCH   9  11
ENDBRANCH   4   6
ENDBRANCH   3   4
ENDBRANCH   1   2
BRANCH   1  24
HETATM   24  C19 UNL     1      23.226   5.160  15.981  1.00  0.00     0.150 C
BRANCH  24  25
HETATM   25  N2  UNL     1      22.363   5.547  14.890  1.00  0.00    -0.225 N
HETATM   26  C20 UNL     1      21.334   4.831  14.612  1.00  0.00     0.679 C
HETATM   27  N3  UNL     1      21.077   3.678  15.389  1.00  0.00    -0.164 N
HETATM   28  N6  UNL     1      20.439   5.162  13.544  1.00  0.00    -0.209 N
HETATM   29  C21 UNL     1      20.030   3.678  16.335  1.00  0.00     0.200 C
ATOM     30  H3  UNL     1      21.650   2.844  15.265  1.00  0.00     0.187 HD
HETATM   31  N4  UNL     1      19.976   2.749  17.214  1.00  0.00    -0.373 N
HETATM   32  N5  UNL     1      19.011   4.665  16.375  1.00  0.00    -0.063 NA
ATOM     33  H42 UNL     1      20.708   2.039  17.186  1.00  0.00     0.158 HD
ATOM     34  H41 UNL     1      19.219   2.749  17.899  1.00  0.00     0.158 HD
HETATM   35  C22 UNL     1      20.010   6.558  13.354  1.00  0.00     0.179 C
HETATM   36  C25 UNL     1      19.823   4.353  12.541  1.00  0.00     0.131 C
HETATM   37  C23 UNL     1      19.244   6.570  12.053  1.00  0.00     0.190 C
HETATM   38  F1  UNL     1      19.498   7.701  11.314  1.00  0.00    -0.248 F
HETATM   39  C24 UNL     1      19.767   5.328  11.366  1.00  0.00     0.066 C
ATOM     40  H2  UNL     1      22.569   6.383  14.343  1.00  0.00     0.177 HD
BRANCH  36  41
HETATM   41  C26 UNL     1      20.631   3.144  12.205  1.00  0.00     0.263 C
BRANCH  41  42
HETATM   42  N7  UNL     1      19.923   2.259  11.303  1.00  0.00    -0.066 N
HETATM   43  C27 UNL     1      18.494   2.134  11.471  1.00  0.00     0.272 C
HETATM   44  C28 UNL     1      20.474   1.965  10.014  1.00  0.00     0.265 A
HETATM   45  C29 UNL     1      20.595   0.962  11.120  1.00  0.00     0.265 A
ENDBRANCH  41  42
ENDBRANCH  36  41
ENDBRANCH  24  25
ENDBRANCH   1  24
TORSDOF 12
ENDMDL