MODEL 4
REMARK VINA RESULT: -7.296852950      0.694      1.099
REMARK  13 active torsions:
REMARK  status: ('A' for Active; 'I' for Inactive)
REMARK    1  A    between atoms: C2_2  and  N1_5
REMARK    2  A    between atoms: C6_7  and  C7_8
REMARK    3  A    between atoms: C7_8  and  N2_9
REMARK       I    between atoms: N2_9  and  C8_11
REMARK    4  A    between atoms: C8_11  and  C9_13
REMARK    5  A    between atoms: C14_19  and  N3_20
REMARK    6  A    between atoms: N3_20  and  C15_22
REMARK    7  A    between atoms: C15_22  and  N4_24
REMARK    8  A    between atoms: N4_24  and  C16_26
REMARK    9  A    between atoms: C16_26  and  C17_27
REMARK   10  A    between atoms: C17_27  and  C18_28
REMARK   11  A    between atoms: C18_28  and  C19_29
REMARK   12  A    between atoms: C19_29  and  C20_30
REMARK   13  A    between atoms: C20_30  and  C21_31
ROOT
HETATM    1  C9  UNL     1      23.750   4.435  19.358  1.00  0.00     0.181 C
HETATM    2  C10 UNL     1      23.203   5.538  20.225  1.00  0.00     0.060 C
HETATM    3  C11 UNL     1      23.400   4.610  21.371  1.00  0.00     0.091 C
HETATM    4  C12 UNL     1      24.422   5.023  22.415  1.00  0.00     0.043 C
HETATM    5  C13 UNL     1      24.796   3.870  23.302  1.00  0.00     0.091 C
HETATM    6 BR1  UNL     1      23.360   3.746  24.634  1.00  0.00    -0.088 Br
HETATM    7  C14 UNL     1      24.904   2.541  22.664  1.00  0.00     0.190 C
HETATM    8  C22 UNL     1      24.738   2.577  21.196  1.00  0.00     0.244 C
HETATM    9  O2  UNL     1      25.165   1.609  20.478  1.00  0.00    -0.271 OA
HETATM   10  N5  UNL     1      24.119   3.647  20.532  1.00  0.00    -0.332 N
ENDROOT
BRANCH   1  11
HETATM   11  C8  UNL     1      22.784   3.740  18.499  1.00  0.00     0.241 C
HETATM   12  N2  UNL     1      21.954   4.444  17.581  1.00  0.00    -0.355 N
ATOM     13  H2  UNL     1      22.054   5.459  17.540  1.00  0.00     0.162 HD
HETATM   14  O1  UNL     1      22.649   2.481  18.538  1.00  0.00    -0.271 OA
BRANCH  12  15
HETATM   15  C7  UNL     1      20.991   3.840  16.714  1.00  0.00     0.164 C
BRANCH  15  16
HETATM   16  C6  UNL     1      21.169   4.185  15.271  1.00  0.00    -0.006 A
HETATM   17  C5  UNL     1      20.830   5.356  14.639  1.00  0.00     0.121 A
HETATM   18  N1  UNL     1      21.147   5.267  13.332  1.00  0.00    -0.294 N
HETATM   19  N6  UNL     1      21.676   4.068  13.141  1.00  0.00    -0.309 N
HETATM   20  C23 UNL     1      21.711   3.375  14.285  1.00  0.00     0.117 A
ATOM     21  H6  UNL     1      22.011   3.720  12.243  1.00  0.00     0.186 HD
BRANCH  18  22
HETATM   22  C2  UNL     1      20.946   6.296  12.313  1.00  0.00     0.042 C
HETATM   23  C1  UNL     1      21.478   5.682  11.011  1.00  0.00     0.039 C
HETATM   24  C3  UNL     1      19.469   6.560  12.140  1.00  0.00     0.039 C
HETATM   25  C4  UNL     1      21.723   7.543  12.576  1.00  0.00     0.039 C
ENDBRANCH  18  22
ENDBRANCH  15  16
ENDBRANCH  12  15
ENDBRANCH   1  11
BRANCH   7  26
HETATM   26  N3  UNL     1      24.074   1.566  23.290  1.00  0.00    -0.353 N
ATOM     27  H3  UNL     1      24.325   1.374  24.259  1.00  0.00     0.162 HD
BRANCH  26  28
HETATM   28  C15 UNL     1      22.995   0.829  22.838  1.00  0.00     0.168 C
HETATM   29  S1  UNL     1      23.384  -0.813  22.532  1.00  0.00    -0.041 SA
BRANCH  28  30
HETATM   30  N4  UNL     1      21.659   1.161  22.580  1.00  0.00    -0.367 N
ATOM     31  H4  UNL     1      21.104   1.414  23.398  1.00  0.00     0.161 HD
BRANCH  30  32
HETATM   32  C16 UNL     1      20.951   1.195  21.306  1.00  0.00     0.122 C
BRANCH  32  33
HETATM   33  C17 UNL     1      20.328   2.549  21.179  1.00  0.00     0.020 C
BRANCH  33  34
HETATM   34  C18 UNL     1      19.078   2.734  20.465  1.00  0.00     0.002 C
BRANCH  34  35
HETATM   35  C19 UNL     1      17.871   1.945  20.688  1.00  0.00     0.001 C
BRANCH  35  36
HETATM   36  C20 UNL     1      16.682   2.548  21.331  1.00  0.00     0.011 C
BRANCH  36  37
HETATM   37  C21 UNL     1      15.626   1.428  21.529  1.00  0.00     0.085 C
HETATM   38 BR2  UNL     1      16.483  -0.090  22.328  1.00  0.00    -0.097 Br
ENDBRANCH  36  37
ENDBRANCH  35  36
ENDBRANCH  34  35
ENDBRANCH  33  34
ENDBRANCH  32  33
ENDBRANCH  30  32
ENDBRANCH  28  30
ENDBRANCH  26  28
ENDBRANCH   7  26
TORSDOF 13
ENDMDL