MODEL 5
REMARK VINA RESULT: -7.389211021      2.666      6.002
REMARK  7 active torsions:
REMARK  status: ('A' for Active; 'I' for Inactive)
REMARK    1  A    between atoms: C2_2  and  O2_4
REMARK    2  A    between atoms: O2_4  and  C3_5
REMARK    3  A    between atoms: C4_6  and  C5_7
REMARK    4  A    between atoms: C5_7  and  O3_8
REMARK    5  A    between atoms: C16_22  and  O5_23
REMARK    6  A    between atoms: O5_23  and  C17_24
REMARK    7  A    between atoms: C17_24  and  C18_26
ROOT
HETATM    1  C3  UNL     1      96.737  28.016  14.216  1.00  0.00     0.171 C
HETATM    2  C4  UNL     1      95.289  28.370  14.222  1.00  0.00     0.065 C
HETATM    3  C6  UNL     1      94.689  28.485  15.589  1.00  0.00    -0.003 C
HETATM    4  C7  UNL     1      95.289  28.050  16.657  1.00  0.00    -0.017 C
HETATM    5  S1  UNL     1      94.879  28.025  18.382  1.00  0.00    -0.128 SA
HETATM    6  C8  UNL     1      96.636  27.990  18.956  1.00  0.00     0.068 C
HETATM    7  C9  UNL     1      96.753  27.412  20.315  1.00  0.00     0.050 C
HETATM    8  C10 UNL     1      96.135  26.067  20.383  1.00  0.00    -0.079 C
HETATM    9  C11 UNL     1      95.374  25.702  21.598  1.00  0.00     0.043 C
HETATM   10  C12 UNL     1      96.317  25.288  19.336  1.00  0.00     0.053 C
HETATM   11  C13 UNL     1      97.078  25.716  18.179  1.00  0.00     0.155 C
HETATM   12  O4  UNL     1      97.627  24.896  17.422  1.00  0.00    -0.293 OA
HETATM   13  C14 UNL     1      97.227  27.179  17.854  1.00  0.00     0.085 C
HETATM   14  C15 UNL     1      96.611  27.428  16.554  1.00  0.00     0.070 C
HETATM   15  C16 UNL     1      97.400  28.245  15.558  1.00  0.00     0.171 C
ENDROOT
BRANCH  15  16
HETATM   16  O5  UNL     1      98.745  27.770  15.451  1.00  0.00    -0.312 OA
BRANCH  16  17
HETATM   17  C17 UNL     1      99.813  28.537  15.898  1.00  0.00     0.262 C
HETATM   18  O6  UNL     1      99.505  29.653  16.427  1.00  0.00    -0.265 OA
BRANCH  17  19
HETATM   19  C18 UNL     1     101.224  28.109  15.777  1.00  0.00     0.077 C
HETATM   20  C19 UNL     1     101.599  27.102  16.867  1.00  0.00     0.020 C
HETATM   21  C20 UNL     1     102.177  29.282  15.951  1.00  0.00     0.020 C
ENDBRANCH  17  19
ENDBRANCH  16  17
ENDBRANCH  15  16
BRANCH   1  22
HETATM   22  O2  UNL     1      96.818  26.600  13.983  1.00  0.00    -0.313 OA
BRANCH  22  23
HETATM   23  C2  UNL     1      97.253  26.133  12.750  1.00  0.00     0.255 C
HETATM   24  C1  UNL     1      97.460  27.119  11.658  1.00  0.00     0.126 C
HETATM   25  O1  UNL     1      97.444  24.902  12.634  1.00  0.00    -0.266 OA
ENDBRANCH  22  23
ENDBRANCH   1  22
BRANCH   2  26
HETATM   26  C5  UNL     1      95.048  29.655  13.454  1.00  0.00     0.175 C
BRANCH  26  27
HETATM   27  O3  UNL     1      93.988  30.333  14.082  1.00  0.00    -0.400 OA
ATOM     28  H3  UNL     1      93.778  31.092  13.551  1.00  0.00     0.209 HD
ENDBRANCH  26  27
ENDBRANCH   2  26
TORSDOF 7
ENDMDL