MODEL 1
REMARK VINA RESULT: -8.195475210      0.000      0.000
REMARK  8 active torsions:
REMARK  status: ('A' for Active; 'I' for Inactive)
REMARK    1  A    between atoms: C3_3  and  O1_4
REMARK    2  A    between atoms: C9_12  and  O3_13
REMARK    3  A    between atoms: C9_12  and  C12_17
REMARK    4  A    between atoms: O3_13  and  C10_14
REMARK    5  A    between atoms: C12_17  and  O6_19
REMARK    6  A    between atoms: O6_19  and  C13_20
REMARK    7  A    between atoms: C13_20  and  C14_22
REMARK    8  A    between atoms: C14_22  and  C15_23
ROOT
HETATM    1  C1  UNL     1      94.844  28.675  18.668  1.00  0.00     0.017 C
HETATM    2  C2  UNL     1      95.408  28.055  17.641  1.00  0.00    -0.056 C
HETATM    3  C3  UNL     1      95.670  26.641  17.920  1.00  0.00     0.153 C
HETATM    4  C4  UNL     1      97.109  26.441  18.224  1.00  0.00     0.114 C
HETATM    5  C5  UNL     1      98.056  26.571  17.111  1.00  0.00     0.134 C
HETATM    6  O2  UNL     1      98.769  25.526  17.142  1.00  0.00    -0.297 OA
HETATM    7  C6  UNL     1      98.495  27.402  16.010  1.00  0.00     0.059 C
HETATM    8  C7  UNL     1      99.967  27.805  16.321  1.00  0.00     0.018 C
HETATM    9  C8  UNL     1      97.727  28.503  15.479  1.00  0.00     0.050 C
HETATM   10  C9  UNL     1      96.669  28.085  14.464  1.00  0.00     0.164 C
HETATM   11  C17 UNL     1      95.349  28.249  15.165  1.00  0.00     0.059 C
HETATM   12  C18 UNL     1      95.622  28.934  16.485  1.00  0.00     0.028 C
HETATM   13  C19 UNL     1      97.000  29.473  16.316  1.00  0.00    -0.033 C
HETATM   14  C20 UNL     1      97.636  29.940  17.560  1.00  0.00     0.016 C
HETATM   15  C21 UNL     1      96.821  30.740  15.446  1.00  0.00     0.016 C
ENDROOT
BRANCH  10  16
HETATM   16  O3  UNL     1      96.722  29.108  13.444  1.00  0.00    -0.299 OA
BRANCH  16  17
HETATM   17  C10 UNL     1      95.672  29.403  12.614  1.00  0.00     0.256 C
HETATM   18  C11 UNL     1      95.238  28.352  11.639  1.00  0.00     0.126 C
HETATM   19  O4  UNL     1      95.124  30.519  12.699  1.00  0.00    -0.266 OA
ENDBRANCH  16  17
ENDBRANCH  10  16
BRANCH  10  20
HETATM   20  C12 UNL     1      96.860  26.770  13.873  1.00  0.00     0.302 C
HETATM   21  O5  UNL     1      97.822  26.501  13.071  1.00  0.00    -0.261 OA
BRANCH  20  22
HETATM   22  O6  UNL     1      96.016  25.713  14.126  1.00  0.00    -0.243 OA
BRANCH  22  23
HETATM   23  C13 UNL     1      95.993  24.543  13.387  1.00  0.00     0.266 C
HETATM   24  O7  UNL     1      96.566  23.541  13.906  1.00  0.00    -0.265 OA
BRANCH  23  25
HETATM   25  C14 UNL     1      95.327  24.488  12.059  1.00  0.00     0.111 C
BRANCH  25  26
HETATM   26  C15 UNL     1      96.385  24.071  11.047  1.00  0.00     0.005 C
HETATM   27  C16 UNL     1      96.533  25.159  10.015  1.00  0.00     0.005 C
ENDBRANCH  25  26
ENDBRANCH  23  25
ENDBRANCH  22  23
ENDBRANCH  20  22
ENDBRANCH  10  20
BRANCH   3  28
HETATM   28  O1  UNL     1      94.968  26.216  19.085  1.00  0.00    -0.391 OA
ATOM     29  H1  UNL     1      94.699  25.309  19.005  1.00  0.00     0.210 HD
ENDBRANCH   3  28
TORSDOF 8
ENDMDL