MODEL 2
REMARK VINA RESULT: -7.538206820      1.779      2.055
REMARK  8 active torsions:
REMARK  status: ('A' for Active; 'I' for Inactive)
REMARK    1  A    between atoms: C2_2  and  O2_4
REMARK    2  A    between atoms: O2_4  and  C3_5
REMARK    3  A    between atoms: C4_6  and  C5_7
REMARK    4  A    between atoms: C10_12  and  N1_13
REMARK    5  A    between atoms: C14_20  and  O4_21
REMARK    6  A    between atoms: O4_21  and  C15_22
REMARK    7  A    between atoms: C17_25  and  O6_26
REMARK    8  A    between atoms: O6_26  and  C18_27
ROOT
HETATM    1  C3  UNL     1      96.712  27.375  16.732  1.00  0.00     0.095 C
HETATM    2  C4  UNL     1      96.312  25.968  16.520  1.00  0.00    -0.020 C
HETATM    3  C9  UNL     1      95.990  25.650  15.273  1.00  0.00     0.013 C
HETATM    4  C10 UNL     1      96.017  26.620  14.147  1.00  0.00     0.163 C
HETATM    5  C14 UNL     1      97.002  27.724  14.282  1.00  0.00     0.196 C
HETATM    6  C17 UNL     1      97.607  27.905  15.639  1.00  0.00     0.221 C
ENDROOT
BRANCH   4   7
HETATM    7  N1  UNL     1      96.218  25.870  12.912  1.00  0.00    -0.289 N
HETATM    8  C11 UNL     1      96.202  24.526  12.829  1.00  0.00     0.116 A
HETATM    9  C12 UNL     1      96.422  24.134  11.534  1.00  0.00     0.094 A
HETATM   10  C13 UNL     1      96.576  25.321  10.816  1.00  0.00     0.261 A
HETATM   11  O3  UNL     1      96.797  25.452   9.587  1.00  0.00    -0.267 OA
HETATM   12  N2  UNL     1      96.445  26.332  11.693  1.00  0.00    -0.264 N
ATOM     13  H2  UNL     1      96.511  27.320  11.451  1.00  0.00     0.190 HD
ENDBRANCH   4   7
BRANCH   5  14
HETATM   14  O4  UNL     1      96.331  28.914  13.839  1.00  0.00    -0.311 OA
BRANCH  14  15
HETATM   15  C15 UNL     1      96.137  30.029  14.596  1.00  0.00     0.255 C
HETATM   16  C16 UNL     1      94.863  30.131  15.379  1.00  0.00     0.126 C
HETATM   17  O5  UNL     1      97.020  30.913  14.607  1.00  0.00    -0.266 OA
ENDBRANCH  14  15
ENDBRANCH   5  14
BRANCH   2  18
HETATM   18  C5  UNL     1      96.247  24.921  17.555  1.00  0.00    -0.022 C
HETATM   19  C6  UNL     1      95.353  25.321  18.725  1.00  0.00     0.019 C
HETATM   20  C7  UNL     1      97.615  24.492  18.044  1.00  0.00     0.019 C
HETATM   21  C8  UNL     1      95.634  23.629  17.024  1.00  0.00     0.019 C
ENDBRANCH   2  18
BRANCH   6  22
HETATM   22  O6  UNL     1      98.945  27.562  15.740  1.00  0.00    -0.307 OA
BRANCH  22  23
HETATM   23  C18 UNL     1     100.014  28.359  15.956  1.00  0.00     0.255 C
HETATM   24  C19 UNL     1     101.426  27.968  15.813  1.00  0.00     0.126 C
HETATM   25  O7  UNL     1      99.737  29.520  16.305  1.00  0.00    -0.266 OA
ENDBRANCH  22  23
ENDBRANCH   6  22
BRANCH   1  26
HETATM   26  O2  UNL     1      97.065  27.726  18.014  1.00  0.00    -0.280 OA
BRANCH  26  27
HETATM   27  C2  UNL     1      96.694  28.765  18.773  1.00  0.00     0.259 C
HETATM   28  C1  UNL     1      97.017  30.142  18.398  1.00  0.00     0.126 C
HETATM   29  O1  UNL     1      96.064  28.528  19.808  1.00  0.00    -0.265 OA
ENDBRANCH  26  27
ENDBRANCH   1  26
TORSDOF 8
ENDMDL