MODEL 3
REMARK VINA RESULT: -6.883776857      1.567      2.543
REMARK  7 active torsions:
REMARK  status: ('A' for Active; 'I' for Inactive)
REMARK    1  A    between atoms: O1_2  and  C2_3
REMARK    2  A    between atoms: C7_9  and  O3_11
REMARK    3  A    between atoms: C13_18  and  C15_20
REMARK    4  A    between atoms: C15_20  and  O5_21
REMARK    5  A    between atoms: O5_21  and  C16_22
REMARK    6  A    between atoms: C18_25  and  O7_26
REMARK    7  A    between atoms: O7_26  and  C19_27
ROOT
HETATM    1  C2  UNL     1      95.927  27.114  17.172  1.00  0.00     0.220 C
HETATM    2  C3  UNL     1      96.682  25.963  17.807  1.00  0.00     0.158 C
HETATM    3  O2  UNL     1      97.882  26.109  17.898  1.00  0.00    -0.295 OA
HETATM    4  C4  UNL     1      96.036  24.745  18.290  1.00  0.00     0.088 C
HETATM    5  C5  UNL     1      95.291  24.000  17.173  1.00  0.00     0.023 C
HETATM    6  C6  UNL     1      94.416  22.972  17.907  1.00  0.00     0.013 C
HETATM    7  C7  UNL     1      96.234  23.341  16.232  1.00  0.00     0.061 C
HETATM    8  C8  UNL     1      96.089  21.819  16.381  1.00  0.00     0.046 C
HETATM    9  C9  UNL     1      96.014  23.688  14.776  1.00  0.00     0.023 C
HETATM   10  C10 UNL     1      94.564  23.598  14.419  1.00  0.00     0.013 C
HETATM   11  C11 UNL     1      96.713  24.933  14.333  1.00  0.00     0.086 C
HETATM   12  C12 UNL     1      95.846  26.098  14.098  1.00  0.00     0.140 C
HETATM   13  O4  UNL     1      94.934  25.877  13.267  1.00  0.00    -0.297 OA
HETATM   14  C13 UNL     1      95.860  27.420  14.646  1.00  0.00     0.068 C
HETATM   15  C14 UNL     1      94.390  27.797  14.999  1.00  0.00     0.028 C
HETATM   16  C18 UNL     1      96.590  27.644  15.951  1.00  0.00     0.185 C
ENDROOT
BRANCH  14  17
HETATM   17  C15 UNL     1      96.292  28.507  13.722  1.00  0.00     0.198 C
BRANCH  17  18
HETATM   18  O5  UNL     1      96.652  28.209  12.458  1.00  0.00    -0.321 OA
BRANCH  18  19
HETATM   19  C16 UNL     1      96.271  28.622  11.252  1.00  0.00     0.254 C
HETATM   20  C17 UNL     1      95.702  27.625  10.296  1.00  0.00     0.126 C
HETATM   21  O6  UNL     1      96.374  29.797  10.901  1.00  0.00    -0.266 OA
ENDBRANCH  18  19
ENDBRANCH  17  18
ENDBRANCH  14  17
BRANCH  16  22
HETATM   22  O7  UNL     1      97.968  27.346  15.894  1.00  0.00    -0.312 OA
BRANCH  22  23
HETATM   23  C19 UNL     1      98.981  28.293  15.943  1.00  0.00     0.255 C
HETATM   24  C20 UNL     1     100.415  27.926  15.756  1.00  0.00     0.126 C
HETATM   25  O8  UNL     1      98.652  29.490  16.153  1.00  0.00    -0.266 OA
ENDBRANCH  22  23
ENDBRANCH  16  22
BRANCH   1  26
HETATM   26  O1  UNL     1      95.979  28.110  18.185  1.00  0.00    -0.381 OA
HETATM   27  C1  UNL     1      94.891  28.932  18.203  1.00  0.00     0.202 C
ENDBRANCH   1  26
BRANCH   7  28
HETATM   28  O3  UNL     1      97.582  23.603  16.503  1.00  0.00    -0.389 OA
ATOM     29  H3  UNL     1      98.179  23.270  15.843  1.00  0.00     0.210 HD
ENDBRANCH   7  28
TORSDOF 7
ENDMDL