MODEL 3
REMARK VINA RESULT: -8.076586523      2.600      3.995
REMARK  7 active torsions:
REMARK  status: ('A' for Active; 'I' for Inactive)
REMARK    1  A    between atoms: O1_2  and  C2_3
REMARK    2  A    between atoms: C2_3  and  C3_5
REMARK    3  A    between atoms: C7_11  and  O5_12
REMARK    4  A    between atoms: O5_12  and  C8_13
REMARK    5  A    between atoms: C8_13  and  C9_15
REMARK    6  A    between atoms: C15_22  and  O8_23
REMARK    7  A    between atoms: C15_22  and  C16_25
ROOT
HETATM    1  C3  UNL     1      96.739  22.352  13.357  1.00  0.00     0.048 C
HETATM    2  C4  UNL     1      96.450  22.697  14.597  1.00  0.00     0.085 C
HETATM    3  O3  UNL     1      96.687  22.105  15.855  1.00  0.00    -0.281 OA
HETATM    4  C5  UNL     1      96.796  23.428  16.333  1.00  0.00     0.277 C
HETATM    5  O4  UNL     1      97.489  23.902  17.241  1.00  0.00    -0.264 OA
HETATM    6  C6  UNL     1      95.791  23.775  15.296  1.00  0.00     0.174 C
HETATM    7  C7  UNL     1      95.854  25.149  14.718  1.00  0.00     0.163 C
HETATM    8  C13 UNL     1      95.536  25.128  13.234  1.00  0.00     0.097 C
HETATM    9  C14 UNL     1      95.644  26.358  12.482  1.00  0.00     0.169 C
HETATM   10  O7  UNL     1      95.232  27.525  12.484  1.00  0.00    -0.294 OA
HETATM   11  C15 UNL     1      96.577  25.682  11.520  1.00  0.00     0.126 C
HETATM   12  C19 UNL     1      96.746  24.582  12.459  1.00  0.00     0.046 C
HETATM   13  C20 UNL     1      96.373  23.178  12.147  1.00  0.00     0.056 C
ENDROOT
BRANCH   7  14
HETATM   14  O5  UNL     1      97.057  25.843  14.982  1.00  0.00    -0.313 OA
BRANCH  14  15
HETATM   15  C8  UNL     1      97.094  27.213  15.227  1.00  0.00     0.267 C
HETATM   16  O6  UNL     1      97.829  27.880  14.421  1.00  0.00    -0.264 OA
BRANCH  15  17
HETATM   17  C9  UNL     1      96.370  27.886  16.305  1.00  0.00     0.037 C
HETATM   18  C10 UNL     1      94.916  28.158  15.991  1.00  0.00     0.025 C
HETATM   19  C11 UNL     1      96.418  27.076  17.606  1.00  0.00     0.025 C
HETATM   20  C12 UNL     1      97.021  29.208  16.606  1.00  0.00     0.025 C
ENDBRANCH  15  17
ENDBRANCH  14  15
ENDBRANCH   7  14
BRANCH   1  21
HETATM   21  C2  UNL     1      97.453  21.114  13.102  1.00  0.00     0.291 C
HETATM   22  O2  UNL     1      96.875  20.027  13.362  1.00  0.00    -0.260 OA
BRANCH  21  23
HETATM   23  O1  UNL     1      98.722  21.045  12.595  1.00  0.00    -0.323 OA
HETATM   24  C1  UNL     1      99.018  20.396  11.368  1.00  0.00     0.213 C
ENDBRANCH  21  23
ENDBRANCH   1  21
BRANCH  11  25
HETATM   25  O8  UNL     1      97.769  26.486  11.537  1.00  0.00    -0.381 OA
ATOM     26  H8  UNL     1      97.853  26.814  10.649  1.00  0.00     0.211 HD
ENDBRANCH  11  25
BRANCH  11  27
HETATM   27  C16 UNL     1      96.080  25.478  10.137  1.00  0.00     0.020 C
HETATM   28  C17 UNL     1      97.086  24.661   9.301  1.00  0.00     0.013 C
HETATM   29  C18 UNL     1      95.784  26.695   9.338  1.00  0.00     0.013 C
ENDBRANCH  11  27
TORSDOF 7
ENDMDL