MODEL 2
REMARK VINA RESULT: -7.517475426      2.419      6.435
REMARK  6 active torsions:
REMARK  status: ('A' for Active; 'I' for Inactive)
REMARK    1  A    between atoms: C2_2  and  C3_3
REMARK    2  A    between atoms: C3_3  and  O1_4
REMARK    3  A    between atoms: O1_4  and  C4_5
REMARK       I    between atoms: C4_5  and  N1_7
REMARK    4  A    between atoms: N1_7  and  C5_9
REMARK    5  A    between atoms: C5_9  and  C7_11
REMARK    6  A    between atoms: C17_26  and  O8_27
ROOT
HETATM    1  C7  UNL     1      96.034  27.401  14.998  1.00  0.00     0.179 C
HETATM    2  O3  UNL     1      95.179  26.355  14.809  1.00  0.00    -0.350 OA
HETATM    3  C8  UNL     1      95.679  25.095  14.786  1.00  0.00     0.276 C
HETATM    4  O4  UNL     1      95.028  24.181  15.641  1.00  0.00    -0.324 OA
HETATM    5  C9  UNL     1      96.213  23.627  16.149  1.00  0.00     0.174 C
HETATM    6  C10 UNL     1      96.681  22.374  15.487  1.00  0.00     0.080 C
HETATM    7  O5  UNL     1      96.335  23.619  17.511  1.00  0.00    -0.352 OA
HETATM    8  C11 UNL     1      97.576  24.035  17.989  1.00  0.00     0.206 C
HETATM    9  C12 UNL     1      97.744  25.555  17.802  1.00  0.00     0.187 C
HETATM   10  O6  UNL     1      97.134  26.128  18.922  1.00  0.00    -0.345 OA
HETATM   11  C13 UNL     1      95.820  26.363  18.614  1.00  0.00     0.158 C
HETATM   12  C14 UNL     1      94.845  25.565  19.448  1.00  0.00     0.078 C
HETATM   13  C15 UNL     1      95.542  27.838  18.902  1.00  0.00     0.078 C
HETATM   14  O7  UNL     1      95.610  26.050  17.286  1.00  0.00    -0.339 OA
HETATM   15  C16 UNL     1      96.858  25.928  16.699  1.00  0.00     0.134 C
HETATM   16  C17 UNL     1      97.151  27.215  15.978  1.00  0.00     0.190 C
HETATM   17  C19 UNL     1      96.895  24.866  15.631  1.00  0.00     0.143 C
ENDROOT
BRANCH   1  18
HETATM   18  C5  UNL     1      96.397  28.132  13.733  1.00  0.00     0.114 C
HETATM   19  C6  UNL     1      95.707  29.521  13.735  1.00  0.00     0.035 C
BRANCH  18  20
HETATM   20  N1  UNL     1      96.001  27.501  12.519  1.00  0.00    -0.330 N
HETATM   21  C4  UNL     1      96.977  26.949  11.663  1.00  0.00     0.360 C
HETATM   22  O2  UNL     1      98.200  27.003  11.948  1.00  0.00    -0.239 OA
ATOM     23  H1  UNL     1      95.014  27.449  12.269  1.00  0.00     0.165 HD
BRANCH  21  24
HETATM   24  O1  UNL     1      96.601  26.338  10.492  1.00  0.00    -0.304 OA
BRANCH  24  25
HETATM   25  C3  UNL     1      96.118  25.031  10.376  1.00  0.00     0.180 C
BRANCH  25  26
HETATM   26  C2  UNL     1      96.552  24.397   9.094  1.00  0.00     0.022 C
HETATM   27  C1  UNL     1      95.982  25.221   7.927  1.00  0.00     0.007 C
ENDBRANCH  25  26
ENDBRANCH  24  25
ENDBRANCH  21  24
ENDBRANCH  18  20
ENDBRANCH   1  18
BRANCH  16  28
HETATM   28  O8  UNL     1      98.331  27.025  15.267  1.00  0.00    -0.385 OA
HETATM   29  C18 UNL     1      99.363  27.830  15.750  1.00  0.00     0.202 C
ENDBRANCH  16  28
TORSDOF 6
ENDMDL