MODEL 4
REMARK VINA RESULT: -5.695191480      1.548      5.275
REMARK  4 active torsions:
REMARK  status: ('A' for Active; 'I' for Inactive)
REMARK    1  A    between atoms: C9_11  and  O3_12
REMARK    2  A    between atoms: C12_15  and  O4_16
REMARK    3  A    between atoms: C17_23  and  O7_25
REMARK    4  A    between atoms: C19_27  and  O8_28
ROOT
HETATM    1  C1  UNL     1      95.910  25.635  11.549  1.00  0.00     0.026 C
HETATM    2  C2  UNL     1      96.316  25.828  12.782  1.00  0.00     0.018 A
HETATM    3  C3  UNL     1      97.079  26.939  13.345  1.00  0.00     0.192 A
HETATM    4  O1  UNL     1      97.465  27.921  12.638  1.00  0.00    -0.287 OA
HETATM    5  C4  UNL     1      97.305  26.733  14.769  1.00  0.00     0.064 A
HETATM    6  C5  UNL     1      96.730  25.587  15.076  1.00  0.00     0.094 A
HETATM    7  O2  UNL     1      96.639  24.916  16.275  1.00  0.00    -0.336 OA
HETATM    8  C6  UNL     1      96.620  25.125  17.665  1.00  0.00     0.117 C
HETATM    9  C7  UNL     1      95.436  24.313  18.170  1.00  0.00     0.052 C
HETATM   10  C8  UNL     1      97.827  24.541  18.289  1.00  0.00     0.052 C
HETATM   11  C9  UNL     1      96.295  26.551  18.042  1.00  0.00     0.203 C
HETATM   12  C11 UNL     1      97.496  27.403  17.862  1.00  0.00     0.144 C
HETATM   13  C12 UNL     1      97.426  28.327  16.713  1.00  0.00     0.207 C
HETATM   14  O5  UNL     1      96.194  28.855  16.394  1.00  0.00    -0.316 OA
HETATM   15  C14 UNL     1      95.108  28.194  16.896  1.00  0.00     0.164 C
HETATM   16  C15 UNL     1      94.496  28.903  18.105  1.00  0.00     0.078 C
HETATM   17  C16 UNL     1      94.015  28.323  15.835  1.00  0.00     0.078 C
HETATM   18  O6  UNL     1      95.276  26.858  17.109  1.00  0.00    -0.316 OA
HETATM   19  C17 UNL     1      98.055  27.764  15.454  1.00  0.00     0.144 C
HETATM   20  C18 UNL     1      99.488  27.337  15.671  1.00  0.00     0.057 C
HETATM   21  C19 UNL     1      96.085  24.928  13.939  1.00  0.00     0.214 A
ENDROOT
BRANCH  19  22
HETATM   22  O7  UNL     1      98.140  28.873  14.605  1.00  0.00    -0.379 OA
ATOM     23  H7  UNL     1      98.522  29.591  15.097  1.00  0.00     0.211 HD
ENDBRANCH  19  22
BRANCH  13  24
HETATM   24  O4  UNL     1      98.244  29.420  16.982  1.00  0.00    -0.357 OA
HETATM   25  C13 UNL     1      97.742  30.386  17.790  1.00  0.00     0.205 C
ENDBRANCH  13  24
BRANCH  21  26
HETATM   26  O8  UNL     1      96.771  23.739  13.674  1.00  0.00    -0.379 OA
HETATM   27  C20 UNL     1      95.936  22.623  13.906  1.00  0.00     0.202 C
ENDBRANCH  21  26
BRANCH  11  28
HETATM   28  O3  UNL     1      95.692  26.559  19.255  1.00  0.00    -0.357 OA
HETATM   29  C10 UNL     1      96.295  27.046  20.347  1.00  0.00     0.205 C
ENDBRANCH  11  28
TORSDOF 4
ENDMDL