MODEL 3
REMARK VINA RESULT: -8.403134126      2.802      4.485
REMARK  5 active torsions:
REMARK  status: ('A' for Active; 'I' for Inactive)
REMARK    1  A    between atoms: C2_2  and  C3_3
REMARK    2  A    between atoms: C3_3  and  C6_6
REMARK    3  A    between atoms: C6_6  and  C8_8
REMARK    4  A    between atoms: C12_15  and  C13_16
REMARK    5  A    between atoms: C20_26  and  O6_28
ROOT
HETATM    1  C13 UNL     1      95.739  25.637  16.115  1.00  0.00    -0.002 C
HETATM    2  C14 UNL     1      96.351  24.626  16.700  1.00  0.00     0.015 C
HETATM    3  C15 UNL     1      97.463  24.734  17.659  1.00  0.00     0.060 C
HETATM    4  C16 UNL     1      95.868  23.293  16.353  1.00  0.00     0.094 C
HETATM    5  N1  UNL     1      95.478  22.238  16.095  1.00  0.00    -0.192 NA
ENDROOT
BRANCH   1   6
HETATM    6  C12 UNL     1      96.118  27.026  16.371  1.00  0.00     0.048 C
HETATM    7  C10 UNL     1      96.206  27.930  15.170  1.00  0.00     0.145 C
HETATM    8  C9  UNL     1      97.486  28.051  14.507  1.00  0.00     0.279 C
HETATM    9  C11 UNL     1      95.281  27.589  14.045  1.00  0.00     0.178 C
HETATM   10  C18 UNL     1      95.759  29.042  16.064  1.00  0.00     0.167 C
HETATM   11  O1  UNL     1      97.405  27.459  13.285  1.00  0.00    -0.307 OA
HETATM   12  O2  UNL     1      98.522  28.608  14.959  1.00  0.00    -0.264 OA
HETATM   13  C8  UNL     1      96.088  26.824  13.104  1.00  0.00     0.207 C
HETATM   14  O3  UNL     1      94.149  27.940  14.059  1.00  0.00    -0.294 OA
HETATM   15  C17 UNL     1      95.030  27.949  16.876  1.00  0.00     0.070 C
HETATM   16  O4  UNL     1      96.790  29.441  16.943  1.00  0.00    -0.311 OA
HETATM   17  C20 UNL     1      95.157  28.410  18.288  1.00  0.00     0.148 C
HETATM   18  C19 UNL     1      96.533  29.016  18.252  1.00  0.00     0.294 C
HETATM   19  C21 UNL     1      95.018  27.354  19.332  1.00  0.00     0.057 C
HETATM   20  O5  UNL     1      97.254  29.083  19.276  1.00  0.00    -0.262 OA
BRANCH  13  21
HETATM   21  C6  UNL     1      95.838  26.948  11.652  1.00  0.00     0.030 C
HETATM   22  C7  UNL     1      96.246  28.395  11.237  1.00  0.00     0.014 C
BRANCH  21  23
HETATM   23  C3  UNL     1      96.376  25.976  10.696  1.00  0.00    -0.025 C
HETATM   24  C4  UNL     1      97.815  25.732  10.552  1.00  0.00     0.019 C
HETATM   25  C5  UNL     1      95.807  24.566  11.121  1.00  0.00     0.019 C
BRANCH  23  26
HETATM   26  C2  UNL     1      95.787  26.121   9.315  1.00  0.00    -0.028 C
HETATM   27  C1  UNL     1      95.977  25.269   8.336  1.00  0.00     0.007 C
ENDBRANCH  23  26
ENDBRANCH  21  23
ENDBRANCH  13  21
BRANCH  17  28
HETATM   28  O6  UNL     1      94.199  29.438  18.455  1.00  0.00    -0.379 OA
ATOM     29  H6  UNL     1      93.936  29.700  17.581  1.00  0.00     0.211 HD
ENDBRANCH  17  28
ENDBRANCH   1   6
TORSDOF 5
ENDMDL