MODEL 4
REMARK VINA RESULT: -7.436127014      1.416      4.070
REMARK  8 active torsions:
REMARK  status: ('A' for Active; 'I' for Inactive)
REMARK    1  A    between atoms: C2_2  and  C4_4
REMARK    2  A    between atoms: C4_4  and  O2_6
REMARK    3  A    between atoms: O2_6  and  C5_7
REMARK    4  A    between atoms: C7_10  and  O4_12
REMARK    5  A    between atoms: O4_12  and  C9_13
REMARK    6  A    between atoms: C9_13  and  C10_15
REMARK    7  A    between atoms: C10_15  and  C12_17
REMARK    8  A    between atoms: C20_27  and  O8_28
ROOT
HETATM    1  C5  UNL     1      97.036  26.137  13.288  1.00  0.00     0.199 C
HETATM    2  C6  UNL     1      98.440  26.709  13.023  1.00  0.00     0.082 C
HETATM    3  O3  UNL     1      96.217  27.146  13.438  1.00  0.00    -0.316 OA
HETATM    4  C7  UNL     1      95.453  27.806  12.634  1.00  0.00     0.178 C
HETATM    5  C8  UNL     1      94.001  27.588  13.024  1.00  0.00     0.080 C
HETATM    6  C14 UNL     1      95.604  27.734  11.156  1.00  0.00     0.074 C
HETATM    7  C15 UNL     1      96.275  28.979  10.553  1.00  0.00     0.018 C
HETATM    8  C16 UNL     1      96.292  26.559  10.599  1.00  0.00     0.148 C
HETATM    9  O6  UNL     1      95.879  26.417   9.230  1.00  0.00    -0.315 OA
HETATM   10  C17 UNL     1      95.783  25.083   8.910  1.00  0.00     0.259 C
HETATM   11  O7  UNL     1      95.397  24.619   7.821  1.00  0.00    -0.265 OA
HETATM   12  C18 UNL     1      96.220  24.295  10.091  1.00  0.00     0.121 C
HETATM   13  C19 UNL     1      95.870  25.281  11.220  1.00  0.00     0.059 C
HETATM   14  C20 UNL     1      96.736  25.005  12.408  1.00  0.00     0.187 C
ENDROOT
BRANCH   4  15
HETATM   15  O4  UNL     1      95.671  29.209  12.927  1.00  0.00    -0.283 OA
BRANCH  15  16
HETATM   16  C9  UNL     1      95.145  29.839  14.021  1.00  0.00     0.265 C
HETATM   17  O5  UNL     1      94.180  30.617  13.881  1.00  0.00    -0.265 OA
BRANCH  16  18
HETATM   18  C10 UNL     1      95.770  29.553  15.341  1.00  0.00     0.081 C
HETATM   19  C11 UNL     1      94.763  29.467  16.452  1.00  0.00     0.020 C
BRANCH  18  20
HETATM   20  C12 UNL     1      96.846  30.571  15.672  1.00  0.00     0.010 C
HETATM   21  C13 UNL     1      97.083  30.511  17.166  1.00  0.00     0.006 C
ENDBRANCH  18  20
ENDBRANCH  16  18
ENDBRANCH  15  16
ENDBRANCH   4  15
BRANCH   1  22
HETATM   22  O2  UNL     1      97.151  25.577  14.620  1.00  0.00    -0.277 OA
BRANCH  22  23
HETATM   23  C4  UNL     1      96.610  26.141  15.736  1.00  0.00     0.290 C
HETATM   24  O1  UNL     1      95.383  26.107  15.880  1.00  0.00    -0.260 OA
BRANCH  23  25
HETATM   25  C2  UNL     1      97.443  26.767  16.735  1.00  0.00     0.004 C
HETATM   26  C1  UNL     1      98.632  27.214  16.420  1.00  0.00     0.024 C
HETATM   27  C3  UNL     1      96.955  26.903  18.120  1.00  0.00     0.054 C
ENDBRANCH  23  25
ENDBRANCH  22  23
ENDBRANCH   1  22
BRANCH  14  28
HETATM   28  O8  UNL     1      96.131  23.916  13.080  1.00  0.00    -0.390 OA
ATOM     29  H8  UNL     1      95.201  24.037  13.234  1.00  0.00     0.210 HD
ENDBRANCH  14  28
TORSDOF 8
ENDMDL