MODEL 4
REMARK VINA RESULT: -7.031111506      2.330      3.840
REMARK  6 active torsions:
REMARK  status: ('A' for Active; 'I' for Inactive)
REMARK    1  A    between atoms: C2_2  and  O1_3
REMARK    2  A    between atoms: O1_3  and  C3_4
REMARK    3  A    between atoms: C3_4  and  C4_6
REMARK    4  A    between atoms: C9_14  and  C10_15
REMARK    5  A    between atoms: C10_15  and  O4_17
REMARK    6  A    between atoms: N2_20  and  N3_22
ROOT
HETATM    1  C4  UNL     1      96.021  27.008  13.949  1.00  0.00     0.249 C
HETATM    2  C5  UNL     1      95.017  25.939  13.499  1.00  0.00     0.064 C
HETATM    3  N1  UNL     1      95.278  28.213  14.154  1.00  0.00    -0.042 N
ATOM      4  H11 UNL     1      94.270  28.062  14.132  1.00  0.00     0.280 HD
ATOM      5  H12 UNL     1      95.339  28.852  13.361  1.00  0.00     0.280 HD
HETATM    6  C6  UNL     1      95.720  28.809  15.377  1.00  0.00     0.138 C
HETATM    7  C7  UNL     1      96.438  30.104  15.055  1.00  0.00     0.047 C
HETATM    8  C8  UNL     1      94.498  29.168  16.191  1.00  0.00     0.047 C
HETATM    9  C9  UNL     1      96.577  27.829  16.097  1.00  0.00     0.171 C
HETATM   10  C12 UNL     1      96.565  26.614  15.274  1.00  0.00     0.065 C
HETATM   11  N2  UNL     1      96.948  25.431  15.623  1.00  0.00    -0.305 N
ATOM     12  H2  UNL     1      96.877  24.682  14.934  1.00  0.00     0.186 HD
ENDROOT
BRANCH   1  13
HETATM   13  C3  UNL     1      97.083  27.156  12.928  1.00  0.00     0.301 C
HETATM   14  O2  UNL     1      98.039  26.346  12.957  1.00  0.00    -0.262 OA
BRANCH  13  15
HETATM   15  O1  UNL     1      97.094  28.127  11.945  1.00  0.00    -0.320 OA
BRANCH  15  16
HETATM   16  C2  UNL     1      96.028  28.223  10.995  1.00  0.00     0.174 C
HETATM   17  C1  UNL     1      96.014  26.988  10.148  1.00  0.00     0.034 C
ENDBRANCH  15  16
ENDBRANCH  13  15
ENDBRANCH   1  13
BRANCH   9  18
HETATM   18  C10 UNL     1      97.964  28.315  16.342  1.00  0.00     0.270 C
HETATM   19  O3  UNL     1      98.211  29.300  17.092  1.00  0.00    -0.264 OA
BRANCH  18  20
HETATM   20  O4  UNL     1      99.040  27.693  15.749  1.00  0.00    -0.326 OA
HETATM   21  C11 UNL     1     100.362  28.162  15.847  1.00  0.00     0.213 C
ENDBRANCH  18  20
ENDBRANCH   9  18
BRANCH  11  22
HETATM   22  N3  UNL     1      97.447  25.118  16.867  1.00  0.00    -0.309 N
HETATM   23  C13 UNL     1      96.800  24.371  17.696  1.00  0.00     0.008 C
HETATM   24  C14 UNL     1      95.489  23.844  17.285  1.00  0.00     0.084 C
HETATM   25  C20 UNL     1      97.390  24.067  19.030  1.00  0.00     0.094 C
HETATM   26  C15 UNL     1      94.579  23.562  18.443  1.00  0.00     0.279 C
HETATM   27  N4  UNL     1      95.284  23.114  19.608  1.00  0.00     0.093 N
HETATM   28  C16 UNL     1      95.859  21.823  19.319  1.00  0.00     0.310 C
HETATM   29  C17 UNL     1      96.280  24.066  20.046  1.00  0.00     0.157 C
HETATM   30  C18 UNL     1      96.798  23.676  21.415  1.00  0.00     0.049 C
HETATM   31  C19 UNL     1      95.696  25.446  20.106  1.00  0.00     0.049 C
ATOM     32  H3  UNL     1      98.356  25.489  17.142  1.00  0.00     0.186 HD
ENDBRANCH  11  22
TORSDOF 6
ENDMDL