MODEL 1
REMARK VINA RESULT: -7.359618159      0.000      0.000
REMARK  6 active torsions:
REMARK  status: ('A' for Active; 'I' for Inactive)
REMARK    1  A    between atoms: C2_2  and  C3_3
REMARK    2  A    between atoms: C3_3  and  C4_4
REMARK    3  A    between atoms: C4_4  and  C5_5
REMARK    4  A    between atoms: C5_5  and  N1_6
REMARK    5  A    between atoms: C10_11  and  C11_12
REMARK    6  A    between atoms: C12_15  and  C13_16
ROOT
HETATM    1  N1  UNL     1      24.747 -12.854   6.706  1.00  0.00     0.101 N
HETATM    2  C6  UNL     1      24.231 -11.537   6.966  1.00  0.00     0.273 C
HETATM    3  C7  UNL     1      22.877 -11.606   7.642  1.00  0.00     0.030 C
HETATM    4  C8  UNL     1      23.156 -12.212   9.022  1.00  0.00     0.004 C
HETATM    5  C9  UNL     1      23.622 -13.596   8.782  1.00  0.00     0.045 C
HETATM    6  C10 UNL     1      24.756 -13.734   7.817  1.00  0.00     0.299 C
ENDROOT
BRANCH   6   7
HETATM    7  C11 UNL     1      24.776 -15.168   7.399  1.00  0.00     0.182 A
HETATM    8  N2  UNL     1      24.232 -16.234   8.019  1.00  0.00    -0.325 N
HETATM    9  C12 UNL     1      24.476 -17.365   7.308  1.00  0.00     0.107 A
ATOM     10  H2  UNL     1      23.712 -16.198   8.896  1.00  0.00     0.169 HD
HETATM   11  N3  UNL     1      25.183 -16.937   6.247  1.00  0.00    -0.247 N
HETATM   12  O1  UNL     1      25.354 -15.641   6.309  1.00  0.00    -0.221 OA
ATOM     13  H3  UNL     1      25.535 -17.537   5.500  1.00  0.00     0.196 HD
BRANCH   9  14
HETATM   14  C13 UNL     1      24.048 -18.762   7.636  1.00  0.00     0.047 C
HETATM   15  C14 UNL     1      23.093 -18.834   8.776  1.00  0.00     0.017 C
HETATM   16  C15 UNL     1      23.525 -19.398   6.364  1.00  0.00     0.017 C
ENDBRANCH   9  14
ENDBRANCH   6   7
BRANCH   1  17
HETATM   17  C5  UNL     1      26.067 -12.769   6.157  1.00  0.00     0.273 C
BRANCH  17  18
HETATM   18  C4  UNL     1      26.759 -11.465   6.435  1.00  0.00     0.030 C
BRANCH  18  19
HETATM   19  C3  UNL     1      27.948 -11.639   7.354  1.00  0.00     0.001 C
BRANCH  19  20
HETATM   20  C2  UNL     1      27.567 -11.622   8.818  1.00  0.00    -0.005 C
HETATM   21  C1  UNL     1      28.014 -12.914   9.468  1.00  0.00     0.005 C
ENDBRANCH  19  20
ENDBRANCH  18  19
ENDBRANCH  17  18
ENDBRANCH   1  17
TORSDOF 6
ENDMDL