MODEL 5
REMARK VINA RESULT: -6.933742663      1.338      2.300
REMARK  6 active torsions:
REMARK  status: ('A' for Active; 'I' for Inactive)
REMARK    1  A    between atoms: C2_2  and  C3_3
REMARK    2  A    between atoms: C3_3  and  N1_4
REMARK    3  A    between atoms: N1_4  and  C4_5
REMARK    4  A    between atoms: N1_4  and  C8_14
REMARK    5  A    between atoms: C4_5  and  C5_6
REMARK    6  A    between atoms: C8_14  and  C9_15
ROOT
HETATM    1  N1  UNL     1      26.633 -10.836   7.215  1.00  0.00    -0.384 N
ENDROOT
BRANCH   1   2
HETATM    2  C3  UNL     1      25.980 -10.282   8.337  1.00  0.00     0.122 C
BRANCH   2   3
HETATM    3  C2  UNL     1      24.584  -9.743   8.067  1.00  0.00     0.015 C
HETATM    4  C1  UNL     1      23.539 -10.784   8.442  1.00  0.00     0.006 C
ENDBRANCH   2   3
ENDBRANCH   1   2
BRANCH   1   5
HETATM    5  C4  UNL     1      26.266 -10.283   5.952  1.00  0.00     0.181 C
BRANCH   5   6
HETATM    6  C5  UNL     1      27.252  -9.282   5.390  1.00  0.00     0.058 A
HETATM    7  N2  UNL     1      28.466  -9.561   5.051  1.00  0.00    -0.296 N
HETATM    8  N3  UNL     1      29.246  -8.658   4.547  1.00  0.00    -0.269 N
ATOM      9  H2  UNL     1      28.817 -10.509   5.182  1.00  0.00     0.187 HD
HETATM   10  S1  UNL     1      28.277  -7.284   4.514  1.00  0.00    -0.002 SA
ATOM     11  H3  UNL     1      30.215  -8.756   4.244  1.00  0.00     0.195 HD
HETATM   12  C6  UNL     1      26.863  -7.957   5.172  1.00  0.00     0.022 A
HETATM   13  C7  UNL     1      25.509  -7.363   5.472  1.00  0.00     0.060 C
ENDBRANCH   5   6
ENDBRANCH   1   5
BRANCH   1  14
HETATM   14  C8  UNL     1      26.937 -12.211   7.190  1.00  0.00     0.088 C
BRANCH  14  15
HETATM   15  C9  UNL     1      25.929 -13.268   7.261  1.00  0.00    -0.065 C
HETATM   16  C10 UNL     1      25.785 -13.957   8.608  1.00  0.00     0.035 C
HETATM   17  C11 UNL     1      24.295 -14.292   8.794  1.00  0.00     0.004 C
HETATM   18  C12 UNL     1      23.803 -14.840   7.488  1.00  0.00     0.001 C
HETATM   19  C13 UNL     1      24.932 -15.427   6.676  1.00  0.00     0.004 C
HETATM   20  C14 UNL     1      25.794 -14.267   6.187  1.00  0.00     0.035 C
ENDBRANCH  14  15
ENDBRANCH   1  14
TORSDOF 6
ENDMDL