MODEL 1
REMARK VINA RESULT: -8.104016742      0.000      0.000
REMARK  6 active torsions:
REMARK  status: ('A' for Active; 'I' for Inactive)
REMARK    1  A    between atoms: C2_2  and  C3_3
REMARK    2  A    between atoms: C3_3  and  C4_5
REMARK    3  A    between atoms: N1_7  and  C6_8
REMARK    4  A    between atoms: C6_8  and  C7_9
REMARK    5  A    between atoms: C12_14  and  C13_15
REMARK    6  A    between atoms: C13_15  and  C14_16
ROOT
HETATM    1  C4  UNL     1      26.878  -9.462   5.951  1.00  0.00     0.112 A
HETATM    2  C5  UNL     1      26.296 -10.467   6.677  1.00  0.00     0.146 A
HETATM    3  N1  UNL     1      27.227 -11.414   6.910  1.00  0.00    -0.286 N
HETATM    4  N2  UNL     1      28.320 -10.966   6.331  1.00  0.00    -0.240 N
ATOM      5  H2  UNL     1      29.205 -11.471   6.337  1.00  0.00     0.208 HD
HETATM    6  N3  UNL     1      28.160  -9.816   5.752  1.00  0.00    -0.281 N
ATOM      7  H3  UNL     1      28.868  -9.284   5.246  1.00  0.00     0.188 HD
ENDROOT
BRANCH   3   8
HETATM    8  C6  UNL     1      26.944 -12.597   7.643  1.00  0.00     0.154 C
BRANCH   8   9
HETATM    9  C7  UNL     1      25.656 -13.280   7.327  1.00  0.00     0.010 C
HETATM   10  C8  UNL     1      25.810 -14.292   6.199  1.00  0.00     0.007 C
HETATM   11  C9  UNL     1      24.462 -14.920   5.916  1.00  0.00     0.000 C
HETATM   12  C10 UNL     1      24.066 -15.672   7.150  1.00  0.00     0.000 C
HETATM   13  C11 UNL     1      24.993 -15.413   8.296  1.00  0.00     0.005 C
HETATM   14  C12 UNL     1      25.123 -13.895   8.564  1.00  0.00    -0.009 C
BRANCH  14  15
HETATM   15  C13 UNL     1      23.860 -13.489   9.160  1.00  0.00     0.009 C
BRANCH  15  16
HETATM   16  C14 UNL     1      23.029 -12.394   8.697  1.00  0.00    -0.022 C
HETATM   17  C15 UNL     1      22.372 -11.572   9.770  1.00  0.00     0.009 C
HETATM   18  C16 UNL     1      21.988 -12.741   7.658  1.00  0.00     0.009 C
ENDBRANCH  15  16
ENDBRANCH  14  15
ENDBRANCH   8   9
ENDBRANCH   3   8
BRANCH   1  19
HETATM   19  C3  UNL     1      26.286  -8.224   5.455  1.00  0.00     0.178 C
HETATM   20  O1  UNL     1      25.037  -8.128   5.452  1.00  0.00    -0.291 OA
BRANCH  19  21
HETATM   21  C2  UNL     1      27.108  -7.100   4.966  1.00  0.00     0.081 C
HETATM   22  C1  UNL     1      27.363  -7.159   3.493  1.00  0.00     0.013 C
ENDBRANCH  19  21
ENDBRANCH   1  19
TORSDOF 6
ENDMDL