MODEL 4
REMARK VINA RESULT: -7.554792950      2.546      3.616
REMARK  5 active torsions:
REMARK  status: ('A' for Active; 'I' for Inactive)
REMARK    1  A    between atoms: C2_2  and  C3_3
REMARK    2  A    between atoms: C3_3  and  C4_4
REMARK    3  A    between atoms: C4_4  and  C5_5
REMARK    4  A    between atoms: C7_7  and  C8_8
REMARK    5  A    between atoms: C14_15  and  N2_16
ROOT
HETATM    1  C8  UNL     1      25.419 -12.878   6.755  1.00  0.00     0.068 C
HETATM    2  C9  UNL     1      26.402 -13.293   7.821  1.00  0.00     0.045 C
HETATM    3  C10 UNL     1      26.090 -11.887   5.838  1.00  0.00     0.043 C
HETATM    4  C11 UNL     1      26.775 -10.821   6.664  1.00  0.00     0.004 C
HETATM    5  C12 UNL     1      27.199  -9.729   5.699  1.00  0.00     0.011 C
HETATM    6  C13 UNL     1      25.912 -10.216   7.713  1.00  0.00     0.155 C
HETATM    7  N1  UNL     1      24.625 -10.887   7.863  1.00  0.00    -0.267 N
HETATM    8  C14 UNL     1      23.404 -10.717   8.348  1.00  0.00     0.207 A
HETATM    9  C15 UNL     1      23.115 -11.980   7.911  1.00  0.00     0.168 A
HETATM   10  N3  UNL     1      24.370 -12.088   7.441  1.00  0.00    -0.282 N
ENDROOT
BRANCH   1  11
HETATM   11  C7  UNL     1      24.764 -14.004   6.120  1.00  0.00     0.012 C
HETATM   12  C5  UNL     1      24.823 -15.357   6.593  1.00  0.00    -0.069 C
HETATM   13  C6  UNL     1      25.329 -16.329   5.843  1.00  0.00     0.018 C
BRANCH  12  14
HETATM   14  C4  UNL     1      24.292 -15.732   7.917  1.00  0.00     0.041 C
BRANCH  14  15
HETATM   15  C3  UNL     1      24.354 -17.228   8.162  1.00  0.00     0.031 C
BRANCH  15  16
HETATM   16  C2  UNL     1      23.016 -17.803   7.975  1.00  0.00    -0.037 C
HETATM   17  C1  UNL     1      22.735 -18.690   7.043  1.00  0.00     0.007 C
ENDBRANCH  15  16
ENDBRANCH  14  15
ENDBRANCH  12  14
ENDBRANCH   1  11
BRANCH   8  18
HETATM   18  N2  UNL     1      22.629  -9.722   9.030  1.00  0.00    -0.095 N
HETATM   19  O1  UNL     1      22.232  -9.886  10.197  1.00  0.00    -0.530 OA
HETATM   20  O2  UNL     1      22.295  -8.542   8.413  1.00  0.00    -0.530 OA
ENDBRANCH   8  18
TORSDOF 5
ENDMDL