MODEL 2
REMARK VINA RESULT: -7.006138089      0.619      1.138
REMARK  6 active torsions:
REMARK  status: ('A' for Active; 'I' for Inactive)
REMARK    1  A    between atoms: C2_2  and  C3_3
REMARK    2  A    between atoms: C3_3  and  C4_4
REMARK    3  A    between atoms: C4_4  and  C5_5
REMARK    4  A    between atoms: C5_5  and  C6_6
REMARK    5  A    between atoms: C7_7  and  S1_8
REMARK    6  A    between atoms: S1_8  and  C8_9
ROOT
HETATM    1  C6  UNL     1      25.201 -14.305   6.594  1.00  0.00     0.059 C
HETATM    2  C7  UNL     1      24.777 -15.720   6.427  1.00  0.00     0.194 C
HETATM    3  O3  UNL     1      23.544 -15.228   5.932  1.00  0.00    -0.364 OA
HETATM    4  C12 UNL     1      23.746 -13.999   6.561  1.00  0.00     0.062 C
HETATM    5  C13 UNL     1      23.023 -13.769   7.838  1.00  0.00     0.046 C
HETATM    6  C14 UNL     1      23.478 -12.840   5.599  1.00  0.00     0.046 C
ENDROOT
BRANCH   2   7
HETATM    7  S1  UNL     1      24.465 -16.668   7.914  1.00  0.00    -0.096 SA
BRANCH   7   8
HETATM    8  C8  UNL     1      23.510 -18.143   7.590  1.00  0.00     0.144 C
HETATM    9  C9  UNL     1      22.154 -18.154   8.235  1.00  0.00     0.062 C
HETATM   10  C10 UNL     1      24.223 -19.412   8.008  1.00  0.00     0.081 C
HETATM   11  C11 UNL     1      23.635 -20.380   6.972  1.00  0.00     0.214 C
HETATM   12  O1  UNL     1      23.056 -19.577   6.017  1.00  0.00    -0.239 OA
HETATM   13  O2  UNL     1      23.423 -18.351   6.199  1.00  0.00    -0.219 OA
ENDBRANCH   7   8
ENDBRANCH   2   7
BRANCH   1  14
HETATM   14  C5  UNL     1      25.962 -13.924   7.824  1.00  0.00     0.011 C
BRANCH  14  15
HETATM   15  C4  UNL     1      26.817 -12.719   7.593  1.00  0.00     0.001 C
BRANCH  15  16
HETATM   16  C3  UNL     1      26.512 -11.649   8.614  1.00  0.00    -0.000 C
BRANCH  16  17
HETATM   17  C2  UNL     1      25.343 -10.780   8.187  1.00  0.00    -0.005 C
HETATM   18  C1  UNL     1      25.652 -10.085   6.868  1.00  0.00     0.005 C
ENDBRANCH  16  17
ENDBRANCH  15  16
ENDBRANCH  14  15
ENDBRANCH   1  14
TORSDOF 6
ENDMDL