MODEL 2
REMARK VINA RESULT: -6.552175939      2.454      4.046
REMARK  7 active torsions:
REMARK  status: ('A' for Active; 'I' for Inactive)
REMARK    1  A    between atoms: C2_2  and  C3_3
REMARK    2  A    between atoms: C3_3  and  C4_4
REMARK    3  A    between atoms: C4_4  and  C5_5
REMARK    4  A    between atoms: C5_5  and  C6_6
REMARK    5  A    between atoms: C6_6  and  C7_7
REMARK    6  A    between atoms: C7_7  and  N1_9
REMARK    7  A    between atoms: C7_7  and  C11_16
ROOT
HETATM    1  C7  UNL     1      25.971 -11.313   6.826  1.00  0.00     0.060 C
HETATM    2  C8  UNL     1      26.153 -12.309   5.690  1.00  0.00     0.041 C
ENDROOT
BRANCH   1   3
HETATM    3  C6  UNL     1      24.534 -11.280   7.096  1.00  0.00     0.033 C
BRANCH   3   4
HETATM    4  C5  UNL     1      23.666 -12.195   6.249  1.00  0.00     0.002 C
BRANCH   4   5
HETATM    5  C4  UNL     1      22.769 -12.899   7.304  1.00  0.00     0.000 C
BRANCH   5   6
HETATM    6  C3  UNL     1      23.352 -14.266   7.620  1.00  0.00    -0.000 C
BRANCH   6   7
HETATM    7  C2  UNL     1      23.736 -14.902   6.306  1.00  0.00    -0.005 C
HETATM    8  C1  UNL     1      24.980 -15.756   6.439  1.00  0.00     0.005 C
ENDBRANCH   6   7
ENDBRANCH   5   6
ENDBRANCH   4   5
ENDBRANCH   3   4
ENDBRANCH   1   3
BRANCH   1   9
HETATM    9  N1  UNL     1      26.345 -10.014   6.166  1.00  0.00    -0.241 N
HETATM   10  N2  UNL     1      27.327  -9.985   5.327  1.00  0.00    -0.299 N
HETATM   11  C9  UNL     1      27.692  -8.894   4.729  1.00  0.00     0.162 A
ATOM     12  H2  UNL     1      27.832 -10.850   5.127  1.00  0.00     0.187 HD
HETATM   13  S1  UNL     1      26.577  -7.769   5.375  1.00  0.00    -0.021 SA
HETATM   14  C10 UNL     1      25.720  -8.858   6.389  1.00  0.00     0.306 A
HETATM   15  O1  UNL     1      24.755  -8.526   7.117  1.00  0.00    -0.258 OA
ENDBRANCH   1   9
BRANCH   1  16
HETATM   16  C11 UNL     1      26.921 -11.646   7.904  1.00  0.00    -0.024 C
HETATM   17  C12 UNL     1      28.377 -11.669   7.527  1.00  0.00     0.017 C
HETATM   18  C13 UNL     1      26.660 -13.009   8.548  1.00  0.00     0.017 C
HETATM   19  C14 UNL     1      26.839 -10.684   9.084  1.00  0.00     0.017 C
ENDBRANCH   1  16
TORSDOF 7
ENDMDL