MODEL 4
REMARK VINA RESULT: -6.533794483      1.382      1.490
REMARK  6 active torsions:
REMARK  status: ('A' for Active; 'I' for Inactive)
REMARK    1  A    between atoms: C2_2  and  C3_4
REMARK    2  A    between atoms: C3_4  and  C4_5
REMARK    3  A    between atoms: C4_5  and  C5_6
REMARK    4  A    between atoms: C5_6  and  C6_7
REMARK    5  A    between atoms: C6_7  and  C7_8
REMARK    6  A    between atoms: C7_8  and  C8_9
ROOT
HETATM    1  C8  UNL     1      24.478 -13.292   6.319  1.00  0.00     0.075 C
HETATM    2  C9  UNL     1      23.216 -12.777   5.644  1.00  0.00     0.051 C
HETATM    3  N1  UNL     1      25.517 -12.436   5.942  1.00  0.00    -0.377 N
ATOM      4  H1  UNL     1      25.719 -12.322   4.949  1.00  0.00     0.160 HD
HETATM    5  C10 UNL     1      26.195 -11.815   6.753  1.00  0.00     0.007 C
HETATM    6  C11 UNL     1      27.358 -10.833   6.752  1.00  0.00     0.127 C
HETATM    7  S1  UNL     1      28.406 -11.634   8.031  1.00  0.00    -0.162 SA
HETATM    8  C12 UNL     1      27.091 -12.691   8.780  1.00  0.00     0.095 C
HETATM    9  C13 UNL     1      25.894 -11.975   8.191  1.00  0.00     0.105 C
HETATM   10  S2  UNL     1      24.414 -13.012   8.108  1.00  0.00    -0.127 SA
ENDROOT
BRANCH   1  11
HETATM   11  C7  UNL     1      24.744 -14.730   5.978  1.00  0.00     0.042 C
BRANCH  11  12
HETATM   12  C6  UNL     1      24.889 -15.495   7.291  1.00  0.00     0.003 C
BRANCH  12  13
HETATM   13  C5  UNL     1      24.706 -16.982   7.032  1.00  0.00     0.001 C
BRANCH  13  14
HETATM   14  C4  UNL     1      23.411 -17.462   7.599  1.00  0.00     0.007 C
BRANCH  14  15
HETATM   15  C3  UNL     1      22.829 -18.614   6.776  1.00  0.00     0.077 C
BRANCH  15  16
HETATM   16  C2  UNL     1      23.178 -19.925   7.391  1.00  0.00     0.123 C
HETATM   17  C1  UNL     1      23.038 -20.138   8.859  1.00  0.00     0.091 C
HETATM   18  O1  UNL     1      23.592 -20.873   6.706  1.00  0.00    -0.298 OA
ENDBRANCH  15  16
ENDBRANCH  14  15
ENDBRANCH  13  14
ENDBRANCH  12  13
ENDBRANCH  11  12
ENDBRANCH   1  11
TORSDOF 6
ENDMDL