MODEL 1
REMARK VINA RESULT: -7.783402965      0.000      0.000
REMARK  6 active torsions:
REMARK  status: ('A' for Active; 'I' for Inactive)
REMARK    1  A    between atoms: C4_4  and  C5_5
REMARK    2  A    between atoms: C5_5  and  C6_6
REMARK    3  A    between atoms: C6_6  and  C7_7
REMARK    4  A    between atoms: C6_6  and  C13_14
REMARK    5  A    between atoms: C7_7  and  C8_9
REMARK    6  A    between atoms: C9_10  and  C10_11
ROOT
HETATM    1  C6  UNL     1      26.049 -11.221   6.746  1.00  0.00     0.139 C
ENDROOT
BRANCH   1   2
HETATM    2  C5  UNL     1      26.720 -12.532   7.079  1.00  0.00     0.048 C
BRANCH   2   3
HETATM    3  C4  UNL     1      26.038 -13.695   6.478  1.00  0.00    -0.024 C
HETATM    4  C2  UNL     1      25.388 -14.584   7.199  1.00  0.00    -0.091 C
HETATM    5  C1  UNL     1      24.705 -15.752   6.580  1.00  0.00     0.042 C
HETATM    6  C3  UNL     1      25.323 -14.438   8.700  1.00  0.00     0.042 C
ENDBRANCH   2   3
ENDBRANCH   1   2
BRANCH   1   7
HETATM    7  C7  UNL     1      25.650 -10.494   8.008  1.00  0.00     0.161 C
HETATM    8  O1  UNL     1      26.591  -9.932   8.584  1.00  0.00    -0.292 OA
BRANCH   7   9
HETATM    9  C8  UNL     1      24.314 -10.467   8.473  1.00  0.00     0.047 C
HETATM   10  C9  UNL     1      23.294 -11.176   8.228  1.00  0.00    -0.019 C
BRANCH  10  11
HETATM   11  C10 UNL     1      22.857 -12.302   7.449  1.00  0.00    -0.000 C
HETATM   12  C11 UNL     1      21.729 -13.083   8.179  1.00  0.00     0.013 C
HETATM   13  C12 UNL     1      22.444 -12.204   6.044  1.00  0.00     0.013 C
ENDBRANCH  10  11
ENDBRANCH   7   9
ENDBRANCH   1   7
BRANCH   1  14
HETATM   14  C13 UNL     1      26.912 -10.331   5.953  1.00  0.00     0.152 A
HETATM   15  N1  UNL     1      28.253 -10.383   5.847  1.00  0.00    -0.281 N
HETATM   16  N2  UNL     1      28.656  -9.417   5.045  1.00  0.00    -0.282 N
ATOM     17  H1  UNL     1      28.858 -11.061   6.311  1.00  0.00     0.189 HD
HETATM   18  C14 UNL     1      27.574  -8.744   4.635  1.00  0.00     0.136 A
ATOM     19  H2  UNL     1      29.622  -9.219   4.783  1.00  0.00     0.189 HD
HETATM   20  C15 UNL     1      27.545  -7.553   3.705  1.00  0.00     0.099 C
HETATM   21  O2  UNL     1      26.543  -9.321   5.202  1.00  0.00    -0.282 OA
ENDBRANCH   1  14
TORSDOF 6
ENDMDL