MODEL 1
REMARK VINA RESULT: -7.780209411      0.000      0.000
REMARK  7 active torsions:
REMARK  status: ('A' for Active; 'I' for Inactive)
REMARK    1  A    between atoms: C1_2  and  C2_3
REMARK    2  A    between atoms: C1_2  and  O2_9
REMARK    3  A    between atoms: C2_3  and  C3_4
REMARK    4  A    between atoms: O2_9  and  C7_10
REMARK    5  A    between atoms: C7_10  and  C8_11
REMARK    6  A    between atoms: C8_11  and  C9_12
REMARK    7  A    between atoms: C9_12  and  C10_13
ROOT
HETATM    1  O2  UNL     1      24.990 -16.421   6.711  1.00  0.00    -0.321 OA
ENDROOT
BRANCH   1   2
HETATM    2  C1  UNL     1      24.686 -15.131   6.350  1.00  0.00     0.259 C
HETATM    3  O1  UNL     1      23.583 -14.887   5.803  1.00  0.00    -0.265 OA
BRANCH   2   4
HETATM    4  C2  UNL     1      25.671 -14.013   6.608  1.00  0.00     0.116 C
BRANCH   4   5
HETATM    5  C3  UNL     1      25.749 -13.780   8.072  1.00  0.00     0.005 C
HETATM    6  C4  UNL     1      24.447 -13.257   8.647  1.00  0.00     0.016 C
HETATM    7  C5  UNL     1      24.210 -11.890   8.068  1.00  0.00     0.074 C
HETATM    8  S1  UNL     1      25.895 -11.189   8.293  1.00  0.00    -0.169 SA
HETATM    9  C6  UNL     1      26.808 -12.780   8.464  1.00  0.00     0.079 C
ENDBRANCH   4   5
ENDBRANCH   2   4
ENDBRANCH   1   2
BRANCH   1  10
HETATM   10  C7  UNL     1      24.433 -17.052   7.874  1.00  0.00     0.178 C
BRANCH  10  11
HETATM   11  C8  UNL     1      23.323 -17.980   7.559  1.00  0.00     0.027 C
BRANCH  11  12
HETATM   12  C9  UNL     1      22.853 -18.830   8.671  1.00  0.00     0.007 C
BRANCH  12  13
HETATM   13  C10 UNL     1      23.154 -20.262   8.749  1.00  0.00    -0.014 C
HETATM   14  C11 UNL     1      21.963 -21.140   8.860  1.00  0.00     0.004 C
HETATM   15  C12 UNL     1      22.121 -22.378   7.968  1.00  0.00     0.000 C
HETATM   16  C13 UNL     1      23.455 -23.003   8.223  1.00  0.00     0.000 C
HETATM   17  C14 UNL     1      24.557 -22.052   7.786  1.00  0.00     0.000 C
HETATM   18  C15 UNL     1      24.025 -20.675   7.543  1.00  0.00     0.004 C
ENDBRANCH  12  13
ENDBRANCH  11  12
ENDBRANCH  10  11
ENDBRANCH   1  10
TORSDOF 7
ENDMDL