MODEL 2
REMARK VINA RESULT: -7.733733547      1.289      1.953
REMARK  10 active torsions:
REMARK  status: ('A' for Active; 'I' for Inactive)
REMARK    1  A    between atoms: C1_1  and  C18_21
REMARK    2  A    between atoms: C2_2  and  C3_3
REMARK    3  A    between atoms: C6_6  and  C7_7
REMARK    4  A    between atoms: C7_7  and  C8_8
REMARK    5  A    between atoms: C8_8  and  C9_9
REMARK    6  A    between atoms: C9_9  and  C10_10
REMARK    7  A    between atoms: C10_10  and  C11_11
REMARK    8  A    between atoms: C11_11  and  C12_12
REMARK    9  A    between atoms: C12_12  and  N1_13
REMARK   10  A    between atoms: C18_21  and  N3_22
ROOT
HETATM    1  C3  UNL     1     -24.386 -13.649  -6.920  1.00  0.00     0.017 A
HETATM    2  C4  UNL     1     -23.609 -13.511  -8.051  1.00  0.00     0.021 A
HETATM    3  C5  UNL     1     -22.706 -14.481  -8.398  1.00  0.00     0.008 A
HETATM    4  C6  UNL     1     -22.531 -15.641  -7.633  1.00  0.00    -0.058 A
HETATM    5  C16 UNL     1     -23.303 -15.758  -6.528  1.00  0.00     0.008 A
HETATM    6  C17 UNL     1     -24.228 -14.768  -6.169  1.00  0.00     0.021 A
ENDROOT
BRANCH   4   7
HETATM    7  C7  UNL     1     -21.526 -16.613  -8.128  1.00  0.00     0.038 C
BRANCH   7   8
HETATM    8  C8  UNL     1     -22.204 -17.679  -8.930  1.00  0.00     0.005 C
BRANCH   8   9
HETATM    9  C9  UNL     1     -21.322 -18.706  -9.536  1.00  0.00     0.000 C
BRANCH   9  10
HETATM   10  C10 UNL     1     -21.909 -20.101  -9.577  1.00  0.00     0.002 C
BRANCH  10  11
HETATM   11  C11 UNL     1     -23.342 -20.134  -9.171  1.00  0.00     0.022 C
BRANCH  11  12
HETATM   12  C12 UNL     1     -23.509 -21.023  -7.970  1.00  0.00     0.148 C
BRANCH  12  13
HETATM   13  N1  UNL     1     -23.121 -20.324  -6.774  1.00  0.00    -0.304 N
HETATM   14  C13 UNL     1     -23.911 -19.482  -6.083  1.00  0.00     0.111 A
HETATM   15  C14 UNL     1     -23.230 -18.982  -5.006  1.00  0.00     0.037 A
HETATM   16  C15 UNL     1     -21.980 -19.549  -5.054  1.00  0.00     0.108 A
HETATM   17  N2  UNL     1     -21.974 -20.337  -6.126  1.00  0.00    -0.310 N
ATOM     18  H2  UNL     1     -21.168 -20.891  -6.416  1.00  0.00     0.186 HD
ENDBRANCH  12  13
ENDBRANCH  11  12
ENDBRANCH  10  11
ENDBRANCH   9  10
ENDBRANCH   8   9
ENDBRANCH   7   8
ENDBRANCH   4   7
BRANCH   1  19
HETATM   19  C2  UNL     1     -25.342 -12.637  -6.539  1.00  0.00    -0.065 C
HETATM   20  C1  UNL     1     -26.125 -11.777  -6.218  1.00  0.00    -0.081 C
BRANCH  20  21
HETATM   21  C18 UNL     1     -27.069 -10.704  -5.823  1.00  0.00     0.223 C
BRANCH  21  22
HETATM   22  N3  UNL     1     -28.034 -10.496  -6.876  1.00  0.00    -0.341 N
HETATM   23  C19 UNL     1     -29.269 -10.024  -6.691  1.00  0.00     0.110 A
HETATM   24  C20 UNL     1     -29.877  -9.969  -7.915  1.00  0.00     0.106 A
HETATM   25  N4  UNL     1     -28.998 -10.406  -8.803  1.00  0.00    -0.361 N
HETATM   26  C21 UNL     1     -27.859 -10.733  -8.176  1.00  0.00     0.183 A
ATOM     27  H4  UNL     1     -29.162 -10.482  -9.807  1.00  0.00     0.166 HD
ENDBRANCH  21  22
ENDBRANCH  20  21
ENDBRANCH   1  19
TORSDOF 10
ENDMDL