MODEL 4
REMARK VINA RESULT: -7.634625578      1.603      2.145
REMARK  10 active torsions:
REMARK  status: ('A' for Active; 'I' for Inactive)
REMARK    1  A    between atoms: N1_1  and  C1_5
REMARK    2  A    between atoms: C1_5  and  C2_6
REMARK    3  A    between atoms: C2_6  and  C3_7
REMARK    4  A    between atoms: C3_7  and  C4_8
REMARK    5  A    between atoms: C4_8  and  C5_9
REMARK    6  A    between atoms: C5_9  and  C6_10
REMARK    7  A    between atoms: C6_10  and  N2_11
REMARK    8  A    between atoms: C8_13  and  C9_14
REMARK    9  A    between atoms: C9_14  and  N3_15
REMARK   10  A    between atoms: C15_23  and  C16_24
ROOT
HETATM    1  N2  UNL     1     -24.012 -14.677  -8.332  1.00  0.00    -0.340 N
HETATM    2  C7  UNL     1     -23.858 -16.014  -8.693  1.00  0.00     0.119 A
HETATM    3  C8  UNL     1     -24.448 -16.791  -7.736  1.00  0.00     0.044 A
HETATM    4  N4  UNL     1     -24.927 -15.932  -6.844  1.00  0.00    -0.341 N
ATOM      5  H4  UNL     1     -25.429 -16.205  -6.000  1.00  0.00     0.167 HD
HETATM    6  C15 UNL     1     -24.665 -14.629  -7.199  1.00  0.00     0.135 A
ENDROOT
BRANCH   1   7
HETATM    7  C6  UNL     1     -23.554 -13.599  -9.161  1.00  0.00     0.130 C
BRANCH   7   8
HETATM    8  C5  UNL     1     -22.143 -13.133  -8.863  1.00  0.00     0.020 C
BRANCH   8   9
HETATM    9  C4  UNL     1     -21.051 -13.859  -9.516  1.00  0.00     0.002 C
BRANCH   9  10
HETATM   10  C3  UNL     1     -19.914 -14.371  -8.726  1.00  0.00     0.002 C
BRANCH  10  11
HETATM   11  C2  UNL     1     -20.045 -14.824  -7.344  1.00  0.00     0.027 C
BRANCH  11  12
HETATM   12  C1  UNL     1     -20.672 -16.145  -7.047  1.00  0.00     0.229 C
BRANCH  12  13
HETATM   13  N1  UNL     1     -21.545 -16.016  -5.842  1.00  0.00    -0.079 N
ATOM     14  H13 UNL     1     -21.788 -15.045  -5.642  1.00  0.00     0.274 HD
ATOM     15  H12 UNL     1     -22.487 -16.370  -6.007  1.00  0.00     0.274 HD
ATOM     16  H11 UNL     1     -21.094 -16.472  -5.049  1.00  0.00     0.274 HD
ENDBRANCH  12  13
ENDBRANCH  11  12
ENDBRANCH  10  11
ENDBRANCH   9  10
ENDBRANCH   8   9
ENDBRANCH   7   8
ENDBRANCH   1   7
BRANCH   6  17
HETATM   17  C16 UNL     1     -25.084 -13.509  -6.312  1.00  0.00     0.076 A
HETATM   18  C17 UNL     1     -25.341 -13.475  -4.984  1.00  0.00     0.035 A
HETATM   19  C18 UNL     1     -25.732 -12.182  -4.622  1.00  0.00     0.019 A
HETATM   20  C19 UNL     1     -25.705 -11.430  -5.769  1.00  0.00     0.088 A
HETATM   21  N5  UNL     1     -25.317 -12.251  -6.741  1.00  0.00    -0.363 N
ATOM     22  H5  UNL     1     -25.207 -11.959  -7.712  1.00  0.00     0.165 HD
ENDBRANCH   6  17
BRANCH   3  23
HETATM   23  C9  UNL     1     -24.545 -18.283  -7.677  1.00  0.00     0.186 C
BRANCH  23  24
HETATM   24  N3  UNL     1     -23.470 -18.871  -6.928  1.00  0.00    -0.361 N
HETATM   25  C10 UNL     1     -23.609 -18.991  -5.604  1.00  0.00     0.090 A
HETATM   26  C11 UNL     1     -22.617 -19.543  -4.848  1.00  0.00     0.017 A
HETATM   27  C12 UNL     1     -21.467 -19.981  -5.444  1.00  0.00     0.003 A
HETATM   28  C13 UNL     1     -21.326 -19.857  -6.808  1.00  0.00     0.017 A
HETATM   29  C14 UNL     1     -22.354 -19.294  -7.525  1.00  0.00     0.090 A
ENDBRANCH  23  24
ENDBRANCH   3  23
TORSDOF 10
ENDMDL