MODEL 1
REMARK VINA RESULT: -8.256894142      0.000      0.000
REMARK  10 active torsions:
REMARK  status: ('A' for Active; 'I' for Inactive)
REMARK    1  A    between atoms: O1_1  and  C1_3
REMARK    2  A    between atoms: C1_3  and  C2_4
REMARK    3  A    between atoms: C2_4  and  C3_5
REMARK    4  A    between atoms: C8_10  and  C9_11
REMARK    5  A    between atoms: C9_11  and  C10_12
REMARK    6  A    between atoms: C10_12  and  C11_13
REMARK    7  A    between atoms: C11_13  and  C12_14
REMARK    8  A    between atoms: C12_14  and  N1_15
REMARK    9  A    between atoms: C15_18  and  C16_19
REMARK   10  A    between atoms: C16_19  and  N2_20
ROOT
HETATM    1  C12 UNL     1     -24.552 -13.951  -5.965  1.00  0.00     0.128 C
ENDROOT
BRANCH   1   2
HETATM    2  C11 UNL     1     -25.862 -13.735  -5.249  1.00  0.00     0.021 C
BRANCH   2   3
HETATM    3  C10 UNL     1     -25.771 -12.326  -4.658  1.00  0.00     0.006 C
BRANCH   3   4
HETATM    4  C9  UNL     1     -25.659 -11.271  -5.703  1.00  0.00     0.039 C
BRANCH   4   5
HETATM    5  C8  UNL     1     -26.925 -10.950  -6.405  1.00  0.00    -0.052 A
HETATM    6  C3  UNL     1     -27.205 -11.226  -7.718  1.00  0.00    -0.050 A
HETATM    7  C4  UNL     1     -28.401 -10.828  -8.329  1.00  0.00     0.007 A
HETATM    8  C5  UNL     1     -29.292 -10.143  -7.545  1.00  0.00     0.001 A
HETATM    9  C6  UNL     1     -29.022  -9.862  -6.221  1.00  0.00     0.001 A
HETATM   10  C7  UNL     1     -27.854 -10.247  -5.617  1.00  0.00     0.007 A
BRANCH   6  11
HETATM   11  C2  UNL     1     -26.294 -12.020  -8.544  1.00  0.00     0.065 C
BRANCH  11  12
HETATM   12  C1  UNL     1     -26.779 -13.425  -8.835  1.00  0.00     0.168 C
BRANCH  12  13
HETATM   13  O1  UNL     1     -25.723 -14.214  -9.282  1.00  0.00    -0.401 OA
ATOM     14  H1  UNL     1     -25.960 -15.133  -9.242  1.00  0.00     0.209 HD
ENDBRANCH  12  13
ENDBRANCH  11  12
ENDBRANCH   6  11
ENDBRANCH   4   5
ENDBRANCH   3   4
ENDBRANCH   2   3
ENDBRANCH   1   2
BRANCH   1  15
HETATM   15  N1  UNL     1     -24.124 -15.309  -6.043  1.00  0.00    -0.366 N
HETATM   16  C13 UNL     1     -24.991 -16.317  -5.856  1.00  0.00     0.091 A
HETATM   17  C14 UNL     1     -24.635 -17.653  -5.918  1.00  0.00     0.026 A
HETATM   18  C15 UNL     1     -23.326 -17.998  -6.183  1.00  0.00    -0.037 A
HETATM   19  C20 UNL     1     -22.432 -16.959  -6.377  1.00  0.00     0.026 A
HETATM   20  C21 UNL     1     -22.830 -15.645  -6.307  1.00  0.00     0.091 A
BRANCH  18  21
HETATM   21  C16 UNL     1     -22.864 -19.413  -6.262  1.00  0.00     0.167 C
BRANCH  21  22
HETATM   22  N2  UNL     1     -22.739 -19.840  -7.631  1.00  0.00    -0.347 N
HETATM   23  C17 UNL     1     -21.692 -19.777  -8.451  1.00  0.00     0.109 A
HETATM   24  C18 UNL     1     -22.044 -20.309  -9.672  1.00  0.00     0.106 A
HETATM   25  N3  UNL     1     -23.336 -20.697  -9.571  1.00  0.00    -0.361 N
HETATM   26  C19 UNL     1     -23.744 -20.408  -8.330  1.00  0.00     0.182 A
ATOM     27  H3  UNL     1     -23.896 -21.131 -10.305  1.00  0.00     0.166 HD
ENDBRANCH  21  22
ENDBRANCH  18  21
ENDBRANCH   1  15
TORSDOF 10
ENDMDL