MODEL 2
REMARK VINA RESULT: -7.614196164      0.376      1.019
REMARK  13 active torsions:
REMARK  status: ('A' for Active; 'I' for Inactive)
REMARK    1  A    between atoms: O1_1  and  C1_3
REMARK    2  A    between atoms: C1_3  and  C2_4
REMARK    3  A    between atoms: N2_8  and  C4_9
REMARK    4  A    between atoms: C4_9  and  C5_10
REMARK    5  A    between atoms: C5_10  and  C6_11
REMARK    6  A    between atoms: C6_11  and  C7_12
REMARK    7  A    between atoms: C7_12  and  C8_13
REMARK    8  A    between atoms: C9_14  and  C10_15
REMARK    9  A    between atoms: C11_16  and  C12_17
REMARK   10  A    between atoms: C12_17  and  C13_18
REMARK   11  A    between atoms: C13_18  and  C14_19
REMARK   12  A    between atoms: C14_19  and  C15_20
REMARK   13  A    between atoms: C15_20  and  N3_21
ROOT
HETATM    1  C8  UNL     1     -23.776 -18.142  -5.451  1.00  0.00    -0.092 C
HETATM    2  C9  UNL     1     -24.070 -16.993  -5.788  1.00  0.00    -0.015 C
ENDROOT
BRANCH   1   3
HETATM    3  C7  UNL     1     -23.481 -19.512  -5.074  1.00  0.00     0.095 C
BRANCH   3   4
HETATM    4  C6  UNL     1     -22.732 -20.230  -6.130  1.00  0.00     0.014 C
BRANCH   4   5
HETATM    5  C5  UNL     1     -21.589 -19.586  -6.784  1.00  0.00     0.023 C
BRANCH   5   6
HETATM    6  C4  UNL     1     -21.533 -19.508  -8.259  1.00  0.00     0.148 C
BRANCH   6   7
HETATM    7  N2  UNL     1     -21.943 -18.119  -8.607  1.00  0.00    -0.303 N
HETATM    8  N1  UNL     1     -22.994 -17.758  -9.280  1.00  0.00    -0.309 N
HETATM    9  C3  UNL     1     -23.057 -16.422  -9.410  1.00  0.00     0.118 A
ATOM     10  H1  UNL     1     -23.684 -18.406  -9.660  1.00  0.00     0.186 HD
HETATM   11  C2  UNL     1     -21.935 -15.948  -8.752  1.00  0.00    -0.001 A
HETATM   12  C21 UNL     1     -21.250 -17.020  -8.256  1.00  0.00     0.120 A
BRANCH  11  13
HETATM   13  C1  UNL     1     -21.589 -14.505  -8.639  1.00  0.00     0.205 C
BRANCH  13  14
HETATM   14  O1  UNL     1     -21.391 -13.956  -9.910  1.00  0.00    -0.396 OA
ATOM     15  H1  UNL     1     -20.527 -13.567  -9.968  1.00  0.00     0.209 HD
ENDBRANCH  13  14
ENDBRANCH  11  13
ENDBRANCH   6   7
ENDBRANCH   5   6
ENDBRANCH   4   5
ENDBRANCH   3   4
ENDBRANCH   1   3
BRANCH   2  16
HETATM   16  C10 UNL     1     -24.383 -15.669  -6.171  1.00  0.00    -0.015 C
HETATM   17  C11 UNL     1     -24.629 -14.533  -6.496  1.00  0.00    -0.092 C
BRANCH  17  18
HETATM   18  C12 UNL     1     -24.915 -13.142  -6.877  1.00  0.00     0.095 C
BRANCH  18  19
HETATM   19  C13 UNL     1     -25.283 -12.407  -5.596  1.00  0.00     0.014 C
BRANCH  19  20
HETATM   20  C14 UNL     1     -26.029 -11.129  -5.890  1.00  0.00     0.021 C
BRANCH  20  21
HETATM   21  C15 UNL     1     -26.770 -11.352  -7.206  1.00  0.00     0.128 C
BRANCH  21  22
HETATM   22  N3  UNL     1     -28.002 -10.596  -7.123  1.00  0.00    -0.366 N
HETATM   23  C16 UNL     1     -28.305  -9.910  -5.997  1.00  0.00     0.090 A
HETATM   24  C17 UNL     1     -29.495  -9.206  -5.979  1.00  0.00     0.017 A
HETATM   25  C18 UNL     1     -30.334  -9.206  -7.069  1.00  0.00     0.003 A
HETATM   26  C19 UNL     1     -29.984  -9.915  -8.187  1.00  0.00     0.017 A
HETATM   27  C20 UNL     1     -28.811 -10.610  -8.204  1.00  0.00     0.090 A
ENDBRANCH  21  22
ENDBRANCH  20  21
ENDBRANCH  19  20
ENDBRANCH  18  19
ENDBRANCH  17  18
ENDBRANCH   2  16
TORSDOF 13
ENDMDL