MODEL 1
REMARK VINA RESULT: -8.416847288      0.000      0.000
REMARK  10 active torsions:
REMARK  status: ('A' for Active; 'I' for Inactive)
REMARK    1  A    between atoms: N1_1  and  C1_5
REMARK    2  A    between atoms: C1_5  and  C2_6
REMARK    3  A    between atoms: C3_7  and  C4_8
REMARK    4  A    between atoms: C4_8  and  C5_9
REMARK    5  A    between atoms: C5_9  and  C6_10
REMARK    6  A    between atoms: C6_10  and  C7_11
REMARK    7  A    between atoms: N3_20  and  C14_21
REMARK    8  A    between atoms: C14_21  and  C15_22
REMARK    9  A    between atoms: C15_22  and  C16_23
REMARK   10  A    between atoms: C16_23  and  N4_24
ROOT
HETATM    1  C2  UNL     1     -21.667 -15.453  -8.805  1.00  0.00     0.060 A
HETATM    2  C3  UNL     1     -21.997 -14.194  -9.339  1.00  0.00     0.034 A
HETATM    3  N2  UNL     1     -20.842 -13.489  -9.292  1.00  0.00    -0.354 N
ATOM      4  H2  UNL     1     -20.747 -12.525  -9.611  1.00  0.00     0.166 HD
HETATM    5  C13 UNL     1     -19.844 -14.208  -8.778  1.00  0.00     0.183 A
HETATM    6  N3  UNL     1     -20.373 -15.416  -8.483  1.00  0.00    -0.343 N
ENDROOT
BRANCH   2   7
HETATM    7  C4  UNL     1     -23.297 -13.718  -9.880  1.00  0.00     0.059 C
BRANCH   7   8
HETATM    8  C5  UNL     1     -24.073 -12.979  -8.833  1.00  0.00     0.011 C
BRANCH   8   9
HETATM    9  C6  UNL     1     -24.973 -13.865  -8.005  1.00  0.00     0.039 C
BRANCH   9  10
HETATM   10  C7  UNL     1     -25.269 -13.299  -6.689  1.00  0.00    -0.058 A
HETATM   11  C8  UNL     1     -25.323 -14.109  -5.587  1.00  0.00     0.007 A
HETATM   12  C9  UNL     1     -25.594 -13.531  -4.371  1.00  0.00     0.001 A
HETATM   13  C10 UNL     1     -25.810 -12.178  -4.228  1.00  0.00     0.000 A
HETATM   14  C11 UNL     1     -25.747 -11.395  -5.367  1.00  0.00     0.001 A
HETATM   15  C12 UNL     1     -25.481 -11.933  -6.593  1.00  0.00     0.007 A
ENDBRANCH   9  10
ENDBRANCH   8   9
ENDBRANCH   7   8
ENDBRANCH   2   7
BRANCH   1  16
HETATM   16  C1  UNL     1     -22.704 -16.511  -8.672  1.00  0.00     0.288 C
BRANCH  16  17
HETATM   17  N1  UNL     1     -23.033 -17.209  -9.868  1.00  0.00    -0.074 N
ATOM     18  H13 UNL     1     -22.293 -17.083 -10.559  1.00  0.00     0.274 HD
ATOM     19  H12 UNL     1     -22.968 -18.215  -9.713  1.00  0.00     0.274 HD
ATOM     20  H11 UNL     1     -23.937 -16.979 -10.282  1.00  0.00     0.274 HD
ENDBRANCH  16  17
ENDBRANCH   1  16
BRANCH   6  21
HETATM   21  C14 UNL     1     -19.619 -16.501  -7.898  1.00  0.00     0.131 C
BRANCH  21  22
HETATM   22  C15 UNL     1     -19.271 -17.575  -8.847  1.00  0.00     0.040 C
BRANCH  22  23
HETATM   23  C16 UNL     1     -19.378 -18.930  -8.209  1.00  0.00     0.129 C
BRANCH  23  24
HETATM   24  N4  UNL     1     -20.640 -19.532  -8.495  1.00  0.00    -0.366 N
HETATM   25  C17 UNL     1     -21.571 -19.618  -7.532  1.00  0.00     0.090 A
HETATM   26  C18 UNL     1     -22.805 -20.222  -7.754  1.00  0.00     0.017 A
HETATM   27  C19 UNL     1     -23.065 -20.743  -9.003  1.00  0.00     0.003 A
HETATM   28  C20 UNL     1     -22.112 -20.656  -9.993  1.00  0.00     0.017 A
HETATM   29  C21 UNL     1     -20.905 -20.040  -9.698  1.00  0.00     0.090 A
ENDBRANCH  23  24
ENDBRANCH  22  23
ENDBRANCH  21  22
ENDBRANCH   6  21
TORSDOF 10
ENDMDL