MODEL 3
REMARK VINA RESULT: -8.482657426      1.234      4.277
REMARK  10 active torsions:
REMARK  status: ('A' for Active; 'I' for Inactive)
REMARK    1  A    between atoms: O1_1  and  C1_3
REMARK    2  A    between atoms: C1_3  and  C2_4
REMARK    3  A    between atoms: C5_7  and  C6_8
REMARK    4  A    between atoms: C6_8  and  C7_9
REMARK    5  A    between atoms: C7_9  and  C8_10
REMARK    6  A    between atoms: N2_15  and  C11_16
REMARK    7  A    between atoms: C11_16  and  C12_17
REMARK    8  A    between atoms: C12_17  and  C13_18
REMARK    9  A    between atoms: C13_18  and  C14_19
REMARK   10  A    between atoms: C14_19  and  N3_20
ROOT
HETATM    1  C8  UNL     1     -24.402 -17.329  -5.870  1.00  0.00     0.028 A
HETATM    2  C9  UNL     1     -25.457 -17.769  -5.087  1.00  0.00     0.114 A
HETATM    3  N1  UNL     1     -25.030 -18.818  -4.376  1.00  0.00    -0.360 N
ATOM      4  H1  UNL     1     -25.584 -19.355  -3.709  1.00  0.00     0.166 HD
HETATM    5  C10 UNL     1     -23.749 -19.038  -4.692  1.00  0.00     0.183 A
HETATM    6  N2  UNL     1     -23.361 -18.109  -5.624  1.00  0.00    -0.345 N
ENDROOT
BRANCH   1   7
HETATM    7  C7  UNL     1     -24.459 -16.194  -6.858  1.00  0.00     0.063 C
BRANCH   7   8
HETATM    8  C6  UNL     1     -23.959 -14.960  -6.130  1.00  0.00     0.044 C
BRANCH   8   9
HETATM    9  C5  UNL     1     -24.850 -13.798  -6.341  1.00  0.00    -0.058 A
HETATM   10  C4  UNL     1     -25.321 -13.574  -7.617  1.00  0.00     0.007 A
HETATM   11  C3  UNL     1     -26.157 -12.503  -7.880  1.00  0.00     0.010 A
HETATM   12  C2  UNL     1     -26.545 -11.634  -6.883  1.00  0.00    -0.035 A
HETATM   13  C21 UNL     1     -26.082 -11.848  -5.611  1.00  0.00     0.010 A
HETATM   14  C20 UNL     1     -25.239 -12.929  -5.355  1.00  0.00     0.007 A
BRANCH  12  15
HETATM   15  C1  UNL     1     -27.445 -10.508  -7.241  1.00  0.00     0.202 C
BRANCH  15  16
HETATM   16  O1  UNL     1     -27.822 -10.571  -8.559  1.00  0.00    -0.396 OA
ATOM     17  H1  UNL     1     -28.707 -10.904  -8.649  1.00  0.00     0.209 HD
ENDBRANCH  15  16
ENDBRANCH  12  15
ENDBRANCH   8   9
ENDBRANCH   7   8
ENDBRANCH   1   7
BRANCH   6  18
HETATM   18  C11 UNL     1     -22.014 -18.081  -6.139  1.00  0.00     0.130 C
BRANCH  18  19
HETATM   19  C12 UNL     1     -21.777 -19.002  -7.291  1.00  0.00     0.022 C
BRANCH  19  20
HETATM   20  C13 UNL     1     -21.182 -18.410  -8.509  1.00  0.00     0.022 C
BRANCH  20  21
HETATM   21  C14 UNL     1     -22.093 -17.389  -9.124  1.00  0.00     0.128 C
BRANCH  21  22
HETATM   22  N3  UNL     1     -21.654 -16.027  -9.029  1.00  0.00    -0.366 N
HETATM   23  C15 UNL     1     -20.447 -15.735  -8.474  1.00  0.00     0.090 A
HETATM   24  C16 UNL     1     -20.054 -14.418  -8.375  1.00  0.00     0.017 A
HETATM   25  C17 UNL     1     -20.828 -13.372  -8.815  1.00  0.00     0.003 A
HETATM   26  C18 UNL     1     -22.048 -13.712  -9.372  1.00  0.00     0.017 A
HETATM   27  C19 UNL     1     -22.437 -15.034  -9.469  1.00  0.00     0.090 A
ENDBRANCH  21  22
ENDBRANCH  20  21
ENDBRANCH  19  20
ENDBRANCH  18  19
ENDBRANCH   6  18
TORSDOF 10
ENDMDL