MODEL 1
REMARK VINA RESULT: -9.158775525      0.000      0.000
REMARK  9 active torsions:
REMARK  status: ('A' for Active; 'I' for Inactive)
REMARK    1  A    between atoms: N3_7  and  C4_8
REMARK    2  A    between atoms: C4_8  and  C5_9
REMARK    3  A    between atoms: C5_9  and  C6_10
REMARK    4  A    between atoms: C6_10  and  C7_11
REMARK    5  A    between atoms: C7_11  and  N4_12
REMARK    6  A    between atoms: C10_15  and  C11_16
REMARK    7  A    between atoms: C11_16  and  C12_17
REMARK    8  A    between atoms: C12_17  and  C13_18
REMARK    9  A    between atoms: C13_18  and  C14_19
ROOT
HETATM    1  N4  UNL     1     -22.661 -14.784  -7.902  1.00  0.00    -0.366 N
HETATM    2  C8  UNL     1     -23.138 -15.355  -6.757  1.00  0.00     0.091 A
HETATM    3  C9  UNL     1     -24.230 -14.773  -6.147  1.00  0.00     0.024 A
HETATM    4  C10 UNL     1     -24.841 -13.651  -6.654  1.00  0.00    -0.056 A
HETATM    5  C20 UNL     1     -24.305 -13.133  -7.810  1.00  0.00     0.024 A
HETATM    6  C21 UNL     1     -23.207 -13.705  -8.439  1.00  0.00     0.091 A
ENDROOT
BRANCH   1   7
HETATM    7  C7  UNL     1     -21.522 -15.441  -8.512  1.00  0.00     0.128 C
BRANCH   7   8
HETATM    8  C6  UNL     1     -20.966 -16.486  -7.616  1.00  0.00     0.022 C
BRANCH   8   9
HETATM    9  C5  UNL     1     -20.699 -17.822  -8.198  1.00  0.00     0.022 C
BRANCH   9  10
HETATM   10  C4  UNL     1     -20.890 -18.990  -7.287  1.00  0.00     0.131 C
BRANCH  10  11
HETATM   11  N3  UNL     1     -22.063 -19.779  -7.663  1.00  0.00    -0.330 N
HETATM   12  C1  UNL     1     -23.063 -20.161  -6.848  1.00  0.00     0.194 A
HETATM   13  N1  UNL     1     -23.211 -19.892  -5.451  1.00  0.00    -0.063 NA
HETATM   14  N2  UNL     1     -23.982 -20.882  -7.541  1.00  0.00    -0.339 N
HETATM   15  C2  UNL     1     -23.569 -20.965  -8.828  1.00  0.00     0.108 A
ATOM     16  H2  UNL     1     -24.836 -21.289  -7.159  1.00  0.00     0.168 HD
HETATM   17  C3  UNL     1     -22.375 -20.272  -8.873  1.00  0.00     0.110 A
ENDBRANCH  10  11
ENDBRANCH   9  10
ENDBRANCH   8   9
ENDBRANCH   7   8
ENDBRANCH   1   7
BRANCH   4  18
HETATM   18  C11 UNL     1     -26.005 -13.092  -5.938  1.00  0.00     0.039 C
BRANCH  18  19
HETATM   19  C12 UNL     1     -25.685 -11.928  -5.082  1.00  0.00     0.009 C
BRANCH  19  20
HETATM   20  C13 UNL     1     -25.829 -10.653  -5.868  1.00  0.00     0.039 C
BRANCH  20  21
HETATM   21  C14 UNL     1     -27.109 -10.501  -6.555  1.00  0.00    -0.058 A
HETATM   22  C15 UNL     1     -27.292 -10.800  -7.884  1.00  0.00     0.007 A
HETATM   23  C16 UNL     1     -28.527 -10.627  -8.447  1.00  0.00     0.001 A
HETATM   24  C17 UNL     1     -29.594 -10.162  -7.718  1.00  0.00     0.000 A
HETATM   25  C18 UNL     1     -29.395  -9.867  -6.386  1.00  0.00     0.001 A
HETATM   26  C19 UNL     1     -28.180 -10.027  -5.799  1.00  0.00     0.007 A
ENDBRANCH  20  21
ENDBRANCH  19  20
ENDBRANCH  18  19
ENDBRANCH   4  18
TORSDOF 9
ENDMDL