MODEL 1
REMARK VINA RESULT: -8.391870996      0.000      0.000
REMARK  9 active torsions:
REMARK  status: ('A' for Active; 'I' for Inactive)
REMARK    1  A    between atoms: N1_6  and  C6_7
REMARK    2  A    between atoms: C6_7  and  C7_8
REMARK    3  A    between atoms: C7_8  and  C8_9
REMARK    4  A    between atoms: C8_9  and  C9_10
REMARK    5  A    between atoms: C9_10  and  C10_11
REMARK    6  A    between atoms: C10_11  and  C11_12
REMARK    7  A    between atoms: C11_12  and  C12_13
REMARK    8  A    between atoms: C12_13  and  C13_14
REMARK    9  A    between atoms: C13_14  and  N2_15
ROOT
HETATM    1  C10 UNL     1     -20.363 -14.040  -9.007  1.00  0.00     0.000 C
ENDROOT
BRANCH   1   2
HETATM    2  C9  UNL     1     -21.674 -13.357  -8.808  1.00  0.00     0.000 C
BRANCH   2   3
HETATM    3  C8  UNL     1     -22.699 -13.922  -9.765  1.00  0.00     0.002 C
BRANCH   3   4
HETATM    4  C7  UNL     1     -23.819 -14.612  -9.054  1.00  0.00     0.022 C
BRANCH   4   5
HETATM    5  C6  UNL     1     -25.007 -13.730  -8.884  1.00  0.00     0.148 C
BRANCH   5   6
HETATM    6  N1  UNL     1     -25.285 -13.251  -7.577  1.00  0.00    -0.303 N
HETATM    7  C5  UNL     1     -24.880 -13.736  -6.464  1.00  0.00     0.110 A
HETATM    8  C4  UNL     1     -25.210 -13.187  -5.148  1.00  0.00     0.021 A
HETATM    9  C3  UNL     1     -25.979 -12.118  -5.039  1.00  0.00     0.031 A
HETATM   10  C2  UNL     1     -26.484 -11.510  -6.264  1.00  0.00     0.038 A
HETATM   11  C1  UNL     1     -27.254 -10.444  -6.159  1.00  0.00     0.044 C
HETATM   12  N4  UNL     1     -26.117 -12.101  -7.494  1.00  0.00    -0.300 N
ATOM     13  H4  UNL     1     -26.464 -11.685  -8.358  1.00  0.00     0.187 HD
ENDBRANCH   5   6
ENDBRANCH   4   5
ENDBRANCH   3   4
ENDBRANCH   2   3
ENDBRANCH   1   2
BRANCH   1  14
HETATM   14  C11 UNL     1     -20.088 -14.966  -7.848  1.00  0.00     0.002 C
BRANCH  14  15
HETATM   15  C12 UNL     1     -19.815 -16.344  -8.334  1.00  0.00     0.020 C
BRANCH  15  16
HETATM   16  C13 UNL     1     -21.103 -17.072  -8.721  1.00  0.00     0.130 C
BRANCH  16  17
HETATM   17  N2  UNL     1     -21.335 -18.065  -7.705  1.00  0.00    -0.341 N
HETATM   18  C14 UNL     1     -20.572 -19.130  -7.441  1.00  0.00     0.183 A
HETATM   19  N3  UNL     1     -21.121 -19.817  -6.422  1.00  0.00    -0.350 N
HETATM   20  C15 UNL     1     -22.254 -19.182  -6.029  1.00  0.00     0.060 A
ATOM     21  H3  UNL     1     -20.747 -20.674  -6.013  1.00  0.00     0.166 HD
HETATM   22  C16 UNL     1     -23.191 -19.439  -5.054  1.00  0.00     0.032 A
HETATM   23  C20 UNL     1     -22.369 -18.080  -6.854  1.00  0.00     0.062 A
HETATM   24  C17 UNL     1     -24.249 -18.581  -4.907  1.00  0.00     0.002 A
HETATM   25  C18 UNL     1     -24.385 -17.474  -5.717  1.00  0.00     0.002 A
HETATM   26  C19 UNL     1     -23.454 -17.207  -6.696  1.00  0.00     0.032 A
ENDBRANCH  16  17
ENDBRANCH  15  16
ENDBRANCH  14  15
ENDBRANCH   1  14
TORSDOF 9
ENDMDL