MODEL 3
REMARK VINA RESULT: -8.071933143      2.304      4.186
REMARK  10 active torsions:
REMARK  status: ('A' for Active; 'I' for Inactive)
REMARK    1  A    between atoms: N1_1  and  C1_5
REMARK    2  A    between atoms: C1_5  and  C2_6
REMARK    3  A    between atoms: C5_9  and  C6_10
REMARK    4  A    between atoms: C6_10  and  C7_11
REMARK    5  A    between atoms: N2_14  and  C10_15
REMARK    6  A    between atoms: C10_15  and  C11_16
REMARK    7  A    between atoms: C11_16  and  C12_17
REMARK    8  A    between atoms: C12_17  and  C13_18
REMARK    9  A    between atoms: C13_18  and  C14_19
REMARK   10  A    between atoms: C14_19  and  N3_20
ROOT
HETATM    1  C7  UNL     1     -24.090 -15.028  -7.521  1.00  0.00     0.031 A
HETATM    2  C8  UNL     1     -24.061 -15.937  -8.558  1.00  0.00     0.045 A
HETATM    3  C9  UNL     1     -24.490 -17.130  -7.993  1.00  0.00     0.112 A
HETATM    4  N2  UNL     1     -24.760 -16.951  -6.687  1.00  0.00    -0.303 N
HETATM    5  N4  UNL     1     -24.515 -15.687  -6.430  1.00  0.00    -0.303 N
ATOM      6  H4  UNL     1     -24.632 -15.258  -5.512  1.00  0.00     0.186 HD
ENDROOT
BRANCH   1   7
HETATM    7  C6  UNL     1     -23.718 -13.570  -7.589  1.00  0.00     0.097 C
BRANCH   7   8
HETATM    8  C5  UNL     1     -25.003 -12.816  -7.437  1.00  0.00    -0.052 A
HETATM    9  C4  UNL     1     -25.962 -12.913  -8.416  1.00  0.00     0.008 A
HETATM   10  C3  UNL     1     -27.157 -12.231  -8.308  1.00  0.00     0.009 A
HETATM   11  C2  UNL     1     -27.442 -11.422  -7.212  1.00  0.00    -0.033 A
HETATM   12  C21 UNL     1     -26.469 -11.337  -6.238  1.00  0.00     0.009 A
HETATM   13  C20 UNL     1     -25.267 -12.022  -6.347  1.00  0.00     0.008 A
BRANCH  11  14
HETATM   14  C1  UNL     1     -28.732 -10.690  -7.100  1.00  0.00     0.268 C
BRANCH  14  15
HETATM   15  N1  UNL     1     -29.130 -10.292  -8.435  1.00  0.00    -0.075 N
ATOM     16  H13 UNL     1     -29.515 -11.062  -8.980  1.00  0.00     0.274 HD
ATOM     17  H12 UNL     1     -29.956  -9.695  -8.442  1.00  0.00     0.274 HD
ATOM     18  H11 UNL     1     -28.323  -9.855  -8.882  1.00  0.00     0.274 HD
ENDBRANCH  14  15
ENDBRANCH  11  14
ENDBRANCH   7   8
ENDBRANCH   1   7
BRANCH   4  19
HETATM   19  C10 UNL     1     -25.240 -17.978  -5.741  1.00  0.00     0.148 C
BRANCH  19  20
HETATM   20  C11 UNL     1     -24.069 -18.489  -4.942  1.00  0.00     0.022 C
BRANCH  20  21
HETATM   21  C12 UNL     1     -23.319 -19.596  -5.623  1.00  0.00     0.003 C
BRANCH  21  22
HETATM   22  C13 UNL     1     -21.867 -19.210  -5.745  1.00  0.00     0.020 C
BRANCH  22  23
HETATM   23  C14 UNL     1     -21.484 -19.069  -7.215  1.00  0.00     0.128 C
BRANCH  23  24
HETATM   24  N3  UNL     1     -20.948 -17.736  -7.375  1.00  0.00    -0.366 N
HETATM   25  C15 UNL     1     -21.108 -16.774  -6.459  1.00  0.00     0.090 A
HETATM   26  C16 UNL     1     -20.595 -15.508  -6.617  1.00  0.00     0.017 A
HETATM   27  C17 UNL     1     -19.892 -15.229  -7.762  1.00  0.00     0.003 A
HETATM   28  C18 UNL     1     -19.712 -16.212  -8.728  1.00  0.00     0.017 A
HETATM   29  C19 UNL     1     -20.252 -17.458  -8.508  1.00  0.00     0.090 A
ENDBRANCH  23  24
ENDBRANCH  22  23
ENDBRANCH  21  22
ENDBRANCH  20  21
ENDBRANCH  19  20
ENDBRANCH   4  19
TORSDOF 10
ENDMDL