MODEL 2
REMARK VINA RESULT: -8.265657825      0.700      1.399
REMARK  9 active torsions:
REMARK  status: ('A' for Active; 'I' for Inactive)
REMARK    1  A    between atoms: N1_4  and  C4_5
REMARK    2  A    between atoms: C4_5  and  C5_6
REMARK    3  A    between atoms: C5_6  and  C6_7
REMARK    4  A    between atoms: C6_7  and  C7_8
REMARK    5  A    between atoms: N2_12  and  C11_13
REMARK    6  A    between atoms: C11_13  and  C12_14
REMARK    7  A    between atoms: C12_14  and  C13_15
REMARK    8  A    between atoms: C13_15  and  C14_16
REMARK    9  A    between atoms: C14_16  and  N3_17
ROOT
HETATM    1  C7  UNL     1     -22.412 -14.134  -8.942  1.00  0.00    -0.043 A
HETATM    2  C8  UNL     1     -21.161 -13.657  -9.275  1.00  0.00     0.010 A
HETATM    3  C9  UNL     1     -20.016 -14.209  -8.748  1.00  0.00     0.018 A
HETATM    4  C10 UNL     1     -20.128 -15.261  -7.868  1.00  0.00     0.090 A
HETATM    5  N2  UNL     1     -21.359 -15.741  -7.532  1.00  0.00    -0.366 N
HETATM    6  C18 UNL     1     -22.474 -15.188  -8.058  1.00  0.00     0.097 A
ENDROOT
BRANCH   5   7
HETATM    7  C11 UNL     1     -21.489 -16.854  -6.602  1.00  0.00     0.128 C
BRANCH   7   8
HETATM    8  C12 UNL     1     -22.924 -16.865  -6.134  1.00  0.00     0.022 C
BRANCH   8   9
HETATM    9  C13 UNL     1     -23.469 -18.255  -5.963  1.00  0.00     0.023 C
BRANCH   9  10
HETATM   10  C14 UNL     1     -24.369 -18.508  -7.180  1.00  0.00     0.148 C
BRANCH  10  11
HETATM   11  N3  UNL     1     -23.796 -19.459  -8.081  1.00  0.00    -0.304 N
HETATM   12  C15 UNL     1     -24.138 -20.768  -8.130  1.00  0.00     0.111 A
HETATM   13  C16 UNL     1     -23.373 -21.344  -9.115  1.00  0.00     0.037 A
HETATM   14  C17 UNL     1     -22.590 -20.327  -9.620  1.00  0.00     0.108 A
HETATM   15  N4  UNL     1     -22.870 -19.188  -8.969  1.00  0.00    -0.310 N
ATOM     16  H4  UNL     1     -22.442 -18.277  -9.135  1.00  0.00     0.186 HD
ENDBRANCH  10  11
ENDBRANCH   9  10
ENDBRANCH   8   9
ENDBRANCH   7   8
ENDBRANCH   5   7
BRANCH   1  17
HETATM   17  C6  UNL     1     -23.627 -13.551  -9.518  1.00  0.00     0.041 C
BRANCH  17  18
HETATM   18  C5  UNL     1     -24.829 -14.270  -8.998  1.00  0.00     0.025 C
BRANCH  18  19
HETATM   19  C4  UNL     1     -25.982 -13.367  -8.636  1.00  0.00     0.128 C
BRANCH  19  20
HETATM   20  N1  UNL     1     -25.845 -13.019  -7.224  1.00  0.00    -0.366 N
HETATM   21  C3  UNL     1     -26.214 -11.788  -6.800  1.00  0.00     0.090 A
HETATM   22  C2  UNL     1     -26.101 -11.420  -5.477  1.00  0.00     0.017 A
HETATM   23  C1  UNL     1     -25.604 -12.305  -4.549  1.00  0.00     0.003 A
HETATM   24  C20 UNL     1     -25.223 -13.574  -4.986  1.00  0.00     0.017 A
HETATM   25  C19 UNL     1     -25.356 -13.903  -6.339  1.00  0.00     0.090 A
ENDBRANCH  19  20
ENDBRANCH  18  19
ENDBRANCH  17  18
ENDBRANCH   1  17
TORSDOF 9
ENDMDL