MODEL 1
REMARK VINA RESULT: -8.599263193      0.000      0.000
REMARK  6 active torsions:
REMARK  status: ('A' for Active; 'I' for Inactive)
REMARK    1  A    between atoms: N1_2  and  C2_4
REMARK    2  A    between atoms: C2_4  and  N2_6
REMARK    3  A    between atoms: N2_6  and  N3_8
REMARK       I    between atoms: N3_8  and  C3_10
REMARK    4  A    between atoms: C3_10  and  C4_12
REMARK    5  A    between atoms: C4_12  and  N4_13
REMARK    6  A    between atoms: C4_12  and  C6_18
REMARK       I    between atoms: C6_18  and  N7_20
REMARK       I    between atoms: N7_20  and  C7_22
ROOT
HETATM    1  C4  UNL     1      16.582 -27.421 -15.294  1.00  0.00     0.271 C
ENDROOT
BRANCH   1   2
HETATM    2  C3  UNL     1      17.646 -26.998 -16.219  1.00  0.00     0.268 C
HETATM    3  N3  UNL     1      18.971 -26.828 -15.771  1.00  0.00    -0.266 N
ATOM      4  H3  UNL     1      19.185 -26.999 -14.788  1.00  0.00     0.190 HD
HETATM    5  O1  UNL     1      17.393 -26.782 -17.415  1.00  0.00    -0.269 OA
BRANCH   3   6
HETATM    6  N2  UNL     1      20.013 -26.429 -16.636  1.00  0.00    -0.274 N
ATOM      7  H2  UNL     1      20.220 -25.437 -16.756  1.00  0.00     0.189 HD
BRANCH   6   8
HETATM    8  C2  UNL     1      20.769 -27.394 -17.337  1.00  0.00     0.186 C
HETATM    9  S1  UNL     1      21.234 -28.763 -16.542  1.00  0.00    -0.040 SA
BRANCH   8  10
HETATM   10  N1  UNL     1      21.139 -27.219 -18.713  1.00  0.00    -0.370 N
HETATM   11  C1  UNL     1      20.078 -27.233 -19.731  1.00  0.00     0.148 C
ATOM     12  H1  UNL     1      22.115 -27.087 -18.978  1.00  0.00     0.161 HD
ENDBRANCH   8  10
ENDBRANCH   6   8
ENDBRANCH   3   6
ENDBRANCH   1   2
BRANCH   1  13
HETATM   13  N4  UNL     1      16.515 -26.662 -14.077  1.00  0.00    -0.346 N
HETATM   14  C5  UNL     1      15.796 -25.657 -13.805  1.00  0.00     0.198 C
HETATM   15  N5  UNL     1      14.899 -25.144 -14.777  1.00  0.00    -0.067 NA
HETATM   16  N6  UNL     1      15.841 -24.997 -12.555  1.00  0.00    -0.067 NA
ATOM     17  H4  UNL     1      17.131 -26.977 -13.327  1.00  0.00     0.163 HD
ENDBRANCH   1  13
BRANCH   1  18
HETATM   18  C6  UNL     1      16.804 -28.851 -14.879  1.00  0.00     0.256 C
HETATM   19  O2  UNL     1      17.878 -29.362 -15.279  1.00  0.00    -0.270 OA
HETATM   20  N7  UNL     1      15.912 -29.593 -14.103  1.00  0.00    -0.296 N
HETATM   21  C7  UNL     1      16.246 -30.911 -13.719  1.00  0.00     0.220 C
ATOM     22  H7  UNL     1      15.023 -29.184 -13.813  1.00  0.00     0.171 HD
HETATM   23  C8  UNL     1      15.387 -31.759 -12.858  1.00  0.00     0.117 C
HETATM   24  O3  UNL     1      17.328 -31.434 -14.109  1.00  0.00    -0.274 OA
ENDBRANCH   1  18
TORSDOF 6
ENDMDL