MODEL 1
REMARK VINA RESULT: -7.550808308      0.000      0.000
REMARK  5 active torsions:
REMARK  status: ('A' for Active; 'I' for Inactive)
REMARK    1  A    between atoms: C2_2  and  N1_3
REMARK    2  A    between atoms: C2_2  and  O1_8
REMARK    3  A    between atoms: O1_8  and  C4_9
REMARK    4  A    between atoms: C4_9  and  N5_13
REMARK       I    between atoms: N6_16  and  C7_17
REMARK    5  A    between atoms: C9_23  and  C10_24
ROOT
HETATM    1  N5  UNL     1      19.227 -27.348 -15.537  1.00  0.00    -0.335 N
HETATM    2  C5  UNL     1      18.588 -26.110 -15.837  1.00  0.00     0.147 C
HETATM    3  C6  UNL     1      17.105 -26.223 -16.029  1.00  0.00     0.145 C
HETATM    4  N6  UNL     1      16.510 -27.316 -15.313  1.00  0.00    -0.352 N
HETATM    5  C7  UNL     1      15.243 -27.831 -15.656  1.00  0.00     0.184 C
HETATM    6  N7  UNL     1      14.808 -28.920 -15.116  1.00  0.00    -0.374 N
ATOM      7  H71 UNL     1      13.892 -29.293 -15.365  1.00  0.00     0.158 HD
ATOM      8  H72 UNL     1      15.414 -29.384 -14.440  1.00  0.00     0.158 HD
HETATM    9  N8  UNL     1      14.397 -27.183 -16.601  1.00  0.00    -0.064 NA
HETATM   10  C8  UNL     1      17.246 -27.897 -14.207  1.00  0.00     0.156 C
HETATM   11  C9  UNL     1      18.602 -28.331 -14.686  1.00  0.00     0.143 C
ENDROOT
BRANCH   1  12
HETATM   12  C4  UNL     1      20.506 -27.626 -16.083  1.00  0.00     0.217 C
HETATM   13  N4  UNL     1      21.366 -28.386 -15.453  1.00  0.00    -0.365 N
ATOM     14  H42 UNL     1      22.287 -28.587 -15.845  1.00  0.00     0.159 HD
ATOM     15  H41 UNL     1      21.058 -28.760 -14.556  1.00  0.00     0.159 HD
BRANCH  12  16
HETATM   16  O1  UNL     1      20.926 -27.117 -17.305  1.00  0.00    -0.297 OA
BRANCH  16  17
HETATM   17  C2  UNL     1      20.752 -27.907 -18.492  1.00  0.00     0.228 C
HETATM   18  C1  UNL     1      19.784 -27.254 -19.439  1.00  0.00     0.063 C
BRANCH  17  19
HETATM   19  N1  UNL     1      22.011 -28.200 -19.111  1.00  0.00    -0.340 N
HETATM   20  C3  UNL     1      22.760 -29.183 -18.750  1.00  0.00     0.198 C
HETATM   21  N2  UNL     1      22.290 -30.000 -17.684  1.00  0.00    -0.067 NA
HETATM   22  N3  UNL     1      24.000 -29.476 -19.355  1.00  0.00    -0.067 NA
ATOM     23  H1  UNL     1      22.329 -27.601 -19.875  1.00  0.00     0.164 HD
ENDBRANCH  17  19
ENDBRANCH  16  17
ENDBRANCH  12  16
ENDBRANCH   1  12
BRANCH  11  24
HETATM   24  C10 UNL     1      18.574 -29.651 -15.357  1.00  0.00     0.080 C
HETATM   25  N9  UNL     1      17.832 -30.587 -14.904  1.00  0.00    -0.409 N
ATOM     26  H92 UNL     1      17.263 -30.408 -14.077  1.00  0.00     0.155 HD
ATOM     27  H91 UNL     1      17.814 -31.496 -15.366  1.00  0.00     0.155 HD
ENDBRANCH  11  24
TORSDOF 5
ENDMDL