MODEL 3
REMARK VINA RESULT: -7.397061350      2.937      4.164
REMARK  7 active torsions:
REMARK  status: ('A' for Active; 'I' for Inactive)
REMARK    1  A    between atoms: C2_4  and  C3_5
REMARK    2  A    between atoms: C2_4  and  N6_21
REMARK    3  A    between atoms: C3_5  and  N2_6
REMARK       I    between atoms: N2_6  and  C4_8
REMARK       I    between atoms: C4_8  and  N4_12
REMARK       I    between atoms: N4_12  and  C5_14
REMARK    4  A    between atoms: C5_14  and  C6_16
REMARK    5  A    between atoms: C6_16  and  N5_17
REMARK    6  A    between atoms: N6_21  and  C7_23
REMARK    7  A    between atoms: C7_23  and  N7_25
ROOT
HETATM    1  N2  UNL     1      18.982 -28.077 -15.729  1.00  0.00    -0.219 N
ATOM      2  H2  UNL     1      18.489 -28.934 -15.979  1.00  0.00     0.178 HD
HETATM    3  C4  UNL     1      20.403 -27.984 -15.845  1.00  0.00     0.674 C
HETATM    4  N3  UNL     1      21.189 -28.090 -14.848  1.00  0.00    -0.235 N
ATOM      5  H31 UNL     1      22.203 -28.023 -14.930  1.00  0.00     0.174 HD
ATOM      6  H32 UNL     1      20.794 -28.247 -13.921  1.00  0.00     0.174 HD
HETATM    7  N4  UNL     1      20.951 -27.765 -17.131  1.00  0.00    -0.159 N
ATOM      8  H4  UNL     1      21.961 -27.695 -17.246  1.00  0.00     0.187 HD
HETATM    9  C5  UNL     1      20.115 -27.646 -18.246  1.00  0.00     0.261 C
HETATM   10  O1  UNL     1      18.860 -27.723 -18.170  1.00  0.00    -0.271 OA
ENDROOT
BRANCH   1  11
HETATM   11  C3  UNL     1      18.265 -26.916 -15.247  1.00  0.00     0.214 C
BRANCH  11  12
HETATM   12  C2  UNL     1      17.077 -27.326 -14.467  1.00  0.00     0.097 C
HETATM   13  N1  UNL     1      16.206 -26.440 -14.123  1.00  0.00    -0.383 N
HETATM   14  C1  UNL     1      16.299 -25.042 -14.447  1.00  0.00     0.147 C
ATOM     15  H1  UNL     1      15.397 -26.751 -13.585  1.00  0.00     0.160 HD
BRANCH  12  16
HETATM   16  N6  UNL     1      16.913 -28.693 -14.109  1.00  0.00    -0.322 N
ATOM     17  H6  UNL     1      17.529 -29.107 -13.409  1.00  0.00     0.169 HD
BRANCH  16  18
HETATM   18  C7  UNL     1      15.908 -29.487 -14.709  1.00  0.00     0.179 C
HETATM   19  S1  UNL     1      15.637 -29.443 -16.307  1.00  0.00    -0.040 SA
BRANCH  18  20
HETATM   20  N7  UNL     1      15.123 -30.333 -13.902  1.00  0.00    -0.310 N
HETATM   21  C8  UNL     1      15.658 -31.342 -13.328  1.00  0.00     0.203 C
HETATM   22  N8  UNL     1      14.841 -32.173 -12.524  1.00  0.00    -0.066 NA
HETATM   23  N9  UNL     1      17.038 -31.601 -13.510  1.00  0.00    -0.066 NA
ATOM     24  H7  UNL     1      14.129 -30.141 -13.776  1.00  0.00     0.170 HD
ENDBRANCH  18  20
ENDBRANCH  16  18
ENDBRANCH  12  16
ENDBRANCH  11  12
ENDBRANCH   1  11
BRANCH   9  25
HETATM   25  C6  UNL     1      20.695 -27.418 -19.585  1.00  0.00     0.332 C
BRANCH  25  26
HETATM   26  N5  UNL     1      19.715 -26.821 -20.439  1.00  0.00    -0.071 N
ATOM     27  H53 UNL     1      18.806 -26.742 -19.983  1.00  0.00     0.274 HD
ATOM     28  H52 UNL     1      19.891 -25.828 -20.590  1.00  0.00     0.274 HD
ATOM     29  H51 UNL     1      19.663 -27.340 -21.316  1.00  0.00     0.274 HD
ENDBRANCH  25  26
ENDBRANCH   9  25
TORSDOF 7
ENDMDL