MODEL 5
REMARK VINA RESULT: -7.378893643      1.460      1.648
REMARK  7 active torsions:
REMARK  status: ('A' for Active; 'I' for Inactive)
REMARK    1  A    between atoms: C2_2  and  N1_3
REMARK    2  A    between atoms: C2_2  and  C7_11
REMARK    3  A    between atoms: N1_3  and  C3_5
REMARK    4  A    between atoms: C3_5  and  N2_6
REMARK    5  A    between atoms: C7_11  and  N3_13
REMARK    6  A    between atoms: N3_13  and  N4_15
REMARK       I    between atoms: N4_15  and  C8_17
REMARK       I    between atoms: C8_17  and  N5_19
REMARK    7  A    between atoms: N5_19  and  N6_20
REMARK       I    between atoms: N6_20  and  C9_22
ROOT
HETATM    1  C7  UNL     1      16.646 -25.976 -14.571  1.00  0.00     0.141 C
HETATM    2  S1  UNL     1      15.752 -25.095 -13.512  1.00  0.00    -0.057 SA
ENDROOT
BRANCH   1   3
HETATM    3  C2  UNL     1      16.688 -27.425 -14.374  1.00  0.00     0.059 C
HETATM    4  C1  UNL     1      17.726 -28.007 -13.897  1.00  0.00     0.046 C
BRANCH   3   5
HETATM    5  N1  UNL     1      15.530 -28.149 -14.768  1.00  0.00    -0.372 N
ATOM      6  H1  UNL     1      14.660 -27.620 -14.832  1.00  0.00     0.161 HD
BRANCH   5   7
HETATM    7  C3  UNL     1      15.457 -29.547 -15.085  1.00  0.00     0.243 C
BRANCH   7   8
HETATM    8  N2  UNL     1      15.052 -30.300 -13.939  1.00  0.00    -0.381 N
HETATM    9  C4  UNL     1      15.833 -31.272 -13.571  1.00  0.00    -0.025 C
HETATM   10  C5  UNL     1      15.526 -32.139 -12.431  1.00  0.00     0.062 C
HETATM   11  C6  UNL     1      17.135 -31.533 -14.297  1.00  0.00     0.062 C
ATOM     12  H2  UNL     1      14.192 -30.085 -13.435  1.00  0.00     0.160 HD
ENDBRANCH   7   8
ENDBRANCH   5   7
ENDBRANCH   3   5
ENDBRANCH   1   3
BRANCH   1  13
HETATM   13  N3  UNL     1      17.285 -25.393 -15.652  1.00  0.00    -0.284 N
ATOM     14  H3  UNL     1      16.932 -24.486 -15.956  1.00  0.00     0.188 HD
BRANCH  13  15
HETATM   15  N4  UNL     1      18.349 -25.911 -16.360  1.00  0.00    -0.237 N
HETATM   16  C8  UNL     1      18.258 -26.963 -17.294  1.00  0.00     0.431 C
HETATM   17  O1  UNL     1      17.095 -27.415 -17.451  1.00  0.00    -0.227 OA
HETATM   18  N5  UNL     1      19.378 -27.386 -17.936  1.00  0.00    -0.261 NA
ATOM     19  H4  UNL     1      19.270 -25.504 -16.195  1.00  0.00     0.193 HD
BRANCH  18  20
HETATM   20  N6  UNL     1      20.460 -27.809 -18.571  1.00  0.00    -0.198 N
HETATM   21  C9  UNL     1      21.606 -28.251 -17.900  1.00  0.00     0.242 C
HETATM   22  C10 UNL     1      22.731 -28.739 -18.775  1.00  0.00     0.119 C
HETATM   23  O2  UNL     1      21.746 -28.271 -16.687  1.00  0.00    -0.271 OA
ATOM     24  H6  UNL     1      20.459 -27.813 -19.591  1.00  0.00     0.205 HD
ENDBRANCH  18  20
ENDBRANCH  13  15
ENDBRANCH   1  13
TORSDOF 7
ENDMDL