MODEL 3
REMARK VINA RESULT: -6.685184528      1.677      4.321
REMARK  6 active torsions:
REMARK  status: ('A' for Active; 'I' for Inactive)
REMARK       I    between atoms: N1_2  and  C3_4
REMARK       I    between atoms: C3_4  and  N2_6
REMARK    1  A    between atoms: C4_8  and  N3_9
REMARK    2  A    between atoms: C4_8  and  C6_14
REMARK    3  A    between atoms: C6_14  and  N6_15
REMARK    4  A    between atoms: C6_14  and  C8_20
REMARK    5  A    between atoms: C8_20  and  O2_21
REMARK    6  A    between atoms: N9_23  and  O3_25
ROOT
HETATM    1  C1  UNL     1      17.420 -31.098 -14.581  1.00  0.00     0.154 C
HETATM    2  N1  UNL     1      16.133 -30.539 -14.261  1.00  0.00    -0.343 N
HETATM    3  C2  UNL     1      15.399 -31.031 -13.123  1.00  0.00     0.154 C
HETATM    4  C3  UNL     1      15.583 -29.520 -15.043  1.00  0.00     0.323 C
HETATM    5  O1  UNL     1      14.469 -29.046 -14.755  1.00  0.00    -0.247 OA
HETATM    6  N2  UNL     1      16.280 -29.019 -16.164  1.00  0.00    -0.296 N
ATOM      7  H2  UNL     1      16.375 -29.632 -16.974  1.00  0.00     0.172 HD
HETATM    8  C4  UNL     1      16.800 -27.860 -16.240  1.00  0.00     0.118 C
ENDROOT
BRANCH   8   9
HETATM    9  N3  UNL     1      17.476 -27.443 -17.394  1.00  0.00    -0.320 N
HETATM   10  C5  UNL     1      18.686 -27.683 -17.698  1.00  0.00     0.202 C
HETATM   11  N4  UNL     1      19.165 -27.147 -18.947  1.00  0.00    -0.066 NA
HETATM   12  N5  UNL     1      19.609 -28.422 -16.935  1.00  0.00    -0.066 NA
ATOM     13  H3  UNL     1      16.941 -26.888 -18.062  1.00  0.00     0.169 HD
ENDBRANCH   8   9
BRANCH   8  14
HETATM   14  C6  UNL     1      16.709 -26.900 -15.099  1.00  0.00     0.228 C
BRANCH  14  15
HETATM   15  N6  UNL     1      15.333 -26.682 -14.694  1.00  0.00    -0.348 N
HETATM   16  C7  UNL     1      15.114 -26.003 -13.607  1.00  0.00     0.197 C
HETATM   17  N7  UNL     1      16.195 -25.480 -12.822  1.00  0.00    -0.067 NA
HETATM   18  N8  UNL     1      13.802 -25.749 -13.147  1.00  0.00    -0.067 NA
ATOM     19  H6  UNL     1      14.558 -27.050 -15.247  1.00  0.00     0.163 HD
ENDBRANCH  14  15
BRANCH  14  20
HETATM   20  C8  UNL     1      17.351 -25.605 -15.499  1.00  0.00     0.166 C
HETATM   21  N9  UNL     1      16.695 -24.503 -15.507  1.00  0.00    -0.249 N
ATOM     22  H9  UNL     1      15.712 -24.489 -15.236  1.00  0.00     0.196 HD
BRANCH  20  23
HETATM   23  O2  UNL     1      18.685 -25.589 -15.872  1.00  0.00    -0.346 OA
ATOM     24  H2  UNL     1      19.244 -26.324 -15.647  1.00  0.00     0.219 HD
ENDBRANCH  20  23
BRANCH  21  25
HETATM   25  O3  UNL     1      17.320 -23.349 -15.878  1.00  0.00    -0.288 OA
ATOM     26  H3  UNL     1      18.095 -23.390 -16.426  1.00  0.00     0.244 HD
ENDBRANCH  21  25
ENDBRANCH  14  20
ENDBRANCH   8  14
TORSDOF 6
ENDMDL