MODEL 5
REMARK VINA RESULT: -7.397898027      2.561      5.956
REMARK  5 active torsions:
REMARK  status: ('A' for Active; 'I' for Inactive)
REMARK    1  A    between atoms: C2_2  and  N1_3
REMARK       I    between atoms: N1_3  and  C3_5
REMARK    2  A    between atoms: C3_5  and  C4_7
REMARK    3  A    between atoms: C4_7  and  N2_8
REMARK       I    between atoms: C5_10  and  N3_11
REMARK       I    between atoms: C5_10  and  N7_19
REMARK       I    between atoms: C6_13  and  N5_15
REMARK    4  A    between atoms: N7_19  and  N8_21
REMARK    5  A    between atoms: N8_21  and  C8_23
ROOT
HETATM    1  N2  UNL     1      15.657 -27.888 -16.313  1.00  0.00    -0.216 N
ATOM      2  H2  UNL     1      14.795 -27.592 -16.769  1.00  0.00     0.178 HD
HETATM    3  C5  UNL     1      15.869 -27.631 -15.067  1.00  0.00     0.695 C
HETATM    4  N3  UNL     1      14.822 -26.916 -14.395  1.00  0.00    -0.162 N
ATOM      5  H3  UNL     1      13.899 -27.345 -14.333  1.00  0.00     0.187 HD
HETATM    6  C6  UNL     1      14.997 -25.768 -13.872  1.00  0.00     0.215 C
HETATM    7  N4  UNL     1      13.921 -25.118 -13.225  1.00  0.00    -0.062 NA
HETATM    8  N5  UNL     1      16.261 -25.147 -13.939  1.00  0.00    -0.267 N
ATOM      9  H5  UNL     1      16.971 -25.370 -13.241  1.00  0.00     0.180 HD
HETATM   10  C7  UNL     1      16.552 -24.229 -14.954  1.00  0.00     0.184 C
HETATM   11  N6  UNL     1      16.794 -23.486 -15.789  1.00  0.00    -0.172 NA
HETATM   12  N7  UNL     1      17.053 -28.027 -14.404  1.00  0.00    -0.130 N
ATOM     13  H7  UNL     1      17.909 -27.498 -14.568  1.00  0.00     0.205 HD
ENDROOT
BRANCH   1  14
HETATM   14  C4  UNL     1      16.671 -28.602 -17.040  1.00  0.00     0.240 C
BRANCH  14  15
HETATM   15  C3  UNL     1      17.831 -27.749 -17.388  1.00  0.00     0.235 C
HETATM   16  N1  UNL     1      19.047 -28.331 -17.802  1.00  0.00    -0.360 N
ATOM     17  H1  UNL     1      19.131 -29.345 -17.864  1.00  0.00     0.162 HD
HETATM   18  O1  UNL     1      17.672 -26.503 -17.293  1.00  0.00    -0.272 OA
BRANCH  16  19
HETATM   19  C2  UNL     1      20.161 -27.501 -18.134  1.00  0.00     0.118 C
HETATM   20  C1  UNL     1      20.255 -27.180 -19.591  1.00  0.00     0.026 C
ENDBRANCH  16  19
ENDBRANCH  14  15
ENDBRANCH   1  14
BRANCH  12  21
HETATM   21  N8  UNL     1      17.087 -29.116 -13.534  1.00  0.00    -0.264 N
ATOM     22  H8  UNL     1      17.503 -29.003 -12.609  1.00  0.00     0.189 HD
BRANCH  21  23
HETATM   23  C8  UNL     1      16.559 -30.368 -13.901  1.00  0.00     0.200 C
HETATM   24  N9  UNL     1      15.290 -30.752 -13.398  1.00  0.00    -0.068 NA
HETATM   25  S1  UNL     1      17.324 -31.415 -14.880  1.00  0.00    -0.043 SA
ENDBRANCH  21  23
ENDBRANCH  12  21
TORSDOF 5
ENDMDL