MODEL 4
REMARK VINA RESULT: -7.226606747      4.299      5.544
REMARK  7 active torsions:
REMARK  status: ('A' for Active; 'I' for Inactive)
REMARK    1  A    between atoms: C2_2  and  S1_3
REMARK    2  A    between atoms: S1_3  and  C3_4
REMARK    3  A    between atoms: C3_4  and  N2_6
REMARK    4  A    between atoms: N2_6  and  N3_8
REMARK       I    between atoms: N3_8  and  C4_10
REMARK    5  A    between atoms: C4_10  and  C5_12
REMARK       I    between atoms: C5_12  and  N4_14
REMARK    6  A    between atoms: N4_14  and  C6_16
REMARK    7  A    between atoms: C6_16  and  C7_17
REMARK       I    between atoms: C7_17  and  N5_19
ROOT
HETATM    1  C5  UNL     1      14.865 -27.573 -15.425  1.00  0.00     0.311 C
HETATM    2  O2  UNL     1      14.193 -27.109 -16.377  1.00  0.00    -0.262 OA
HETATM    3  N4  UNL     1      16.151 -27.017 -15.187  1.00  0.00    -0.344 N
ATOM      4  H4  UNL     1      16.730 -27.363 -14.422  1.00  0.00     0.163 HD
ENDROOT
BRANCH   1   5
HETATM    5  C4  UNL     1      14.331 -28.645 -14.602  1.00  0.00     0.327 C
HETATM    6  N3  UNL     1      15.106 -29.780 -14.339  1.00  0.00    -0.260 N
ATOM      7  H3  UNL     1      16.046 -29.858 -14.729  1.00  0.00     0.190 HD
HETATM    8  O1  UNL     1      13.180 -28.540 -14.136  1.00  0.00    -0.261 OA
BRANCH   6   9
HETATM    9  N2  UNL     1      14.592 -30.805 -13.544  1.00  0.00    -0.279 N
ATOM     10  H2  UNL     1      13.583 -30.832 -13.393  1.00  0.00     0.189 HD
BRANCH   9  11
HETATM   11  C3  UNL     1      15.380 -31.808 -12.935  1.00  0.00     0.168 C
HETATM   12  N1  UNL     1      14.768 -32.794 -12.140  1.00  0.00    -0.073 NA
BRANCH  11  13
HETATM   13  S1  UNL     1      16.987 -31.797 -13.159  1.00  0.00    -0.096 SA
BRANCH  13  14
HETATM   14  C2  UNL     1      17.756 -31.623 -14.826  1.00  0.00     0.077 C
HETATM   15  C1  UNL     1      18.128 -30.188 -15.077  1.00  0.00     0.016 C
ENDBRANCH  13  14
ENDBRANCH  11  13
ENDBRANCH   9  11
ENDBRANCH   6   9
ENDBRANCH   1   5
BRANCH   3  16
HETATM   16  C6  UNL     1      16.626 -25.963 -16.036  1.00  0.00     0.226 C
BRANCH  16  17
HETATM   17  C7  UNL     1      16.156 -24.664 -15.517  1.00  0.00     0.241 C
HETATM   18  O3  UNL     1      16.774 -23.615 -15.790  1.00  0.00    -0.271 OA
HETATM   19  N5  UNL     1      15.000 -24.634 -14.713  1.00  0.00    -0.302 N
HETATM   20  C8  UNL     1      15.080 -24.913 -13.467  1.00  0.00     0.203 C
ATOM     21  H5  UNL     1      14.099 -24.390 -15.124  1.00  0.00     0.171 HD
HETATM   22  N6  UNL     1      13.868 -24.862 -12.713  1.00  0.00    -0.066 NA
HETATM   23  N7  UNL     1      16.317 -25.249 -12.890  1.00  0.00    -0.066 NA
ENDBRANCH  16  17
ENDBRANCH   3  16
TORSDOF 7
ENDMDL