MODEL 2
REMARK VINA RESULT: -7.096821589      1.341      1.886
REMARK  4 active torsions:
REMARK  status: ('A' for Active; 'I' for Inactive)
REMARK       I    between atoms: C1_4  and  N3_6
REMARK    1  A    between atoms: N3_6  and  N4_8
REMARK       I    between atoms: N5_11  and  C4_12
REMARK       I    between atoms: C4_12  and  N6_14
REMARK    2  A    between atoms: N6_14  and  N7_16
REMARK    3  A    between atoms: N7_16  and  S1_18
REMARK    4  A    between atoms: S1_18  and  N8_19
ROOT
HETATM    1  N4  UNL     1      21.250 -27.622 -18.079  1.00  0.00    -0.226 NA
HETATM    2  C2  UNL     1      21.042 -28.058 -16.737  1.00  0.00     0.133 C
HETATM    3  C3  UNL     1      19.982 -27.167 -16.047  1.00  0.00     0.144 C
HETATM    4  N5  UNL     1      18.709 -27.356 -16.719  1.00  0.00    -0.331 N
HETATM    5  C4  UNL     1      17.442 -27.188 -16.146  1.00  0.00     0.337 C
HETATM    6  O1  UNL     1      16.417 -27.384 -16.824  1.00  0.00    -0.245 OA
HETATM    7  N6  UNL     1      17.285 -26.793 -14.768  1.00  0.00    -0.241 N
ATOM      8  H6  UNL     1      18.087 -26.614 -14.164  1.00  0.00     0.192 HD
HETATM    9  C5  UNL     1      18.837 -27.765 -18.125  1.00  0.00     0.144 C
HETATM   10  C6  UNL     1      20.048 -27.004 -18.636  1.00  0.00     0.133 C
ENDROOT
BRANCH   7  11
HETATM   11  N7  UNL     1      15.958 -26.668 -14.303  1.00  0.00    -0.206 N
ATOM     12  H7  UNL     1      15.286 -27.435 -14.261  1.00  0.00     0.201 HD
BRANCH  11  13
HETATM   13  S1  UNL     1      15.625 -25.058 -13.819  1.00  0.00     0.330 S
HETATM   14  O2  UNL     1      16.011 -24.787 -12.412  1.00  0.00    -0.181 OA
HETATM   15  O3  UNL     1      14.143 -24.722 -13.940  1.00  0.00    -0.181 OA
BRANCH  13  16
HETATM   16  N8  UNL     1      16.482 -23.980 -14.870  1.00  0.00    -0.310 N
ATOM     17  H82 UNL     1      17.208 -23.327 -14.573  1.00  0.00     0.170 HD
ATOM     18  H81 UNL     1      16.138 -24.114 -15.821  1.00  0.00     0.170 HD
ENDBRANCH  13  16
ENDBRANCH  11  13
ENDBRANCH   7  11
BRANCH   1  19
HETATM   19  N3  UNL     1      21.788 -28.510 -18.970  1.00  0.00    -0.293 N
HETATM   20  C1  UNL     1      22.802 -29.460 -18.731  1.00  0.00     0.196 C
HETATM   21  N1  UNL     1      22.633 -30.409 -17.821  1.00  0.00    -0.373 N
HETATM   22  N2  UNL     1      24.027 -29.483 -19.440  1.00  0.00    -0.063 NA
ATOM     23  H12 UNL     1      23.367 -31.096 -17.649  1.00  0.00     0.158 HD
ATOM     24  H11 UNL     1      21.751 -30.392 -17.310  1.00  0.00     0.158 HD
ATOM     25  H3  UNL     1      21.411 -28.483 -19.917  1.00  0.00     0.183 HD
ENDBRANCH   1  19
TORSDOF 4
ENDMDL