MODEL 2
REMARK VINA RESULT: -7.393466295      1.100      1.527
REMARK  5 active torsions:
REMARK  status: ('A' for Active; 'I' for Inactive)
REMARK    1  A    between atoms: C2_2  and  N1_5
REMARK       I    between atoms: N1_5  and  C5_7
REMARK       I    between atoms: C5_7  and  N2_9
REMARK    2  A    between atoms: N2_9  and  N3_11
REMARK       I    between atoms: N3_11  and  C6_13
REMARK    3  A    between atoms: C6_13  and  C7_15
REMARK    4  A    between atoms: C7_15  and  N4_16
REMARK       I    between atoms: C8_18  and  N6_20
REMARK       I    between atoms: N6_20  and  C9_22
REMARK    5  A    between atoms: C9_22  and  C10_24
ROOT
HETATM    1  N3  UNL     1      15.281 -27.469 -15.466  1.00  0.00    -0.265 N
ATOM      2  H3  UNL     1      15.371 -27.581 -16.476  1.00  0.00     0.190 HD
HETATM    3  C6  UNL     1      15.806 -26.293 -14.878  1.00  0.00     0.253 C
HETATM    4  O2  UNL     1      15.707 -26.130 -13.643  1.00  0.00    -0.270 OA
ENDROOT
BRANCH   3   5
HETATM    5  C7  UNL     1      16.463 -25.271 -15.722  1.00  0.00     0.226 C
BRANCH   5   6
HETATM    6  N4  UNL     1      17.857 -25.515 -15.923  1.00  0.00    -0.356 N
HETATM    7  C8  UNL     1      18.268 -26.405 -16.745  1.00  0.00     0.191 C
HETATM    8  N5  UNL     1      17.321 -27.175 -17.478  1.00  0.00    -0.063 NA
HETATM    9  N6  UNL     1      19.662 -26.638 -16.933  1.00  0.00    -0.293 N
HETATM   10  C9  UNL     1      20.118 -27.615 -17.836  1.00  0.00     0.312 C
ATOM     11  H6  UNL     1      20.339 -26.086 -16.405  1.00  0.00     0.172 HD
HETATM   12  O3  UNL     1      19.288 -28.294 -18.488  1.00  0.00    -0.262 OA
ATOM     13  H4  UNL     1      18.539 -24.968 -15.399  1.00  0.00     0.162 HD
BRANCH  10  14
HETATM   14  C10 UNL     1      21.550 -27.856 -18.032  1.00  0.00     0.322 C
HETATM   15  N7  UNL     1      22.254 -28.735 -17.197  1.00  0.00    -0.053 NA
HETATM   16  O4  UNL     1      22.162 -27.262 -18.969  1.00  0.00    -0.266 OA
ENDBRANCH  10  14
ENDBRANCH   5   6
ENDBRANCH   3   5
BRANCH   1  17
HETATM   17  N2  UNL     1      14.649 -28.479 -14.750  1.00  0.00    -0.249 N
HETATM   18  C5  UNL     1      15.359 -29.591 -14.213  1.00  0.00     0.335 C
HETATM   19  N1  UNL     1      14.747 -30.626 -13.486  1.00  0.00    -0.334 N
HETATM   20  O1  UNL     1      16.593 -29.631 -14.411  1.00  0.00    -0.246 OA
ATOM     21  H1  UNL     1      13.741 -30.606 -13.318  1.00  0.00     0.165 HD
ATOM     22  H2  UNL     1      13.641 -28.423 -14.603  1.00  0.00     0.192 HD
BRANCH  19  23
HETATM   23  C2  UNL     1      15.542 -31.716 -12.978  1.00  0.00     0.023 C
HETATM   24  C1  UNL     1      16.515 -32.131 -14.054  1.00  0.00     0.037 C
HETATM   25  C3  UNL     1      14.691 -32.893 -12.557  1.00  0.00     0.037 C
HETATM   26  C4  UNL     1      16.337 -31.225 -11.764  1.00  0.00     0.037 C
ENDBRANCH  19  23
ENDBRANCH   1  17
TORSDOF 5
ENDMDL