MODEL 2
REMARK VINA RESULT: -6.444293575      3.126      4.256
REMARK  5 active torsions:
REMARK  status: ('A' for Active; 'I' for Inactive)
REMARK       I    between atoms: C2_4  and  N2_5
REMARK       I    between atoms: C2_4  and  N3_11
REMARK    1  A    between atoms: N2_5  and  C3_7
REMARK    2  A    between atoms: C3_7  and  C4_8
REMARK    3  A    between atoms: N3_11  and  N4_13
REMARK       I    between atoms: N4_13  and  C5_15
REMARK    4  A    between atoms: N6_17  and  S1_19
REMARK    5  A    between atoms: S1_19  and  N7_20
ROOT
HETATM    1  C1  UNL     1      16.663 -30.946 -13.402  1.00  0.00     0.165 C
HETATM    2  N1  UNL     1      16.168 -30.441 -14.652  1.00  0.00    -0.229 N
ATOM      3  H1  UNL     1      15.270 -30.787 -14.990  1.00  0.00     0.177 HD
HETATM    4  C2  UNL     1      16.800 -29.569 -15.375  1.00  0.00     0.688 C
HETATM    5  N2  UNL     1      18.037 -29.102 -14.896  1.00  0.00    -0.215 N
ATOM      6  H2  UNL     1      18.022 -28.598 -14.009  1.00  0.00     0.178 HD
HETATM    7  N3  UNL     1      16.201 -29.160 -16.580  1.00  0.00    -0.130 N
ATOM      8  H3  UNL     1      16.523 -29.606 -17.439  1.00  0.00     0.205 HD
ENDROOT
BRANCH   7   9
HETATM    9  N4  UNL     1      15.196 -28.188 -16.693  1.00  0.00    -0.259 N
HETATM   10  C5  UNL     1      15.129 -26.997 -15.963  1.00  0.00     0.216 C
HETATM   11  N5  UNL     1      14.337 -25.918 -16.399  1.00  0.00    -0.061 NA
HETATM   12  N6  UNL     1      15.786 -26.842 -14.868  1.00  0.00    -0.264 N
ATOM     13  H6  UNL     1      16.365 -27.615 -14.539  1.00  0.00     0.180 HD
ATOM     14  H4  UNL     1      14.450 -28.365 -17.366  1.00  0.00     0.190 HD
BRANCH  12  15
HETATM   15  S1  UNL     1      15.742 -25.406 -13.932  1.00  0.00     0.175 S
HETATM   16  O3  UNL     1      16.613 -25.639 -12.714  1.00  0.00    -0.216 OA
HETATM   17  S2  UNL     1      14.177 -25.078 -13.406  1.00  0.00     0.052 SA
BRANCH  15  18
HETATM   18  N7  UNL     1      16.357 -24.045 -14.748  1.00  0.00    -0.336 N
ATOM     19  H72 UNL     1      16.393 -23.989 -15.766  1.00  0.00     0.168 HD
ATOM     20  H71 UNL     1      16.680 -23.307 -14.121  1.00  0.00     0.168 HD
ENDBRANCH  15  18
ENDBRANCH  12  15
ENDBRANCH   7   9
BRANCH   5  21
HETATM   21  C3  UNL     1      19.315 -29.258 -15.521  1.00  0.00     0.251 C
BRANCH  21  22
HETATM   22  C4  UNL     1      20.203 -28.110 -15.349  1.00  0.00     0.191 C
HETATM   23  O1  UNL     1      20.808 -27.800 -14.298  1.00  0.00    -0.647 OA
HETATM   24  O2  UNL     1      20.440 -27.231 -16.431  1.00  0.00    -0.647 OA
ENDBRANCH  21  22
ENDBRANCH   5  21
TORSDOF 5
ENDMDL