MODEL 5
REMARK VINA RESULT: -8.094228046      1.825      6.360
REMARK  13 active torsions:
REMARK  status: ('A' for Active; 'I' for Inactive)
REMARK       I    between atoms: C1_4  and  N3_6
REMARK    1  A    between atoms: N3_6  and  C2_8
REMARK    2  A    between atoms: C2_8  and  C3_9
REMARK    3  A    between atoms: C3_9  and  C4_10
REMARK    4  A    between atoms: C4_10  and  C5_11
REMARK    5  A    between atoms: C5_11  and  N4_12
REMARK    6  A    between atoms: N4_12  and  S1_14
REMARK    7  A    between atoms: S1_14  and  C6_17
REMARK    8  A    between atoms: C7_20  and  N6_21
REMARK    9  A    between atoms: N10_31  and  O4_32
REMARK   10  A    between atoms: N13_41  and  C14_42
REMARK   11  A    between atoms: C15_46  and  N15_47
REMARK   12  A    between atoms: C16_51  and  N16_52
REMARK   13  A    between atoms: C17_56  and  O5_57
ROOT
HETATM    1  C6  UNL     1      32.782  -2.135  14.558  1.00  0.00     0.180 A
HETATM    2  N5  UNL     1      32.244  -2.739  15.630  1.00  0.00    -0.327 N
ATOM      3  H5  UNL     1      32.266  -2.259  16.529  1.00  0.00     0.168 HD
HETATM    4  C7  UNL     1      31.674  -3.960  15.556  1.00  0.00     0.158 A
HETATM    5  C10 UNL     1      31.659  -4.583  14.322  1.00  0.00     0.121 A
HETATM    6  N11 UNL     1      31.061  -5.862  14.246  1.00  0.00    -0.096 NA
HETATM    7  C11 UNL     1      32.194  -4.025  13.169  1.00  0.00     0.095 A
HETATM    8  C12 UNL     1      32.767  -2.758  13.329  1.00  0.00     0.103 A
HETATM    9  N12 UNL     1      33.216  -2.416  12.100  1.00  0.00    -0.348 N
ATOM     10  H12 UNL     1      33.690  -1.546  11.860  1.00  0.00     0.167 HD
HETATM   11  C13 UNL     1      32.933  -3.412  11.251  1.00  0.00     0.186 A
HETATM   12  N13 UNL     1      32.305  -4.417  11.881  1.00  0.00    -0.308 N
ENDROOT
BRANCH  12  13
HETATM   13  C14 UNL     1      31.825  -5.668  11.354  1.00  0.00     0.325 C
HETATM   14  N14 UNL     1      32.728  -6.108  10.278  1.00  0.00    -0.020 N
HETATM   15  C15 UNL     1      31.990  -6.123   9.062  1.00  0.00     0.415 C
ATOM     16 2H14 UNL     1      33.576  -5.544  10.219  1.00  0.00     0.282 HD
ATOM     17 1H14 UNL     1      33.174  -7.004  10.479  1.00  0.00     0.282 HD
HETATM   18  C16 UNL     1      30.871  -5.108   9.285  1.00  0.00     0.273 C
HETATM   19  C17 UNL     1      30.486  -5.457  10.715  1.00  0.00     0.203 C
BRANCH  15  20
HETATM   20  N15 UNL     1      32.758  -5.818   7.885  1.00  0.00    -0.048 N
ATOM     21 3H15 UNL     1      33.148  -4.879   7.951  1.00  0.00     0.276 HD
ATOM     22 2H15 UNL     1      33.618  -6.367   7.873  1.00  0.00     0.276 HD
ATOM     23 1H15 UNL     1      32.256  -5.931   7.003  1.00  0.00     0.276 HD
ENDBRANCH  15  20
BRANCH  18  24
HETATM   24  N16 UNL     1      29.766  -5.346   8.376  1.00  0.00    -0.069 N
ATOM     25 3H16 UNL     1      29.322  -6.247   8.550  1.00  0.00     0.275 HD
ATOM     26 2H16 UNL     1      28.973  -4.738   8.580  1.00  0.00     0.275 HD
ATOM     27 1H16 UNL     1      30.067  -5.257   7.405  1.00  0.00     0.275 HD
ENDBRANCH  18  24
BRANCH  19  28
HETATM   28  O5  UNL     1      29.812  -6.673  10.669  1.00  0.00    -0.389 OA
ATOM     29  H5  UNL     1      30.151  -7.239  11.352  1.00  0.00     0.210 HD
ENDBRANCH  19  28
ENDBRANCH  12  13
BRANCH   4  30
HETATM   30  N6  UNL     1      31.101  -4.611  16.683  1.00  0.00    -0.202 N
HETATM   31  N7  UNL     1      31.718  -5.598  17.331  1.00  0.00    -0.231 N
HETATM   32  N8  UNL     1      30.980  -6.022  18.328  1.00  0.00    -0.264 N
ATOM     33  H7  UNL     1      32.635  -5.971  17.086  1.00  0.00     0.209 HD
HETATM   34  C8  UNL     1      29.832  -5.306  18.360  1.00  0.00     0.224 A
ATOM     35  H8  UNL     1      31.230  -6.770  18.974  1.00  0.00     0.190 HD
HETATM   36  C9  UNL     1      29.941  -4.422  17.306  1.00  0.00     0.202 A
HETATM   37  N10 UNL     1      28.647  -5.080  18.958  1.00  0.00    -0.079 N
HETATM   38  N9  UNL     1      28.826  -3.705  17.312  1.00  0.00    -0.218 N
HETATM   39  O3  UNL     1      28.090  -4.113  18.291  1.00  0.00    -0.125 OA
ATOM     40  H9  UNL     1      28.590  -2.959  16.657  1.00  0.00     0.199 HD
BRANCH  37  41
HETATM   41  O4  UNL     1      28.163  -5.763  20.061  1.00  0.00    -0.260 OA
ATOM     42  H4  UNL     1      28.343  -5.544  20.967  1.00  0.00     0.247 HD
ENDBRANCH  37  41
ENDBRANCH   4  30
BRANCH   1  43
HETATM   43  S1  UNL     1      33.506  -0.554  14.716  1.00  0.00     0.276 S
HETATM   44  O1  UNL     1      33.081   0.127  16.001  1.00  0.00    -0.199 OA
HETATM   45  O2  UNL     1      33.062   0.357  13.594  1.00  0.00    -0.199 OA
BRANCH  43  46
HETATM   46  N4  UNL     1      35.213  -0.608  14.711  1.00  0.00    -0.314 N
ATOM     47  H4  UNL     1      35.757  -1.300  15.225  1.00  0.00     0.172 HD
BRANCH  46  48
HETATM   48  C5  UNL     1      35.805   0.435  13.898  1.00  0.00     0.132 C
BRANCH  48  49
HETATM   49  C4  UNL     1      36.848  -0.221  13.003  1.00  0.00     0.022 C
BRANCH  49  50
HETATM   50  C3  UNL     1      36.470  -1.680  12.840  1.00  0.00     0.021 C
BRANCH  50  51
HETATM   51  C2  UNL     1      36.749  -2.088  11.391  1.00  0.00     0.122 C
BRANCH  51  52
HETATM   52  N3  UNL     1      36.424  -0.980  10.529  1.00  0.00    -0.365 N
HETATM   53  C1  UNL     1      35.301  -1.052   9.664  1.00  0.00     0.181 C
HETATM   54  N1  UNL     1      35.068  -2.101   8.983  1.00  0.00    -0.374 N
HETATM   55  N2  UNL     1      34.470   0.101   9.608  1.00  0.00    -0.064 NA
ATOM     56  H12 UNL     1      34.261  -2.153   8.362  1.00  0.00     0.158 HD
ATOM     57  H11 UNL     1      35.664  -2.927   9.023  1.00  0.00     0.158 HD
ATOM     58  H3  UNL     1      37.003  -0.140  10.540  1.00  0.00     0.162 HD
ENDBRANCH  51  52
ENDBRANCH  50  51
ENDBRANCH  49  50
ENDBRANCH  48  49
ENDBRANCH  46  48
ENDBRANCH  43  46
ENDBRANCH   1  43
TORSDOF 13
ENDMDL