MODEL 2
REMARK VINA RESULT: -7.921397108      1.951      2.324
REMARK  18 active torsions:
REMARK  status: ('A' for Active; 'I' for Inactive)
REMARK    1  A    between atoms: O1_2  and  C2_3
REMARK    2  A    between atoms: C3_4  and  N1_5
REMARK    3  A    between atoms: C4_9  and  O2_10
REMARK    4  A    between atoms: O2_10  and  C5_11
REMARK    5  A    between atoms: C6_12  and  N2_13
REMARK    6  A    between atoms: C9_19  and  N3_20
REMARK    7  A    between atoms: C10_24  and  O3_25
REMARK    8  A    between atoms: C11_27  and  N4_28
REMARK    9  A    between atoms: N4_28  and  C12_30
REMARK   10  A    between atoms: C12_30  and  O4_31
REMARK   11  A    between atoms: C12_30  and  C13_33
REMARK   12  A    between atoms: C13_33  and  N5_34
REMARK   13  A    between atoms: C13_33  and  C14_38
REMARK   14  A    between atoms: N9_45  and  C15_46
REMARK   15  A    between atoms: C19_51  and  O5_52
REMARK   16  A    between atoms: C20_54  and  C21_55
REMARK   17  A    between atoms: C21_55  and  O6_56
REMARK   18  A    between atoms: O6_56  and  C22_57
ROOT
HETATM    1  C15 UNL     1      30.746  -4.681  18.651  1.00  0.00     0.137 C
HETATM    2  C16 UNL     1      30.848  -4.694  20.199  1.00  0.00     0.057 C
HETATM    3  C17 UNL     1      31.213  -6.038  18.232  1.00  0.00     0.057 C
HETATM    4  C18 UNL     1      29.306  -4.469  18.406  1.00  0.00     0.092 C
HETATM    5  N10 UNL     1      28.176  -4.320  18.202  1.00  0.00    -0.195 NA
ENDROOT
BRANCH   1   6
HETATM    6  N9  UNL     1      31.562  -3.587  18.214  1.00  0.00    -0.238 N
HETATM    7  C14 UNL     1      32.038  -3.303  17.017  1.00  0.00     0.152 A
HETATM    8  N6  UNL     1      32.732  -2.158  17.093  1.00  0.00    -0.270 N
HETATM    9  N7  UNL     1      32.695  -1.720  18.328  1.00  0.00    -0.227 N
ATOM     10  H6  UNL     1      33.211  -1.702  16.317  1.00  0.00     0.190 HD
HETATM   11  N8  UNL     1      31.992  -2.583  18.998  1.00  0.00    -0.223 N
ATOM     12  H7  UNL     1      33.132  -0.873  18.690  1.00  0.00     0.210 HD
ATOM     13  H8  UNL     1      31.790  -2.508  19.995  1.00  0.00     0.210 HD
BRANCH   7  14
HETATM   14  C13 UNL     1      31.887  -4.012  15.712  1.00  0.00     0.301 C
BRANCH  14  15
HETATM   15  C12 UNL     1      32.470  -3.170  14.555  1.00  0.00     0.256 C
BRANCH  15  16
HETATM   16  N4  UNL     1      32.345  -3.820  13.317  1.00  0.00    -0.364 N
ATOM     17  H4  UNL     1      31.484  -4.325  13.109  1.00  0.00     0.162 HD
BRANCH  16  18
HETATM   18  C11 UNL     1      33.368  -3.799  12.356  1.00  0.00     0.045 C
HETATM   19  C4  UNL     1      33.070  -3.804  10.909  1.00  0.00     0.203 C
HETATM   20  C3  UNL     1      32.787  -2.383  10.474  1.00  0.00     0.247 C
HETATM   21  C2  UNL     1      34.115  -1.654  10.526  1.00  0.00     0.163 C
HETATM   22  C20 UNL     1      34.703  -1.667  11.891  1.00  0.00     0.076 C
HETATM   23  C19 UNL     1      34.493  -2.850  12.735  1.00  0.00     0.174 C
BRANCH  19  24
HETATM   24  O2  UNL     1      32.146  -4.699  10.540  1.00  0.00    -0.368 OA
BRANCH  24  25
HETATM   25  C5  UNL     1      32.335  -6.006  10.854  1.00  0.00     0.183 C
HETATM   26  C6  UNL     1      32.928  -6.864   9.767  1.00  0.00     0.215 C
HETATM   27  C7  UNL     1      32.886  -8.303  10.247  1.00  0.00     0.037 C
HETATM   28  C8  UNL     1      31.493  -8.843  10.317  1.00  0.00     0.037 C
HETATM   29  C9  UNL     1      30.545  -7.690  10.379  1.00  0.00     0.214 C
HETATM   30  C10 UNL     1      31.103  -6.656  11.349  1.00  0.00     0.179 C
BRANCH  26  31
HETATM   31  N2  UNL     1      34.347  -6.601   9.577  1.00  0.00    -0.072 N
ATOM     32  H23 UNL     1      34.655  -5.807  10.140  1.00  0.00     0.274 HD
ATOM     33  H22 UNL     1      34.919  -7.331  10.002  1.00  0.00     0.274 HD
ATOM     34  H21 UNL     1      34.584  -6.471   8.594  1.00  0.00     0.274 HD
ENDBRANCH  26  31
BRANCH  29  35
HETATM   35  N3  UNL     1      29.263  -8.162  10.787  1.00  0.00    -0.072 N
ATOM     36  H33 UNL     1      29.302  -8.677  11.666  1.00  0.00     0.274 HD
ATOM     37  H32 UNL     1      28.650  -7.407  11.091  1.00  0.00     0.274 HD
ATOM     38  H31 UNL     1      28.856  -8.714  10.031  1.00  0.00     0.274 HD
ENDBRANCH  29  35
BRANCH  30  39
HETATM   39  O3  UNL     1      31.457  -7.419  12.496  1.00  0.00    -0.391 OA
ATOM     40  H3  UNL     1      31.228  -6.904  13.261  1.00  0.00     0.210 HD
ENDBRANCH  30  39
ENDBRANCH  24  25
ENDBRANCH  19  24
BRANCH  20  41
HETATM   41  N1  UNL     1      31.855  -1.676  11.289  1.00  0.00    -0.070 N
ATOM     42  H13 UNL     1      32.183  -1.557  12.247  1.00  0.00     0.274 HD
ATOM     43  H12 UNL     1      31.788  -0.689  11.042  1.00  0.00     0.274 HD
ATOM     44  H11 UNL     1      30.957  -2.156  11.238  1.00  0.00     0.274 HD
ENDBRANCH  20  41
BRANCH  21  45
HETATM   45  O1  UNL     1      34.026  -0.342  10.060  1.00  0.00    -0.388 OA
HETATM   46  C1  UNL     1      34.453  -0.225   8.752  1.00  0.00     0.202 C
ENDBRANCH  21  45
BRANCH  22  47
HETATM   47  C21 UNL     1      34.416  -0.351  12.612  1.00  0.00     0.190 C
BRANCH  47  48
HETATM   48  O6  UNL     1      34.447  -0.520  14.011  1.00  0.00    -0.306 OA
BRANCH  48  49
HETATM   49  C22 UNL     1      34.116   0.550  14.812  1.00  0.00     0.372 C
HETATM   50  N11 UNL     1      33.325   0.449  15.981  1.00  0.00    -0.032 NA
HETATM   51  O7  UNL     1      34.531   1.722  14.512  1.00  0.00    -0.242 OA
ENDBRANCH  48  49
ENDBRANCH  47  48
ENDBRANCH  22  47
BRANCH  23  52
HETATM   52  O5  UNL     1      35.671  -3.555  12.983  1.00  0.00    -0.389 OA
ATOM     53  H5  UNL     1      36.359  -2.967  13.273  1.00  0.00     0.210 HD
ENDBRANCH  23  52
ENDBRANCH  16  18
ENDBRANCH  15  16
BRANCH  15  54
HETATM   54  O4  UNL     1      31.822  -1.926  14.591  1.00  0.00    -0.374 OA
ATOM     55  H4  UNL     1      32.341  -1.248  15.006  1.00  0.00     0.212 HD
ENDBRANCH  15  54
ENDBRANCH  14  15
BRANCH  14  56
HETATM   56  N5  UNL     1      30.429  -4.102  15.521  1.00  0.00    -0.064 N
ATOM     57  H53 UNL     1      29.976  -3.189  15.508  1.00  0.00     0.275 HD
ATOM     58  H52 UNL     1      30.173  -4.395  14.578  1.00  0.00     0.275 HD
ATOM     59  H51 UNL     1      30.054  -4.718  16.242  1.00  0.00     0.275 HD
ENDBRANCH  14  56
ENDBRANCH   7  14
ENDBRANCH   1   6
TORSDOF 18
ENDMDL