MODEL 3
REMARK VINA RESULT: -8.709533666      0.656      2.369
REMARK  15 active torsions:
REMARK  status: ('A' for Active; 'I' for Inactive)
REMARK    1  A    between atoms: N1_2  and  C2_4
REMARK    2  A    between atoms: C7_14  and  C8_15
REMARK    3  A    between atoms: C8_15  and  N5_16
REMARK    4  A    between atoms: C8_15  and  N6_20
REMARK    5  A    between atoms: C9_24  and  N7_25
REMARK       I    between atoms: N7_25  and  C10_27
REMARK    6  A    between atoms: C10_27  and  C11_29
REMARK    7  A    between atoms: C11_29  and  C12_31
REMARK    8  A    between atoms: C12_31  and  O7_52
REMARK    9  A    between atoms: C13_32  and  C14_33
REMARK   10  A    between atoms: C15_35  and  O4_36
REMARK   11  A    between atoms: O4_36  and  N8_37
REMARK   12  A    between atoms: N9_39  and  N10_41
REMARK   13  A    between atoms: C17_46  and  O5_47
REMARK   14  A    between atoms: C18_49  and  O6_50
REMARK   15  A    between atoms: O7_52  and  C19_53
ROOT
HETATM    1  N7  UNL     1      33.581  -3.284  11.868  1.00  0.00    -0.316 N
ATOM      2  H7  UNL     1      33.957  -4.232  11.836  1.00  0.00     0.169 HD
HETATM    3  C10 UNL     1      32.568  -3.023  12.816  1.00  0.00     0.299 C
HETATM    4  O1  UNL     1      32.075  -1.877  12.902  1.00  0.00    -0.264 OA
ENDROOT
BRANCH   3   5
HETATM    5  C11 UNL     1      32.074  -4.057  13.706  1.00  0.00     0.272 C
HETATM    6  O2  UNL     1      31.653  -5.114  13.148  1.00  0.00    -0.279 OA
BRANCH   5   7
HETATM    7  C12 UNL     1      32.051  -3.928  15.156  1.00  0.00     0.133 C
HETATM    8  C13 UNL     1      30.965  -4.248  15.805  1.00  0.00     0.049 C
BRANCH   8   9
HETATM    9  C14 UNL     1      30.903  -4.132  17.274  1.00  0.00     0.182 C
HETATM   10  O3  UNL     1      31.118  -5.350  17.908  1.00  0.00    -0.344 OA
HETATM   11  C15 UNL     1      29.911  -5.726  18.478  1.00  0.00     0.322 C
HETATM   12  C17 UNL     1      29.271  -4.447  18.925  1.00  0.00     0.207 C
HETATM   13  C18 UNL     1      29.610  -3.549  17.755  1.00  0.00     0.184 C
BRANCH  11  14
HETATM   14  O4  UNL     1      29.986  -6.738  19.419  1.00  0.00    -0.228 OA
BRANCH  14  15
HETATM   15  N8  UNL     1      30.067  -6.559  20.773  1.00  0.00    -0.190 N
HETATM   16  N9  UNL     1      29.143  -6.540  21.597  1.00  0.00    -0.221 N
ATOM     17  H9  UNL     1      29.435  -6.393  22.564  1.00  0.00     0.210 HD
ATOM     18  H8  UNL     1      31.005  -6.426  21.151  1.00  0.00     0.217 HD
BRANCH  16  19
HETATM   19  N10 UNL     1      27.795  -6.685  21.423  1.00  0.00    -0.260 N
HETATM   20  C16 UNL     1      26.888  -5.800  21.406  1.00  0.00     0.216 C
HETATM   21  N11 UNL     1      25.546  -6.255  21.201  1.00  0.00    -0.065 NA
HETATM   22  N12 UNL     1      27.099  -4.416  21.572  1.00  0.00    -0.065 NA
ATOM     23  H10 UNL     1      27.473  -7.643  21.288  1.00  0.00     0.191 HD
ENDBRANCH  16  19
ENDBRANCH  14  15
ENDBRANCH  11  14
BRANCH  12  24
HETATM   24  O5  UNL     1      29.907  -3.895  20.039  1.00  0.00    -0.388 OA
ATOM     25  H5  UNL     1      30.337  -3.072  19.839  1.00  0.00     0.210 HD
ENDBRANCH  12  24
BRANCH  13  26
HETATM   26  O6  UNL     1      28.647  -3.761  16.775  1.00  0.00    -0.390 OA
ATOM     27  H6  UNL     1      28.393  -2.918  16.419  1.00  0.00     0.210 HD
ENDBRANCH  13  26
ENDBRANCH   8   9
BRANCH   7  28
HETATM   28  O7  UNL     1      33.155  -3.472  15.845  1.00  0.00    -0.275 OA
BRANCH  28  29
HETATM   29  C19 UNL     1      33.562  -2.152  15.851  1.00  0.00     0.260 C
HETATM   30  C20 UNL     1      32.726  -1.065  16.415  1.00  0.00     0.126 C
HETATM   31  O8  UNL     1      34.674  -1.850  15.368  1.00  0.00    -0.265 OA
ENDBRANCH  28  29
ENDBRANCH   7  28
ENDBRANCH   5   7
ENDBRANCH   3   5
BRANCH   1  32
HETATM   32  C9  UNL     1      34.119  -2.341  10.956  1.00  0.00     0.092 A
HETATM   33  C2  UNL     1      35.278  -1.639  11.305  1.00  0.00     0.130 A
HETATM   34  N2  UNL     1      35.816  -0.753  10.450  1.00  0.00    -0.325 N
HETATM   35  C3  UNL     1      35.280  -0.499   9.240  1.00  0.00     0.137 A
ATOM     36  H2  UNL     1      36.661  -0.254  10.728  1.00  0.00     0.169 HD
HETATM   37  C4  UNL     1      34.143  -1.189   8.901  1.00  0.00     0.090 A
HETATM   38  N4  UNL     1      35.648   0.343   8.231  1.00  0.00    -0.332 N
HETATM   39  N3  UNL     1      33.817  -0.750   7.650  1.00  0.00    -0.349 N
HETATM   40  C7  UNL     1      33.529  -2.122   9.734  1.00  0.00     0.060 A
HETATM   41  C5  UNL     1      34.728   0.162   7.271  1.00  0.00     0.184 A
ATOM     42  H3  UNL     1      33.018  -1.061   7.097  1.00  0.00     0.167 HD
HETATM   43  C6  UNL     1      36.793   1.207   8.268  1.00  0.00     0.158 C
BRANCH  33  44
HETATM   44  N1  UNL     1      35.782  -1.891  12.465  1.00  0.00    -0.379 N
HETATM   45  C1  UNL     1      36.971  -1.273  12.970  1.00  0.00     0.147 C
ATOM     46  H1  UNL     1      35.305  -2.570  13.058  1.00  0.00     0.160 HD
ENDBRANCH  33  44
BRANCH  40  47
HETATM   47  C8  UNL     1      32.332  -2.808   9.225  1.00  0.00     0.416 C
BRANCH  47  48
HETATM   48  N5  UNL     1      31.100  -2.492   9.860  1.00  0.00    -0.046 N
ATOM     49  H53 UNL     1      30.587  -3.351  10.060  1.00  0.00     0.277 HD
ATOM     50  H52 UNL     1      31.278  -2.156  10.807  1.00  0.00     0.277 HD
ATOM     51  H51 UNL     1      30.491  -1.834   9.372  1.00  0.00     0.277 HD
ENDBRANCH  47  48
BRANCH  47  52
HETATM   52  N6  UNL     1      32.552  -4.248   9.359  1.00  0.00    -0.046 N
ATOM     53  H63 UNL     1      33.539  -4.493   9.436  1.00  0.00     0.277 HD
ATOM     54  H62 UNL     1      32.252  -4.613  10.263  1.00  0.00     0.277 HD
ATOM     55  H61 UNL     1      32.091  -4.708   8.573  1.00  0.00     0.277 HD
ENDBRANCH  47  52
ENDBRANCH  40  47
ENDBRANCH   1  32
TORSDOF 15
ENDMDL