MODEL 3
REMARK VINA RESULT: -9.173426805      0.953      1.578
REMARK  13 active torsions:
REMARK  status: ('A' for Active; 'I' for Inactive)
REMARK    1  A    between atoms: N4_13  and  C5_14
REMARK    2  A    between atoms: C5_14  and  C6_15
REMARK    3  A    between atoms: C6_15  and  N5_16
REMARK    4  A    between atoms: C6_15  and  C8_21
REMARK    5  A    between atoms: C8_21  and  N8_22
REMARK    6  A    between atoms: C8_21  and  C9_26
REMARK    7  A    between atoms: C9_26  and  O3_28
REMARK    8  A    between atoms: O3_28  and  C10_29
REMARK    9  A    between atoms: C10_29  and  N9_30
REMARK   10  A    between atoms: C10_29  and  C11_34
REMARK   11  A    between atoms: C11_34  and  O4_35
REMARK   12  A    between atoms: C12_39  and  C13_40
REMARK   13  A    between atoms: C14_45  and  C15_46
ROOT
HETATM    1  C8  UNL     1      33.304  -3.457  13.602  1.00  0.00     0.306 C
ENDROOT
BRANCH   1   2
HETATM    2  C6  UNL     1      33.933  -2.171  13.131  1.00  0.00     0.144 C
BRANCH   2   3
HETATM    3  C5  UNL     1      35.293  -2.390  12.515  1.00  0.00     0.180 C
BRANCH   3   4
HETATM    4  N4  UNL     1      35.551  -1.541  11.389  1.00  0.00    -0.254 N
HETATM    5  C4  UNL     1      34.772  -1.650  10.275  1.00  0.00     0.289 A
HETATM    6  C3  UNL     1      34.983  -0.850   9.172  1.00  0.00     0.118 A
HETATM    7  O1  UNL     1      33.845  -2.491  10.247  1.00  0.00    -0.264 OA
HETATM    8  N3  UNL     1      34.214  -0.956   8.071  1.00  0.00    -0.347 N
HETATM    9  C17 UNL     1      36.003   0.081   9.193  1.00  0.00     0.057 A
HETATM   10  C2  UNL     1      34.467  -0.148   7.024  1.00  0.00     0.182 A
ATOM     11  H3  UNL     1      33.454  -1.636   8.032  1.00  0.00     0.167 HD
HETATM   12  N2  UNL     1      35.460   0.769   7.025  1.00  0.00    -0.338 N
HETATM   13  C1  UNL     1      36.240   0.894   8.109  1.00  0.00     0.114 A
ATOM     14  H2  UNL     1      35.616   1.360   6.208  1.00  0.00     0.168 HD
HETATM   15  N1  UNL     1      37.188   1.769   8.112  1.00  0.00    -0.385 N
ATOM     16  H12 UNL     1      37.364   2.372   7.309  1.00  0.00     0.157 HD
ATOM     17  H11 UNL     1      37.780   1.864   8.937  1.00  0.00     0.157 HD
HETATM   18  C16 UNL     1      36.760   0.164  10.317  1.00  0.00     0.125 A
HETATM   19  N11 UNL     1      36.493  -0.652  11.353  1.00  0.00    -0.306 N
ATOM     20  H11 UNL     1      37.082  -0.563  12.181  1.00  0.00     0.186 HD
ENDBRANCH   3   4
ENDBRANCH   2   3
BRANCH   2  21
HETATM   21  N5  UNL     1      34.103  -1.258  14.262  1.00  0.00    -0.358 N
HETATM   22  C7  UNL     1      33.691  -0.047  14.187  1.00  0.00     0.197 C
HETATM   23  N6  UNL     1      33.069   0.415  13.007  1.00  0.00    -0.067 NA
HETATM   24  N7  UNL     1      33.866   0.813  15.294  1.00  0.00    -0.067 NA
ATOM     25  H5  UNL     1      34.552  -1.588  15.117  1.00  0.00     0.162 HD
ENDBRANCH   2  21
ENDBRANCH   1   2
BRANCH   1  26
HETATM   26  N8  UNL     1      32.313  -3.849  12.565  1.00  0.00    -0.064 N
ATOM     27  H83 UNL     1      31.709  -3.081  12.274  1.00  0.00     0.275 HD
ATOM     28  H82 UNL     1      32.734  -4.032  11.654  1.00  0.00     0.275 HD
ATOM     29  H81 UNL     1      31.800  -4.646  12.940  1.00  0.00     0.275 HD
ENDBRANCH   1  26
BRANCH   1  30
HETATM   30  C9  UNL     1      32.532  -3.342  14.838  1.00  0.00     0.293 C
HETATM   31  O2  UNL     1      31.422  -2.697  14.773  1.00  0.00    -0.263 OA
BRANCH  30  32
HETATM   32  O3  UNL     1      32.811  -3.825  16.083  1.00  0.00    -0.282 OA
BRANCH  32  33
HETATM   33  C10 UNL     1      32.060  -4.859  16.717  1.00  0.00     0.376 C
BRANCH  33  34
HETATM   34  N9  UNL     1      31.400  -5.589  15.655  1.00  0.00    -0.048 N
ATOM     35  H93 UNL     1      30.534  -5.152  15.340  1.00  0.00     0.277 HD
ATOM     36  H92 UNL     1      31.894  -5.542  14.764  1.00  0.00     0.277 HD
ATOM     37  H91 UNL     1      31.273  -6.540  15.999  1.00  0.00     0.277 HD
ENDBRANCH  33  34
BRANCH  33  38
HETATM   38  C11 UNL     1      31.177  -4.353  17.792  1.00  0.00     0.198 C
HETATM   39  S1  UNL     1      31.945  -2.747  18.384  1.00  0.00    -0.045 SA
HETATM   40  S2  UNL     1      31.085  -2.480  20.364  1.00  0.00    -0.030 SA
HETATM   41  C12 UNL     1      29.695  -3.591  20.329  1.00  0.00     0.155 C
HETATM   42  N10 UNL     1      29.819  -4.692  19.722  1.00  0.00    -0.361 N
HETATM   43  C14 UNL     1      31.032  -5.158  19.027  1.00  0.00     0.234 C
ATOM     44  H10 UNL     1      29.010  -5.313  19.713  1.00  0.00     0.161 HD
BRANCH  38  45
HETATM   45  O4  UNL     1      29.922  -3.972  17.332  1.00  0.00    -0.372 OA
ATOM     46  H4  UNL     1      29.426  -3.475  17.972  1.00  0.00     0.212 HD
ENDBRANCH  38  45
BRANCH  41  47
HETATM   47  C13 UNL     1      28.470  -3.219  20.984  1.00  0.00     0.234 C
HETATM   48  O5  UNL     1      28.342  -2.080  21.546  1.00  0.00    -0.642 OA
HETATM   49  O6  UNL     1      27.358  -4.046  21.055  1.00  0.00    -0.642 OA
ENDBRANCH  41  47
BRANCH  43  50
HETATM   50  C15 UNL     1      30.875  -6.607  18.868  1.00  0.00     0.200 C
HETATM   51  O7  UNL     1      29.905  -7.105  18.268  1.00  0.00    -0.646 OA
HETATM   52  O8  UNL     1      31.827  -7.460  19.399  1.00  0.00    -0.646 OA
ENDBRANCH  43  50
ENDBRANCH  33  38
ENDBRANCH  32  33
ENDBRANCH  30  32
ENDBRANCH   1  30
TORSDOF 13
ENDMDL