MODEL 4
REMARK VINA RESULT: -9.145743046      1.927      2.220
REMARK  14 active torsions:
REMARK  status: ('A' for Active; 'I' for Inactive)
REMARK    1  A    between atoms: N1_1  and  N2_4
REMARK       I    between atoms: N2_4  and  C1_6
REMARK    2  A    between atoms: C1_6  and  C2_8
REMARK    3  A    between atoms: C2_8  and  O2_9
REMARK    4  A    between atoms: C3_11  and  C4_12
REMARK    5  A    between atoms: C4_12  and  O3_13
REMARK    6  A    between atoms: C5_16  and  N3_17
REMARK    7  A    between atoms: C6_18  and  O5_19
REMARK    8  A    between atoms: C7_21  and  O6_22
REMARK    9  A    between atoms: O6_22  and  C8_23
REMARK   10  A    between atoms: C8_23  and  C9_24
REMARK   11  A    between atoms: N4_26  and  C11_27
REMARK   12  A    between atoms: C14_30  and  O7_31
REMARK   13  A    between atoms: C21_48  and  O9_49
REMARK   14  A    between atoms: C21_48  and  C22_51
ROOT
HETATM    1  N3  UNL     1      33.323  -2.222  11.611  1.00  0.00    -0.279 N
HETATM    2  C6  UNL     1      32.944  -2.179  12.900  1.00  0.00     0.181 A
HETATM    3  C7  UNL     1      33.926  -1.533  13.615  1.00  0.00     0.140 A
HETATM    4  C17 UNL     1      34.915  -1.180  12.744  1.00  0.00     0.114 A
HETATM    5  C18 UNL     1      36.131  -0.510  12.932  1.00  0.00     0.263 A
HETATM    6  O8  UNL     1      36.470  -0.119  14.079  1.00  0.00    -0.267 OA
HETATM    7  N7  UNL     1      36.887  -0.316  11.855  1.00  0.00    -0.319 N
ATOM      8  H7  UNL     1      37.780   0.168  11.954  1.00  0.00     0.169 HD
HETATM    9  C19 UNL     1      36.508  -0.739  10.646  1.00  0.00     0.184 A
HETATM   10  N8  UNL     1      35.348  -1.380  10.455  1.00  0.00    -0.337 N
ATOM     11  H8  UNL     1      35.085  -1.691   9.520  1.00  0.00     0.168 HD
HETATM   12  C20 UNL     1      34.533  -1.612  11.493  1.00  0.00     0.131 A
ENDROOT
BRANCH   1  13
HETATM   13  C5  UNL     1      32.616  -2.794  10.513  1.00  0.00     0.279 C
HETATM   14  O4  UNL     1      31.252  -2.498  10.594  1.00  0.00    -0.351 OA
HETATM   15  C3  UNL     1      30.611  -3.339   9.718  1.00  0.00     0.195 C
HETATM   16  C2  UNL     1      31.423  -4.583   9.582  1.00  0.00     0.212 C
HETATM   17  C21 UNL     1      32.616  -4.300  10.494  1.00  0.00     0.223 C
BRANCH  15  18
HETATM   18  C4  UNL     1      30.251  -2.698   8.402  1.00  0.00     0.199 C
BRANCH  18  19
HETATM   19  O3  UNL     1      31.203  -1.833   7.919  1.00  0.00    -0.398 OA
ATOM     20  H3  UNL     1      31.212  -0.986   8.349  1.00  0.00     0.209 HD
ENDBRANCH  18  19
ENDBRANCH  15  18
BRANCH  16  21
HETATM   21  C1  UNL     1      30.697  -5.814   9.955  1.00  0.00     0.276 C
HETATM   22  N2  UNL     1      31.103  -7.111   9.640  1.00  0.00    -0.274 N
ATOM     23  H2  UNL     1      31.964  -7.257   9.114  1.00  0.00     0.189 HD
HETATM   24  O1  UNL     1      29.614  -5.653  10.618  1.00  0.00    -0.268 OA
BRANCH  22  25
HETATM   25  N1  UNL     1      30.345  -8.205  10.037  1.00  0.00    -0.343 N
ATOM     26  H12 UNL     1      29.759  -8.119  10.867  1.00  0.00     0.176 HD
ATOM     27  H11 UNL     1      30.375  -9.077   9.507  1.00  0.00     0.176 HD
ENDBRANCH  22  25
ENDBRANCH  16  21
BRANCH  16  28
HETATM   28  O2  UNL     1      31.900  -4.650   8.257  1.00  0.00    -0.375 OA
ATOM     29  H2  UNL     1      32.273  -3.821   7.982  1.00  0.00     0.211 HD
ENDBRANCH  16  28
BRANCH  17  30
HETATM   30  O9  UNL     1      32.434  -4.858  11.735  1.00  0.00    -0.374 OA
ATOM     31  H9  UNL     1      33.140  -4.619  12.325  1.00  0.00     0.211 HD
ENDBRANCH  17  30
BRANCH  17  32
HETATM   32  C22 UNL     1      33.863  -4.846   9.895  1.00  0.00     0.274 C
HETATM   33  N9  UNL     1      34.807  -4.070   9.189  1.00  0.00    -0.059 NA
HETATM   34  O10 UNL     1      34.123  -6.080  10.005  1.00  0.00    -0.273 OA
ENDBRANCH  17  32
ENDBRANCH   1  13
BRANCH   2  35
HETATM   35  O5  UNL     1      31.744  -2.709  13.417  1.00  0.00    -0.344 OA
ATOM     36  H5  UNL     1      31.637  -3.090  14.280  1.00  0.00     0.219 HD
ENDBRANCH   2  35
BRANCH   3  37
HETATM   37  O6  UNL     1      33.896  -1.299  14.959  1.00  0.00    -0.340 OA
BRANCH  37  38
HETATM   38  C8  UNL     1      34.267  -2.204  15.957  1.00  0.00     0.236 C
BRANCH  38  39
HETATM   39  C9  UNL     1      33.034  -2.873  16.458  1.00  0.00     0.069 A
HETATM   40  C10 UNL     1      32.203  -2.445  17.470  1.00  0.00     0.146 A
HETATM   41  N4  UNL     1      31.197  -3.323  17.625  1.00  0.00    -0.251 N
HETATM   42  N5  UNL     1      31.388  -4.277  16.737  1.00  0.00    -0.236 N
HETATM   43  N6  UNL     1      32.476  -4.022  16.037  1.00  0.00    -0.286 N
ATOM     44  H5  UNL     1      30.785  -5.091  16.610  1.00  0.00     0.209 HD
ATOM     45  H6  UNL     1      32.841  -4.609  15.288  1.00  0.00     0.188 HD
BRANCH  41  46
HETATM   46  C11 UNL     1      30.126  -3.225  18.580  1.00  0.00     0.057 A
HETATM   47  C12 UNL     1      28.914  -3.803  18.309  1.00  0.00     0.034 A
HETATM   48  C13 UNL     1      27.892  -3.700  19.237  1.00  0.00     0.039 A
HETATM   49  C14 UNL     1      28.063  -3.030  20.432  1.00  0.00     0.065 A
HETATM   50  C15 UNL     1      29.302  -2.466  20.660  1.00  0.00     0.039 A
HETATM   51  C16 UNL     1      30.333  -2.559  19.743  1.00  0.00     0.034 A
BRANCH  49  52
HETATM   52  O7  UNL     1      27.048  -2.917  21.380  1.00  0.00    -0.361 OA
ATOM     53  H7  UNL     1      27.157  -2.433  22.191  1.00  0.00     0.217 HD
ENDBRANCH  49  52
ENDBRANCH  41  46
ENDBRANCH  38  39
ENDBRANCH  37  38
ENDBRANCH   3  37
TORSDOF 14
ENDMDL