MODEL 1
REMARK VINA RESULT: -7.968142560      0.000      0.000
REMARK  18 active torsions:
REMARK  status: ('A' for Active; 'I' for Inactive)
REMARK    1  A    between atoms: O1_2  and  C2_3
REMARK    2  A    between atoms: C3_4  and  O2_5
REMARK    3  A    between atoms: O2_5  and  C4_6
REMARK    4  A    between atoms: C5_8  and  O4_9
REMARK    5  A    between atoms: O4_9  and  C6_10
REMARK    6  A    between atoms: C7_12  and  C8_13
REMARK    7  A    between atoms: C8_13  and  N1_14
REMARK    8  A    between atoms: C9_18  and  O6_19
REMARK    9  A    between atoms: C11_22  and  N2_23
REMARK   10  A    between atoms: C12_27  and  N3_28
REMARK   11  A    between atoms: C14_33  and  N4_34
REMARK   12  A    between atoms: C15_38  and  N5_39
REMARK   13  A    between atoms: C17_44  and  N6_45
REMARK   14  A    between atoms: C18_49  and  O7_50
REMARK   15  A    between atoms: O7_50  and  C19_51
REMARK   16  A    between atoms: C20_53  and  C21_54
REMARK   17  A    between atoms: C21_54  and  N7_55
REMARK   18  A    between atoms: C23_60  and  O9_61
ROOT
HETATM    1  C4  UNL     1      32.457  -2.338  13.908  1.00  0.00     0.294 C
HETATM    2  O3  UNL     1      32.342  -3.465  14.737  1.00  0.00    -0.327 OA
HETATM    3  C5  UNL     1      32.033  -3.024  16.048  1.00  0.00     0.296 C
HETATM    4  C12 UNL     1      33.188  -2.228  16.616  1.00  0.00     0.240 C
HETATM    5  C13 UNL     1      34.268  -2.012  15.581  1.00  0.00     0.075 C
HETATM    6  C14 UNL     1      33.585  -1.451  14.338  1.00  0.00     0.240 C
ENDROOT
BRANCH   1   7
HETATM    7  O2  UNL     1      32.488  -2.590  12.599  1.00  0.00    -0.349 OA
BRANCH   7   8
HETATM    8  C3  UNL     1      33.399  -3.427  12.045  1.00  0.00     0.186 C
HETATM    9  C2  UNL     1      32.735  -4.104  10.906  1.00  0.00     0.183 C
HETATM   10  C18 UNL     1      33.555  -4.092   9.626  1.00  0.00     0.186 C
HETATM   11  C17 UNL     1      33.969  -2.686   9.384  1.00  0.00     0.217 C
HETATM   12  C16 UNL     1      35.028  -2.371  10.405  1.00  0.00     0.071 C
HETATM   13  C15 UNL     1      34.737  -2.833  11.773  1.00  0.00     0.217 C
BRANCH   9  14
HETATM   14  O1  UNL     1      31.484  -3.601  10.563  1.00  0.00    -0.385 OA
HETATM   15  C1  UNL     1      30.670  -4.573   9.979  1.00  0.00     0.202 C
ENDBRANCH   9  14
BRANCH  10  16
HETATM   16  O7  UNL     1      34.571  -4.991   9.724  1.00  0.00    -0.349 OA
BRANCH  16  17
HETATM   17  C19 UNL     1      34.758  -5.794   8.626  1.00  0.00     0.289 C
HETATM   18  O8  UNL     1      35.881  -6.601   8.779  1.00  0.00    -0.352 OA
HETATM   19  C20 UNL     1      35.799  -7.581   7.814  1.00  0.00     0.152 C
HETATM   20  C22 UNL     1      34.356  -7.794   7.475  1.00  0.00     0.070 C
HETATM   21  C23 UNL     1      33.666  -6.821   8.441  1.00  0.00     0.175 C
BRANCH  19  22
HETATM   22  C21 UNL     1      36.563  -7.100   6.599  1.00  0.00     0.261 C
BRANCH  22  23
HETATM   23  N7  UNL     1      37.915  -6.796   6.999  1.00  0.00    -0.077 N
ATOM     24  H73 UNL     1      38.424  -7.621   7.318  1.00  0.00     0.274 HD
ATOM     25  H72 UNL     1      38.514  -6.559   6.209  1.00  0.00     0.274 HD
ATOM     26  H71 UNL     1      37.886  -6.059   7.703  1.00  0.00     0.274 HD
ENDBRANCH  22  23
ENDBRANCH  19  22
BRANCH  21  27
HETATM   27  O9  UNL     1      33.442  -7.550   9.613  1.00  0.00    -0.391 OA
ATOM     28  H9  UNL     1      32.514  -7.657   9.785  1.00  0.00     0.210 HD
ENDBRANCH  21  27
ENDBRANCH  16  17
ENDBRANCH  10  16
BRANCH  11  29
HETATM   29  N6  UNL     1      32.856  -1.777   9.431  1.00  0.00    -0.072 N
ATOM     30  H63 UNL     1      32.829  -1.193   8.595  1.00  0.00     0.274 HD
ATOM     31  H62 UNL     1      31.974  -2.274   9.315  1.00  0.00     0.274 HD
ATOM     32  H61 UNL     1      32.845  -1.205  10.276  1.00  0.00     0.274 HD
ENDBRANCH  11  29
BRANCH  13  33
HETATM   33  N5  UNL     1      35.809  -3.737  12.149  1.00  0.00    -0.072 N
ATOM     34  H53 UNL     1      36.478  -3.283  12.771  1.00  0.00     0.274 HD
ATOM     35  H52 UNL     1      35.477  -4.467  12.778  1.00  0.00     0.274 HD
ATOM     36  H51 UNL     1      36.271  -4.132  11.331  1.00  0.00     0.274 HD
ENDBRANCH  13  33
ENDBRANCH   7   8
ENDBRANCH   1   7
BRANCH   6  37
HETATM   37  N4  UNL     1      33.133  -0.099  14.684  1.00  0.00    -0.070 N
ATOM     38  H43 UNL     1      32.427   0.232  14.027  1.00  0.00     0.274 HD
ATOM     39  H42 UNL     1      32.573  -0.106  15.537  1.00  0.00     0.274 HD
ATOM     40  H41 UNL     1      33.906   0.562  14.759  1.00  0.00     0.274 HD
ENDBRANCH   6  37
BRANCH   3  41
HETATM   41  O4  UNL     1      31.874  -4.150  16.815  1.00  0.00    -0.327 OA
BRANCH  41  42
HETATM   42  C6  UNL     1      30.543  -4.465  17.077  1.00  0.00     0.294 C
HETATM   43  O5  UNL     1      30.479  -5.799  17.378  1.00  0.00    -0.350 OA
HETATM   44  C7  UNL     1      31.078  -6.168  18.549  1.00  0.00     0.178 C
HETATM   45  C9  UNL     1      30.477  -5.473  19.761  1.00  0.00     0.151 C
HETATM   46  C10 UNL     1      30.617  -3.992  19.533  1.00  0.00     0.072 C
HETATM   47  C11 UNL     1      29.957  -3.662  18.214  1.00  0.00     0.240 C
BRANCH  44  48
HETATM   48  C8  UNL     1      31.078  -7.665  18.767  1.00  0.00     0.264 C
BRANCH  48  49
HETATM   49  N1  UNL     1      29.791  -8.135  19.224  1.00  0.00    -0.077 N
ATOM     50  H13 UNL     1      29.244  -8.526  18.457  1.00  0.00     0.274 HD
ATOM     51  H12 UNL     1      29.882  -8.973  19.797  1.00  0.00     0.274 HD
ATOM     52  H11 UNL     1      29.276  -7.403  19.714  1.00  0.00     0.274 HD
ENDBRANCH  48  49
ENDBRANCH  44  48
BRANCH  45  53
HETATM   53  O6  UNL     1      31.192  -5.774  20.916  1.00  0.00    -0.393 OA
ATOM     54  H6  UNL     1      31.419  -4.984  21.393  1.00  0.00     0.210 HD
ENDBRANCH  45  53
BRANCH  47  55
HETATM   55  N2  UNL     1      28.557  -4.025  18.325  1.00  0.00    -0.070 N
ATOM     56  H23 UNL     1      27.961  -3.511  17.676  1.00  0.00     0.274 HD
ATOM     57  H22 UNL     1      28.361  -4.962  17.974  1.00  0.00     0.274 HD
ATOM     58  H21 UNL     1      28.286  -3.899  19.300  1.00  0.00     0.274 HD
ENDBRANCH  47  55
ENDBRANCH  41  42
ENDBRANCH   3  41
BRANCH   4  59
HETATM   59  N3  UNL     1      32.765  -0.931  17.103  1.00  0.00    -0.070 N
ATOM     60  H33 UNL     1      31.873  -0.992  17.592  1.00  0.00     0.274 HD
ATOM     61  H32 UNL     1      33.352  -0.617  17.877  1.00  0.00     0.274 HD
ATOM     62  H31 UNL     1      32.732  -0.235  16.358  1.00  0.00     0.274 HD
ENDBRANCH   4  59
TORSDOF 18
ENDMDL