MODEL 4
REMARK VINA RESULT: -9.561575140      1.538      2.091
REMARK  14 active torsions:
REMARK  status: ('A' for Active; 'I' for Inactive)
REMARK    1  A    between atoms: C2_2  and  O2_4
REMARK    2  A    between atoms: O2_4  and  C3_5
REMARK    3  A    between atoms: C3_5  and  C4_6
REMARK    4  A    between atoms: C5_7  and  C6_8
REMARK    5  A    between atoms: C7_12  and  N2_13
REMARK       I    between atoms: C8_15  and  N4_17
REMARK    6  A    between atoms: N4_17  and  N5_19
REMARK    7  A    between atoms: C10_26  and  N8_27
REMARK       I    between atoms: N8_27  and  C11_29
REMARK    8  A    between atoms: C11_29  and  C12_31
REMARK    9  A    between atoms: C12_31  and  N9_32
REMARK   10  A    between atoms: C12_31  and  C13_36
REMARK   11  A    between atoms: C13_36  and  C14_37
REMARK   12  A    between atoms: C14_37  and  O6_38
REMARK   13  A    between atoms: C14_37  and  C16_42
REMARK   14  A    between atoms: O6_38  and  C15_39
ROOT
HETATM    1  C4  UNL     1      32.203  -3.929  13.588  1.00  0.00    -0.019 C
HETATM    2  C5  UNL     1      32.834  -2.775  13.405  1.00  0.00     0.134 C
HETATM    3  N1  UNL     1      33.046  -1.940  14.589  1.00  0.00    -0.152 N
HETATM    4  C7  UNL     1      34.072  -1.132  15.073  1.00  0.00     0.701 C
HETATM    5  N6  UNL     1      33.681  -0.602  16.183  1.00  0.00    -0.134 N
ATOM      6  H6  UNL     1      34.250   0.034  16.742  1.00  0.00     0.201 HD
HETATM    7  N7  UNL     1      32.392  -1.002  16.527  1.00  0.00    -0.097 NA
HETATM    8  C9  UNL     1      31.951  -1.963  15.576  1.00  0.00     0.245 C
HETATM    9  C10 UNL     1      31.950  -3.394  16.055  1.00  0.00     0.130 C
HETATM   10  C18 UNL     1      31.629  -4.288  14.919  1.00  0.00     0.067 C
ENDROOT
BRANCH   9  11
HETATM   11  N8  UNL     1      31.039  -3.642  17.132  1.00  0.00    -0.351 N
HETATM   12  C11 UNL     1      31.310  -3.321  18.490  1.00  0.00     0.248 C
HETATM   13  O5  UNL     1      32.429  -2.796  18.733  1.00  0.00    -0.271 OA
ATOM     14  H8  UNL     1      30.142  -4.075  16.911  1.00  0.00     0.163 HD
BRANCH  12  15
HETATM   15  C12 UNL     1      30.354  -3.572  19.599  1.00  0.00     0.277 C
BRANCH  15  16
HETATM   16  N9  UNL     1      30.254  -2.504  20.539  1.00  0.00    -0.066 N
ATOM     17  H93 UNL     1      31.029  -1.851  20.420  1.00  0.00     0.275 HD
ATOM     18  H92 UNL     1      29.473  -1.893  20.301  1.00  0.00     0.275 HD
ATOM     19  H91 UNL     1      30.188  -2.806  21.510  1.00  0.00     0.275 HD
ENDBRANCH  15  16
BRANCH  15  20
HETATM   20  C13 UNL     1      30.596  -4.863  20.298  1.00  0.00     0.082 C
BRANCH  20  21
HETATM   21  C14 UNL     1      29.811  -6.029  19.824  1.00  0.00     0.194 C
BRANCH  21  22
HETATM   22  O6  UNL     1      29.903  -6.377  18.494  1.00  0.00    -0.294 OA
BRANCH  22  23
HETATM   23  C15 UNL     1      30.824  -7.236  17.922  1.00  0.00     0.373 C
HETATM   24  N10 UNL     1      32.099  -6.821  17.469  1.00  0.00    -0.032 NA
HETATM   25  O7  UNL     1      30.510  -8.433  17.805  1.00  0.00    -0.242 OA
ENDBRANCH  22  23
ENDBRANCH  21  22
BRANCH  21  26
HETATM   26  C16 UNL     1      28.397  -5.849  20.318  1.00  0.00     0.099 A
HETATM   27  N11 UNL     1      27.749  -6.604  21.205  1.00  0.00    -0.293 N
HETATM   28  N12 UNL     1      26.552  -6.329  21.517  1.00  0.00    -0.279 N
ATOM     29  H11 UNL     1      28.217  -7.403  21.633  1.00  0.00     0.187 HD
HETATM   30  C17 UNL     1      25.957  -5.276  20.945  1.00  0.00     0.158 A
ATOM     31  H12 UNL     1      26.049  -6.901  22.195  1.00  0.00     0.189 HD
HETATM   32  N13 UNL     1      24.735  -4.833  21.131  1.00  0.00    -0.379 N
HETATM   33  S1  UNL     1      27.201  -4.692  19.929  1.00  0.00    -0.036 SA
ATOM     34 2H13 UNL     1      23.992  -5.181  21.738  1.00  0.00     0.158 HD
ATOM     35 1H13 UNL     1      24.281  -4.030  20.695  1.00  0.00     0.158 HD
ENDBRANCH  21  26
ENDBRANCH  20  21
ENDBRANCH  15  20
ENDBRANCH  12  15
ENDBRANCH   9  11
BRANCH   1  36
HETATM   36  C3  UNL     1      31.994  -4.903  12.519  1.00  0.00     0.215 C
BRANCH  36  37
HETATM   37  O2  UNL     1      31.205  -6.015  12.981  1.00  0.00    -0.317 OA
BRANCH  37  38
HETATM   38  C2  UNL     1      30.556  -6.804  12.054  1.00  0.00     0.255 C
HETATM   39  C1  UNL     1      31.187  -7.969  11.376  1.00  0.00     0.126 C
HETATM   40  O1  UNL     1      29.353  -6.552  11.733  1.00  0.00    -0.266 OA
ENDBRANCH  37  38
ENDBRANCH  36  37
ENDBRANCH   1  36
BRANCH   2  41
HETATM   41  C6  UNL     1      33.384  -2.322  12.162  1.00  0.00     0.228 C
HETATM   42  O3  UNL     1      32.767  -1.736  11.224  1.00  0.00    -0.643 OA
HETATM   43  O4  UNL     1      34.754  -2.513  11.896  1.00  0.00    -0.643 OA
ENDBRANCH   2  41
BRANCH   4  44
HETATM   44  N2  UNL     1      35.346  -0.971  14.439  1.00  0.00    -0.161 N
HETATM   45  C8  UNL     1      35.701   0.207  14.056  1.00  0.00     0.221 C
HETATM   46  N3  UNL     1      34.880   1.348  14.239  1.00  0.00    -0.061 NA
HETATM   47  N4  UNL     1      36.964   0.308  13.432  1.00  0.00    -0.280 N
ATOM     48  H4  UNL     1      37.715   0.835  13.878  1.00  0.00     0.189 HD
ATOM     49  H2  UNL     1      35.961  -1.772  14.293  1.00  0.00     0.187 HD
BRANCH  47  50
HETATM   50  N5  UNL     1      37.180  -0.313  12.215  1.00  0.00    -0.343 N
ATOM     51  H52 UNL     1      36.575  -1.086  11.937  1.00  0.00     0.176 HD
ATOM     52  H51 UNL     1      37.937   0.007  11.611  1.00  0.00     0.176 HD
ENDBRANCH  47  50
ENDBRANCH   4  44
TORSDOF 14
ENDMDL