MODEL 5
REMARK VINA RESULT: -8.412057496      2.983      6.475
REMARK  12 active torsions:
REMARK  status: ('A' for Active; 'I' for Inactive)
REMARK    1  A    between atoms: C2_5  and  N3_6
REMARK    2  A    between atoms: N3_6  and  C3_8
REMARK    3  A    between atoms: N5_12  and  C5_14
REMARK    4  A    between atoms: C5_14  and  C6_15
REMARK    5  A    between atoms: C6_15  and  N6_16
REMARK    6  A    between atoms: N8_25  and  C12_27
REMARK    7  A    between atoms: C12_27  and  C13_28
REMARK    8  A    between atoms: C13_28  and  C14_29
REMARK    9  A    between atoms: C14_29  and  C15_30
REMARK   10  A    between atoms: C15_30  and  N9_31
REMARK   11  A    between atoms: C16_37  and  C17_38
REMARK   12  A    between atoms: C20_47  and  N15_48
ROOT
HETATM    1  C3  UNL     1      32.293  -2.320  13.822  1.00  0.00     0.152 A
HETATM    2  N4  UNL     1      32.041  -2.630  15.124  1.00  0.00    -0.174 N
ATOM      3  H4  UNL     1      32.135  -1.897  15.827  1.00  0.00     0.186 HD
HETATM    4  C4  UNL     1      31.674  -3.860  15.522  1.00  0.00     0.680 A
HETATM    5  N5  UNL     1      31.427  -4.200  16.720  1.00  0.00    -0.224 N
ATOM      6  H5  UNL     1      31.159  -5.174  16.859  1.00  0.00     0.177 HD
HETATM    7  N7  UNL     1      31.559  -4.804  14.561  1.00  0.00    -0.186 N
ATOM      8  H7  UNL     1      31.281  -5.745  14.839  1.00  0.00     0.184 HD
HETATM    9  C10 UNL     1      31.792  -4.566  13.260  1.00  0.00     0.123 A
HETATM   10  C11 UNL     1      31.659  -5.583  12.329  1.00  0.00     0.132 A
HETATM   11  N8  UNL     1      31.305  -6.735  12.767  1.00  0.00    -0.374 N
ATOM     12  H8  UNL     1      31.148  -6.817  13.772  1.00  0.00     0.161 HD
HETATM   13  N10 UNL     1      31.911  -5.268  11.055  1.00  0.00    -0.330 N
ATOM     14  H10 UNL     1      31.815  -6.009  10.360  1.00  0.00     0.168 HD
HETATM   15  C16 UNL     1      32.274  -4.071  10.624  1.00  0.00     0.098 A
HETATM   16  N16 UNL     1      32.402  -3.086  11.542  1.00  0.00    -0.340 N
ATOM     17  H16 UNL     1      32.680  -2.155  11.231  1.00  0.00     0.167 HD
HETATM   18  C21 UNL     1      32.172  -3.293  12.854  1.00  0.00     0.110 A
ENDROOT
BRANCH  15  19
HETATM   19  C17 UNL     1      32.537  -3.832   9.169  1.00  0.00     0.168 A
HETATM   20  C18 UNL     1      33.959  -3.685   8.891  1.00  0.00     0.110 A
HETATM   21  N11 UNL     1      34.831  -4.744   9.247  1.00  0.00    -0.086 NA
HETATM   22  N12 UNL     1      34.450  -2.648   8.345  1.00  0.00    -0.322 N
HETATM   23  C19 UNL     1      33.685  -1.529   7.948  1.00  0.00     0.191 A
ATOM     24  H12 UNL     1      35.457  -2.622   8.184  1.00  0.00     0.169 HD
HETATM   25  N13 UNL     1      34.299  -0.392   7.335  1.00  0.00    -0.063 NA
HETATM   26  N14 UNL     1      32.427  -1.575   8.158  1.00  0.00    -0.336 N
HETATM   27  C20 UNL     1      31.698  -2.645   8.756  1.00  0.00     0.302 A
ATOM     28  H14 UNL     1      31.885  -0.760   7.866  1.00  0.00     0.164 HD
BRANCH  27  29
HETATM   29  N15 UNL     1      30.608  -3.052   7.875  1.00  0.00    -0.057 N
ATOM     30 3H15 UNL     1      29.908  -3.602   8.373  1.00  0.00     0.276 HD
ATOM     31 2H15 UNL     1      30.024  -2.259   7.610  1.00  0.00     0.276 HD
ATOM     32 1H15 UNL     1      30.961  -3.547   7.056  1.00  0.00     0.276 HD
ENDBRANCH  27  29
ENDBRANCH  15  19
BRANCH  11  33
HETATM   33  C12 UNL     1      31.109  -7.919  11.979  1.00  0.00     0.121 C
BRANCH  33  34
HETATM   34  C13 UNL     1      29.836  -8.571  12.415  1.00  0.00     0.021 C
BRANCH  34  35
HETATM   35  C14 UNL     1      29.593  -9.949  11.924  1.00  0.00     0.029 C
BRANCH  35  36
HETATM   36  C15 UNL     1      29.985 -11.051  12.860  1.00  0.00     0.229 C
BRANCH  36  37
HETATM   37  N9  UNL     1      29.299 -11.057  14.108  1.00  0.00    -0.079 N
ATOM     38  H93 UNL     1      28.569 -10.345  14.111  1.00  0.00     0.274 HD
ATOM     39  H92 UNL     1      28.728 -11.898  14.191  1.00  0.00     0.274 HD
ATOM     40  H91 UNL     1      29.894 -10.955  14.930  1.00  0.00     0.274 HD
ENDBRANCH  36  37
ENDBRANCH  35  36
ENDBRANCH  34  35
ENDBRANCH  33  34
ENDBRANCH  11  33
BRANCH   1  41
HETATM   41  N3  UNL     1      32.646  -1.135  13.475  1.00  0.00    -0.321 N
ATOM     42  H3  UNL     1      31.939  -0.496  13.109  1.00  0.00     0.169 HD
BRANCH  41  43
HETATM   43  C2  UNL     1      33.984  -0.688  13.585  1.00  0.00     0.194 A
HETATM   44  N2  UNL     1      35.015  -1.170  12.875  1.00  0.00    -0.264 N
HETATM   45  N1  UNL     1      36.109  -0.524  13.234  1.00  0.00    -0.234 N
ATOM     46  H2  UNL     1      34.963  -1.911  12.175  1.00  0.00     0.190 HD
HETATM   47  C1  UNL     1      37.427  -0.750  12.701  1.00  0.00     0.200 C
HETATM   48  N17 UNL     1      35.799   0.360  14.160  1.00  0.00    -0.247 N
HETATM   49  C22 UNL     1      34.482   0.293  14.410  1.00  0.00     0.306 A
ATOM     50  H17 UNL     1      36.455   0.995  14.615  1.00  0.00     0.192 HD
HETATM   51  O2  UNL     1      33.862   1.007  15.247  1.00  0.00    -0.262 OA
ENDBRANCH  41  43
ENDBRANCH   1  41
BRANCH   5  52
HETATM   52  C5  UNL     1      31.478  -3.395  17.894  1.00  0.00     0.168 C
BRANCH  52  53
HETATM   53  C6  UNL     1      30.631  -4.066  18.974  1.00  0.00     0.295 C
BRANCH  53  54
HETATM   54  N6  UNL     1      29.666  -3.077  19.423  1.00  0.00     0.115 N
HETATM   55  C7  UNL     1      28.357  -3.622  19.601  1.00  0.00     0.301 C
HETATM   56  C8  UNL     1      27.984  -3.134  20.986  1.00  0.00     0.200 C
HETATM   57  O1  UNL     1      28.861  -2.077  21.234  1.00  0.00    -0.361 OA
HETATM   58  C9  UNL     1      30.067  -2.466  20.672  1.00  0.00     0.440 C
ENDBRANCH  53  54
ENDBRANCH  52  53
ENDBRANCH   5  52
TORSDOF 12
ENDMDL