MODEL 2
REMARK VINA RESULT: -6.984515564      1.286      2.800
REMARK  13 active torsions:
REMARK  status: ('A' for Active; 'I' for Inactive)
REMARK    1  A    between atoms: N1_1  and  C1_4
REMARK    2  A    between atoms: C2_10  and  N4_11
REMARK    3  A    between atoms: N4_11  and  C3_12
REMARK    4  A    between atoms: N4_11  and  C7_21
REMARK    5  A    between atoms: C3_12  and  C4_13
REMARK    6  A    between atoms: C4_13  and  N5_14
REMARK    7  A    between atoms: N5_14  and  C5_17
REMARK    8  A    between atoms: C5_17  and  C6_18
REMARK    9  A    between atoms: C6_18  and  O2_19
REMARK   10  A    between atoms: N8_30  and  C11_31
REMARK   11  A    between atoms: C13_36  and  O5_37
REMARK   12  A    between atoms: C17_43  and  O7_44
REMARK   13  A    between atoms: C19_47  and  S1_48
ROOT
HETATM    1  C7  UNL     1      32.612  -3.137   8.231  1.00  0.00     0.139 A
HETATM    2  N6  UNL     1      33.033  -2.263   7.244  1.00  0.00    -0.306 N
ATOM      3  H6  UNL     1      32.688  -2.396   6.293  1.00  0.00     0.170 HD
HETATM    4  C8  UNL     1      33.862  -1.263   7.483  1.00  0.00     0.276 A
HETATM    5  O3  UNL     1      34.255  -0.458   6.584  1.00  0.00    -0.266 OA
HETATM    6  C9  UNL     1      34.313  -1.095   8.764  1.00  0.00     0.131 A
HETATM    7  N7  UNL     1      35.129  -0.151   9.317  1.00  0.00    -0.346 N
ATOM      8  H7  UNL     1      35.585   0.614   8.820  1.00  0.00     0.167 HD
HETATM    9  C10 UNL     1      35.222  -0.406  10.614  1.00  0.00     0.185 A
HETATM   10  N8  UNL     1      34.465  -1.525  10.921  1.00  0.00    -0.322 N
HETATM   11  C18 UNL     1      33.910  -1.956   9.786  1.00  0.00     0.097 A
HETATM   12  C19 UNL     1      33.030  -3.029   9.535  1.00  0.00     0.154 A
ENDROOT
BRANCH   1  13
HETATM   13  N4  UNL     1      31.695  -4.104   7.716  1.00  0.00    -0.312 N
BRANCH  13  14
HETATM   14  C2  UNL     1      32.231  -5.203   7.011  1.00  0.00     0.177 A
HETATM   15  C1  UNL     1      32.157  -5.369   5.616  1.00  0.00     0.167 A
HETATM   16  N2  UNL     1      32.783  -6.519   5.304  1.00  0.00    -0.222 N
HETATM   17  O1  UNL     1      33.206  -7.020   6.414  1.00  0.00    -0.153 OA
ATOM     18  H2  UNL     1      32.898  -6.916   4.371  1.00  0.00     0.198 HD
HETATM   19  N3  UNL     1      32.896  -6.276   7.407  1.00  0.00    -0.222 N
ATOM     20  H3  UNL     1      33.131  -6.482   8.378  1.00  0.00     0.198 HD
BRANCH  15  21
HETATM   21  N1  UNL     1      31.611  -4.631   4.754  1.00  0.00    -0.381 N
ATOM     22  H12 UNL     1      31.785  -4.573   3.750  1.00  0.00     0.157 HD
ATOM     23  H11 UNL     1      30.888  -3.949   4.985  1.00  0.00     0.157 HD
ENDBRANCH  15  21
ENDBRANCH  13  14
BRANCH  13  24
HETATM   24  C3  UNL     1      30.303  -3.985   8.024  1.00  0.00     0.160 C
BRANCH  24  25
HETATM   25  C4  UNL     1      29.569  -5.333   8.042  1.00  0.00     0.252 C
BRANCH  25  26
HETATM   26  N5  UNL     1      29.576  -5.722   9.449  1.00  0.00    -0.072 N
ATOM     27  H52 UNL     1      30.314  -5.234   9.958  1.00  0.00     0.277 HD
ATOM     28  H51 UNL     1      28.762  -5.347   9.935  1.00  0.00     0.277 HD
BRANCH  26  29
HETATM   29  C5  UNL     1      29.676  -7.139   9.637  1.00  0.00     0.258 C
BRANCH  29  30
HETATM   30  C6  UNL     1      29.725  -7.558  11.079  1.00  0.00     0.191 C
BRANCH  30  31
HETATM   31  O2  UNL     1      29.344  -6.426  11.835  1.00  0.00    -0.399 OA
ATOM     32  H2  UNL     1      30.052  -5.798  11.752  1.00  0.00     0.209 HD
ENDBRANCH  30  31
ENDBRANCH  29  30
ENDBRANCH  26  29
ENDBRANCH  25  26
ENDBRANCH  24  25
ENDBRANCH  13  24
ENDBRANCH   1  13
BRANCH  12  33
HETATM   33  S1  UNL     1      32.596  -4.089  10.781  1.00  0.00     0.143 S
HETATM   34  O8  UNL     1      33.757  -4.371  11.763  1.00  0.00    -0.591 OA
HETATM   35  O9  UNL     1      31.269  -4.074  11.370  1.00  0.00    -0.591 OA
HETATM   36  O10 UNL     1      32.642  -5.698  10.170  1.00  0.00    -0.591 OA
ENDBRANCH  12  33
BRANCH  10  37
HETATM   37  C11 UNL     1      34.363  -1.912  12.251  1.00  0.00     0.226 C
HETATM   38  C12 UNL     1      35.605  -1.440  12.928  1.00  0.00     0.247 C
HETATM   39  O4  UNL     1      36.724  -1.960  12.726  1.00  0.00    -0.271 OA
HETATM   40  N9  UNL     1      35.378  -0.369  13.800  1.00  0.00    -0.318 N
HETATM   41  C13 UNL     1      33.972  -0.182  13.922  1.00  0.00     0.238 C
ATOM     42  H9  UNL     1      36.097   0.184  14.268  1.00  0.00     0.166 HD
HETATM   43  C14 UNL     1      33.533  -0.720  15.229  1.00  0.00     0.207 C
HETATM   44  C17 UNL     1      33.283  -0.967  12.887  1.00  0.00     0.163 C
HETATM   45  O6  UNL     1      34.014  -0.449  16.338  1.00  0.00    -0.288 OA
HETATM   46  C15 UNL     1      32.438  -1.621  14.958  1.00  0.00     0.055 C
HETATM   47  C16 UNL     1      32.295  -1.762  13.672  1.00  0.00     0.022 C
BRANCH  41  48
HETATM   48  O5  UNL     1      33.590   1.162  13.861  1.00  0.00    -0.361 OA
ATOM     49  H5  UNL     1      33.116   1.378  13.066  1.00  0.00     0.213 HD
ENDBRANCH  41  48
BRANCH  44  50
HETATM   50  O7  UNL     1      32.606  -0.265  11.924  1.00  0.00    -0.378 OA
ATOM     51  H7  UNL     1      32.056  -0.837  11.402  1.00  0.00     0.211 HD
ENDBRANCH  44  50
ENDBRANCH  10  37
TORSDOF 13
ENDMDL