MODEL 3
REMARK VINA RESULT: -8.087653582      2.897      9.180
REMARK  14 active torsions:
REMARK  status: ('A' for Active; 'I' for Inactive)
REMARK    1  A    between atoms: C2_2  and  O1_3
REMARK    2  A    between atoms: C2_2  and  C3_5
REMARK    3  A    between atoms: C2_2  and  C4_8
REMARK    4  A    between atoms: C3_5  and  O2_6
REMARK    5  A    between atoms: C4_8  and  C5_9
REMARK    6  A    between atoms: C6_13  and  N1_14
REMARK    7  A    between atoms: C11_26  and  N4_27
REMARK    8  A    between atoms: C12_32  and  S2_33
REMARK    9  A    between atoms: S2_33  and  C13_34
REMARK   10  A    between atoms: C13_34  and  C14_35
REMARK   11  A    between atoms: C14_35  and  C15_36
REMARK       I    between atoms: C15_36  and  N7_38
REMARK   12  A    between atoms: N7_38  and  N8_40
REMARK       I    between atoms: N8_40  and  C16_42
REMARK   13  A    between atoms: C16_42  and  C17_44
REMARK   14  A    between atoms: C17_44  and  N9_45
ROOT
HETATM    1  C4  UNL     1      35.178  -1.617  12.277  1.00  0.00     0.207 C
HETATM    2  O5  UNL     1      34.978  -1.970  10.916  1.00  0.00    -0.338 OA
HETATM    3  C6  UNL     1      33.597  -2.009  10.719  1.00  0.00     0.239 C
HETATM    4  C10 UNL     1      33.051  -0.843  11.501  1.00  0.00     0.087 C
HETATM    5  C11 UNL     1      34.045  -0.790  12.658  1.00  0.00     0.181 C
ENDROOT
BRANCH   5   6
HETATM    6  N4  UNL     1      33.409  -0.997  13.936  1.00  0.00    -0.209 N
HETATM    7  N5  UNL     1      33.460  -0.326  15.048  1.00  0.00    -0.223 N
HETATM    8  N6  UNL     1      32.719  -0.873  15.949  1.00  0.00    -0.263 N
ATOM      9  H5  UNL     1      34.014   0.519  15.188  1.00  0.00     0.210 HD
HETATM   10  C12 UNL     1      32.139  -1.965  15.415  1.00  0.00     0.180 A
ATOM     11  H6  UNL     1      32.592  -0.536  16.903  1.00  0.00     0.190 HD
HETATM   12  N10 UNL     1      32.583  -2.024  14.159  1.00  0.00    -0.260 N
ATOM     13  H10 UNL     1      32.332  -2.738  13.476  1.00  0.00     0.191 HD
BRANCH  10  14
HETATM   14  S2  UNL     1      31.042  -3.085  16.275  1.00  0.00    -0.063 SA
BRANCH  14  15
HETATM   15  C13 UNL     1      31.695  -3.619  17.844  1.00  0.00     0.059 C
BRANCH  15  16
HETATM   16  C14 UNL     1      31.698  -2.765  18.844  1.00  0.00     0.083 C
BRANCH  16  17
HETATM   17  C15 UNL     1      30.753  -2.832  19.966  1.00  0.00     0.260 C
HETATM   18  O8  UNL     1      31.048  -2.217  21.019  1.00  0.00    -0.267 OA
HETATM   19  N7  UNL     1      29.546  -3.559  19.888  1.00  0.00    -0.264 N
ATOM     20  H7  UNL     1      29.344  -4.041  19.012  1.00  0.00     0.190 HD
BRANCH  19  21
HETATM   21  N8  UNL     1      28.620  -3.671  20.898  1.00  0.00    -0.266 N
HETATM   22  C16 UNL     1      27.376  -4.337  20.777  1.00  0.00     0.261 C
HETATM   23  O9  UNL     1      27.101  -4.861  19.675  1.00  0.00    -0.270 OA
ATOM     24  H8  UNL     1      28.844  -3.245  21.796  1.00  0.00     0.190 HD
BRANCH  22  25
HETATM   25  C17 UNL     1      26.388  -4.446  21.870  1.00  0.00     0.333 C
BRANCH  25  26
HETATM   26  N9  UNL     1      25.945  -3.157  22.343  1.00  0.00    -0.071 N
ATOM     27  H93 UNL     1      26.637  -2.434  22.144  1.00  0.00     0.274 HD
ATOM     28  H92 UNL     1      25.173  -2.803  21.779  1.00  0.00     0.274 HD
ATOM     29  H91 UNL     1      25.702  -3.168  23.333  1.00  0.00     0.274 HD
ENDBRANCH  25  26
ENDBRANCH  22  25
ENDBRANCH  19  21
ENDBRANCH  16  17
ENDBRANCH  15  16
ENDBRANCH  14  15
ENDBRANCH  10  14
ENDBRANCH   5   6
BRANCH   1  30
HETATM   30  C2  UNL     1      36.468  -0.844  12.307  1.00  0.00     0.119 C
HETATM   31  C1  UNL     1      36.521   0.012  13.599  1.00  0.00     0.052 C
BRANCH  30  32
HETATM   32  O1  UNL     1      36.591   0.093  11.299  1.00  0.00    -0.384 OA
ATOM     33  H1  UNL     1      35.807   0.621  11.394  1.00  0.00     0.210 HD
ENDBRANCH  30  32
BRANCH  30  34
HETATM   34  C3  UNL     1      37.668  -1.711  12.380  1.00  0.00     0.205 C
BRANCH  34  35
HETATM   35  O2  UNL     1      37.944  -2.524  11.322  1.00  0.00    -0.398 OA
ATOM     36  H2  UNL     1      38.824  -2.518  10.966  1.00  0.00     0.209 HD
ENDBRANCH  34  35
ENDBRANCH  30  34
ENDBRANCH   1  30
BRANCH   1  37
HETATM   37  C5  UNL     1      35.265  -2.903  12.979  1.00  0.00     0.215 C
HETATM   38  O3  UNL     1      35.487  -3.952  12.271  1.00  0.00    -0.646 OA
HETATM   39  O4  UNL     1      35.150  -3.178  14.316  1.00  0.00    -0.646 OA
ENDBRANCH   1  37
BRANCH   3  40
HETATM   40  N1  UNL     1      33.307  -1.867   9.286  1.00  0.00    -0.248 N
HETATM   41  C7  UNL     1      34.019  -1.036   8.508  1.00  0.00     0.334 A
HETATM   42  O6  UNL     1      34.977  -0.317   8.960  1.00  0.00    -0.246 OA
HETATM   43  N2  UNL     1      33.720  -0.943   7.194  1.00  0.00    -0.260 N
HETATM   44  C8  UNL     1      32.725  -1.656   6.615  1.00  0.00     0.330 A
ATOM     45  H2  UNL     1      34.267  -0.308   6.613  1.00  0.00     0.175 HD
HETATM   46  O7  UNL     1      32.443  -1.578   5.391  1.00  0.00    -0.246 OA
HETATM   47  N3  UNL     1      32.035  -2.475   7.422  1.00  0.00    -0.285 N
HETATM   48  C9  UNL     1      32.313  -2.586   8.747  1.00  0.00     0.188 A
ATOM     49  H3  UNL     1      31.276  -3.033   7.028  1.00  0.00     0.173 HD
HETATM   50  S1  UNL     1      31.370  -3.619   9.625  1.00  0.00    -0.040 SA
ENDBRANCH   3  40
TORSDOF 14
ENDMDL