MODEL 4
REMARK VINA RESULT: -5.420305969      1.679      4.802
REMARK  3 active torsions:
REMARK  status: ('A' for Active; 'I' for Inactive)
REMARK    1  A    between atoms: C3_3  and  N1_4
REMARK    2  A    between atoms: C4_6  and  C5_7
REMARK    3  A    between atoms: C4_6  and  C8_10
ROOT
HETATM    1  C1  UNL     1      20.056  11.364   1.011  1.00  0.00     0.018 C
HETATM    2  C2  UNL     1      18.894  11.542   1.249  1.00  0.00    -0.072 C
HETATM    3  C3  UNL     1      17.454  11.761   1.549  1.00  0.00     0.152 C
ENDROOT
BRANCH   3   4
HETATM    4  N1  UNL     1      16.665  11.455   0.439  1.00  0.00    -0.359 N
HETATM    5  C4  UNL     1      15.710  10.680   0.193  1.00  0.00     0.047 C
ATOM      6  H1  UNL     1      16.933  12.001  -0.381  1.00  0.00     0.165 HD
BRANCH   5   7
HETATM    7  C5  UNL     1      15.168  10.685  -1.154  1.00  0.00    -0.046 C
HETATM    8  C6  UNL     1      15.865  10.221  -2.167  1.00  0.00     0.020 C
HETATM    9  C7  UNL     1      13.813  11.216  -1.418  1.00  0.00     0.049 C
ENDBRANCH   5   7
BRANCH   5  10
HETATM   10  C8  UNL     1      15.113   9.795   1.174  1.00  0.00     0.194 C
HETATM   11  N2  UNL     1      14.725   8.517   0.688  1.00  0.00    -0.383 N
HETATM   12  C9  UNL     1      13.788   7.869   1.463  1.00  0.00     0.067 C
ATOM     13  H2  UNL     1      15.108   8.113  -0.166  1.00  0.00     0.160 HD
HETATM   14  C10 UNL     1      12.910   8.743   2.251  1.00  0.00     0.120 C
HETATM   15  S1  UNL     1      13.682  10.375   2.059  1.00  0.00    -0.133 SA
ENDBRANCH   5  10
ENDBRANCH   3   4
TORSDOF 3
ENDMDL