MODEL 4
REMARK VINA RESULT: -5.635975957      4.043      4.660
REMARK  3 active torsions:
REMARK  status: ('A' for Active; 'I' for Inactive)
REMARK    1  A    between atoms: O1_2  and  S1_3
REMARK    2  A    between atoms: S1_3  and  N1_6
REMARK    3  A    between atoms: N1_6  and  C2_8
ROOT
HETATM    1  N1  UNL     1      14.451   8.095  -0.149  1.00  0.00    -0.292 N
ATOM      2  H1  UNL     1      14.757   7.381  -0.810  1.00  0.00     0.174 HD
ENDROOT
BRANCH   1   3
HETATM    3  S1  UNL     1      13.845   7.739   1.402  1.00  0.00     0.357 S
HETATM    4  O2  UNL     1      14.788   8.167   2.491  1.00  0.00    -0.176 OA
HETATM    5  O3  UNL     1      13.611   6.267   1.569  1.00  0.00    -0.176 OA
BRANCH   3   6
HETATM    6  O1  UNL     1      12.419   8.611   1.617  1.00  0.00    -0.265 OA
HETATM    7  C1  UNL     1      12.516   9.403   2.766  1.00  0.00     0.227 C
ENDBRANCH   3   6
ENDBRANCH   1   3
BRANCH   1   8
HETATM    8  C2  UNL     1      14.489   9.521  -0.436  1.00  0.00     0.095 C
HETATM    9  C3  UNL     1      13.299   9.832  -1.292  1.00  0.00     0.026 C
HETATM   10  C4  UNL     1      13.525   9.557  -2.755  1.00  0.00     0.002 C
HETATM   11  C5  UNL     1      14.683  10.407  -3.174  1.00  0.00     0.000 C
HETATM   12  C6  UNL     1      15.938  10.147  -2.417  1.00  0.00     0.002 C
HETATM   13  C7  UNL     1      15.803   9.883  -0.978  1.00  0.00     0.026 C
ENDBRANCH   1   8
TORSDOF 3
ENDMDL