MODEL 5
REMARK VINA RESULT: -4.894705030      3.040      3.620
REMARK  3 active torsions:
REMARK  status: ('A' for Active; 'I' for Inactive)
REMARK    1  A    between atoms: C2_2  and  C3_3
REMARK    2  A    between atoms: C3_3  and  C5_5
REMARK    3  A    between atoms: N2_11  and  O1_13
ROOT
HETATM    1  C5  UNL     1      15.749   9.868   1.954  1.00  0.00     0.120 C
HETATM    2  C6  UNL     1      16.864  10.107   2.824  1.00  0.00     0.090 C
HETATM    3  S1  UNL     1      17.445  10.337   4.336  1.00  0.00    -0.064 SA
HETATM    4  N1  UNL     1      17.703  10.101   1.635  1.00  0.00    -0.338 N
ATOM      5  H1  UNL     1      18.669   9.867   1.404  1.00  0.00     0.168 HD
HETATM    6  C7  UNL     1      16.559  10.568   0.948  1.00  0.00     0.113 C
HETATM    7  N2  UNL     1      16.393  11.267  -0.091  1.00  0.00    -0.254 N
ATOM      8  H2  UNL     1      17.244  11.596  -0.547  1.00  0.00     0.195 HD
ENDROOT
BRANCH   1   9
HETATM    9  C3  UNL     1      14.364  10.229   2.183  1.00  0.00    -0.001 C
HETATM   10  C4  UNL     1      14.020  11.176   3.286  1.00  0.00     0.011 C
BRANCH   9  11
HETATM   11  C2  UNL     1      13.435   9.056   2.177  1.00  0.00     0.001 C
HETATM   12  C1  UNL     1      13.879   7.838   1.459  1.00  0.00     0.005 C
ENDBRANCH   9  11
ENDBRANCH   1   9
BRANCH   7  13
HETATM   13  O1  UNL     1      15.224  11.636  -0.678  1.00  0.00    -0.284 OA
HETATM   14  C8  UNL     1      14.404  10.828  -1.459  1.00  0.00     0.237 C
ENDBRANCH   7  13
TORSDOF 3
ENDMDL