MODEL 4
REMARK VINA RESULT: -4.637337223      2.504      5.076
REMARK  4 active torsions:
REMARK  status: ('A' for Active; 'I' for Inactive)
REMARK    1  A    between atoms: C2_2  and  C3_3
REMARK    2  A    between atoms: C3_3  and  O1_4
REMARK    3  A    between atoms: C8_10  and  C9_11
REMARK    4  A    between atoms: C9_11  and  O3_13
ROOT
HETATM    1  C3  UNL     1      14.342  10.082   1.153  1.00  0.00     0.111 C
HETATM    2  C5  UNL     1      13.541   8.855   1.125  1.00  0.00     0.046 C
HETATM    3  C6  UNL     1      14.129   7.536   1.381  1.00  0.00     0.015 C
HETATM    4  C7  UNL     1      12.473   9.146   2.169  1.00  0.00     0.176 C
HETATM    5  O2  UNL     1      12.662  10.432   2.610  1.00  0.00    -0.379 OA
HETATM    6  C8  UNL     1      14.061  10.680   2.514  1.00  0.00     0.188 C
ENDROOT
BRANCH   1   7
HETATM    7  C2  UNL     1      15.783  10.021   0.968  1.00  0.00     0.004 C
HETATM    8  C1  UNL     1      16.614  10.990   0.682  1.00  0.00     0.010 C
ENDBRANCH   1   7
BRANCH   1   9
HETATM    9  O1  UNL     1      13.920  11.024   0.206  1.00  0.00    -0.378 OA
HETATM   10  C4  UNL     1      13.503  10.629  -0.992  1.00  0.00     0.203 C
ENDBRANCH   1   9
BRANCH   6  11
HETATM   11  C9  UNL     1      14.632   9.940   3.678  1.00  0.00     0.146 C
HETATM   12  C10 UNL     1      15.868  10.562   4.296  1.00  0.00     0.042 C
BRANCH  11  13
HETATM   13  O3  UNL     1      13.688   9.985   4.755  1.00  0.00    -0.393 OA
ATOM     14  H3  UNL     1      13.854   9.250   5.333  1.00  0.00     0.210 HD
ENDBRANCH  11  13
ENDBRANCH   6  11
TORSDOF 4
ENDMDL