MODEL 4
REMARK VINA RESULT: -5.978453450      3.829      5.911
REMARK  3 active torsions:
REMARK  status: ('A' for Active; 'I' for Inactive)
REMARK    1  A    between atoms: C4_5  and  C5_6
REMARK    2  A    between atoms: C5_6  and  N2_7
REMARK    3  A    between atoms: N2_7  and  C6_10
ROOT
HETATM    1  C5  UNL     1      17.291  10.952  -0.433  1.00  0.00     0.239 C
ENDROOT
BRANCH   1   2
HETATM    2  C4  UNL     1      17.844  11.864   0.604  1.00  0.00     0.038 C
HETATM    3  C3  UNL     1      17.323  11.341   1.953  1.00  0.00     0.025 C
HETATM    4  C2  UNL     1      18.324  10.459   2.631  1.00  0.00     0.120 C
HETATM    5  N1  UNL     1      19.164   9.731   1.746  1.00  0.00    -0.201 NA
HETATM    6  C1  UNL     1      19.975   8.793   2.440  1.00  0.00     0.143 C
HETATM    7  O1  UNL     1      19.782  10.441   0.814  1.00  0.00    -0.303 OA
HETATM    8  C11 UNL     1      19.353  11.762   0.737  1.00  0.00     0.200 C
ENDBRANCH   1   2
BRANCH   1   9
HETATM    9  N2  UNL     1      16.539   9.831   0.022  1.00  0.00    -0.070 N
ATOM     10  H22 UNL     1      17.124   8.997   0.067  1.00  0.00     0.277 HD
ATOM     11  H21 UNL     1      16.307   9.927   1.010  1.00  0.00     0.277 HD
BRANCH   9  12
HETATM   12  C6  UNL     1      15.342   9.583  -0.768  1.00  0.00     0.185 C
HETATM   13  C7  UNL     1      14.264  10.492  -0.220  1.00  0.00     0.033 C
HETATM   14  C8  UNL     1      13.575  11.120  -1.419  1.00  0.00     0.002 C
HETATM   15  C9  UNL     1      14.166  10.465  -2.619  1.00  0.00     0.002 C
HETATM   16  C10 UNL     1      15.563  10.136  -2.155  1.00  0.00     0.033 C
ENDBRANCH   9  12
ENDBRANCH   1   9
TORSDOF 3
ENDMDL