MODEL 5
REMARK VINA RESULT: -5.857885003      1.621      2.228
REMARK  4 active torsions:
REMARK  status: ('A' for Active; 'I' for Inactive)
REMARK    1  A    between atoms: C2_2  and  C3_3
REMARK    2  A    between atoms: C3_3  and  C5_5
REMARK    3  A    between atoms: C5_5  and  N1_8
REMARK    4  A    between atoms: N1_8  and  C8_10
ROOT
HETATM    1  N1  UNL     1      15.702   9.493  -0.827  1.00  0.00    -0.218 N
ATOM      2  H1  UNL     1      15.888   8.492  -0.894  1.00  0.00     0.178 HD
ENDROOT
BRANCH   1   3
HETATM    3  C5  UNL     1      14.459  10.008  -1.345  1.00  0.00     0.043 C
HETATM    4  C6  UNL     1      14.304  11.499  -1.222  1.00  0.00     0.039 C
HETATM    5  C7  UNL     1      13.381   9.439  -0.388  1.00  0.00     0.039 C
BRANCH   3   6
HETATM    6  C3  UNL     1      14.116   9.468  -2.680  1.00  0.00     0.009 C
HETATM    7  C4  UNL     1      15.074  10.014  -3.719  1.00  0.00     0.012 C
BRANCH   6   8
HETATM    8  C2  UNL     1      12.728   9.648  -3.161  1.00  0.00     0.002 C
HETATM    9  C1  UNL     1      12.517   9.525  -4.644  1.00  0.00     0.005 C
ENDBRANCH   6   8
ENDBRANCH   3   6
ENDBRANCH   1   3
BRANCH   1  10
HETATM   10  C8  UNL     1      16.689  10.347  -0.219  1.00  0.00     0.672 C
HETATM   11  N2  UNL     1      17.602  11.052  -0.771  1.00  0.00    -0.225 N
HETATM   12  C9  UNL     1      18.393  11.771   0.188  1.00  0.00     0.158 C
ATOM     13  H2  UNL     1      17.751  11.098  -1.779  1.00  0.00     0.177 HD
HETATM   14  C10 UNL     1      18.088  11.098   1.504  1.00  0.00     0.161 C
HETATM   15  N3  UNL     1      16.768  10.518   1.207  1.00  0.00    -0.221 N
HETATM   16  C11 UNL     1      15.763  10.194   2.181  1.00  0.00     0.168 C
ENDBRANCH   1  10
TORSDOF 4
ENDMDL