MODEL 2
REMARK VINA RESULT: -6.094908405      2.839      3.167
REMARK  3 active torsions:
REMARK  status: ('A' for Active; 'I' for Inactive)
REMARK    1  A    between atoms: C4_4  and  C5_5
REMARK    2  A    between atoms: C5_5  and  O1_6
REMARK    3  A    between atoms: O1_6  and  N1_7
ROOT
HETATM    1  N1  UNL     1      16.018   9.832   0.057  1.00  0.00    -0.275 N
ATOM      2  H1  UNL     1      15.318   9.393   0.654  1.00  0.00     0.193 HD
HETATM    3  C6  UNL     1      16.969  10.442   0.636  1.00  0.00     0.013 C
HETATM    4  C7  UNL     1      17.017  10.488   2.103  1.00  0.00     0.082 C
HETATM    5  C8  UNL     1      17.133  11.953   2.499  1.00  0.00     0.238 C
HETATM    6  N2  UNL     1      18.009  12.700   1.617  1.00  0.00    -0.074 N
ATOM      7  H21 UNL     1      18.538  13.397   2.140  1.00  0.00     0.277 HD
ATOM      8  H22 UNL     1      17.469  13.317   1.011  1.00  0.00     0.277 HD
HETATM    9  C9  UNL     1      18.891  11.869   0.840  1.00  0.00     0.238 C
HETATM   10  C10 UNL     1      18.020  11.102  -0.146  1.00  0.00     0.082 C
ENDROOT
BRANCH   1  11
HETATM   11  O1  UNL     1      15.850   9.712  -1.285  1.00  0.00    -0.280 OA
BRANCH  11  12
HETATM   12  C5  UNL     1      14.597   9.294  -1.777  1.00  0.00     0.205 C
BRANCH  12  13
HETATM   13  C4  UNL     1      14.016  10.367  -2.696  1.00  0.00     0.012 C
HETATM   14  C3  UNL     1      14.877  10.547  -3.915  1.00  0.00     0.007 C
HETATM   15  C2  UNL     1      14.574   9.309  -4.716  1.00  0.00     0.000 C
HETATM   16  C1  UNL     1      13.245   8.784  -4.248  1.00  0.00     0.000 C
HETATM   17  C11 UNL     1      12.716   9.800  -3.258  1.00  0.00     0.007 C
ENDBRANCH  12  13
ENDBRANCH  11  12
ENDBRANCH   1  11
TORSDOF 3
ENDMDL