MODEL 5
REMARK VINA RESULT: -5.875782021      1.186      2.086
REMARK  3 active torsions:
REMARK  status: ('A' for Active; 'I' for Inactive)
REMARK    1  A    between atoms: N1_4  and  O1_6
REMARK    2  A    between atoms: O1_6  and  C4_7
REMARK    3  A    between atoms: C4_7  and  C5_8
ROOT
HETATM    1  C5  UNL     1      15.054  10.520  -0.176  1.00  0.00     0.018 C
HETATM    2  C6  UNL     1      16.053  10.459   0.927  1.00  0.00     0.040 C
HETATM    3  C7  UNL     1      15.264  10.224   2.221  1.00  0.00     0.186 C
HETATM    4  C8  UNL     1      13.811  10.460   1.786  1.00  0.00     0.038 C
HETATM    5  C9  UNL     1      13.859   9.830   0.384  1.00  0.00    -0.005 C
HETATM    6  C10 UNL     1      14.030   8.361   0.587  1.00  0.00     0.032 C
HETATM    7  C11 UNL     1      14.374   8.008   2.024  1.00  0.00     0.233 C
HETATM    8  N2  UNL     1      15.412   8.840   2.565  1.00  0.00    -0.071 N
ATOM      9  H21 UNL     1      15.481   8.723   3.576  1.00  0.00     0.277 HD
ATOM     10  H22 UNL     1      16.333   8.495   2.292  1.00  0.00     0.277 HD
ENDROOT
BRANCH   1  11
HETATM   11  C4  UNL     1      15.567   9.952  -1.463  1.00  0.00     0.206 C
BRANCH  11  12
HETATM   12  O1  UNL     1      14.876  10.620  -2.519  1.00  0.00    -0.280 OA
BRANCH  12  13
HETATM   13  N1  UNL     1      13.690  10.188  -3.016  1.00  0.00    -0.276 N
HETATM   14  C2  UNL     1      13.595   9.753  -4.211  1.00  0.00     0.002 C
HETATM   15  C1  UNL     1      14.791   9.717  -5.067  1.00  0.00     0.065 C
HETATM   16  C3  UNL     1      12.250   9.302  -4.666  1.00  0.00     0.065 C
ATOM     17  H1  UNL     1      12.860  10.212  -2.424  1.00  0.00     0.193 HD
ENDBRANCH  12  13
ENDBRANCH  11  12
ENDBRANCH   1  11
TORSDOF 3
ENDMDL