MODEL 2
REMARK VINA RESULT: -5.009822428      2.441      5.637
REMARK  2 active torsions:
REMARK  status: ('A' for Active; 'I' for Inactive)
REMARK    1  A    between atoms: C2_2  and  C3_3
REMARK    2  A    between atoms: N1_11  and  C9_12
ROOT
HETATM    1  C3  UNL     1      16.520   9.592   9.945  1.00  0.00     0.174 C
HETATM    2  O1  UNL     1      16.228   8.266   9.661  1.00  0.00    -0.377 OA
HETATM    3  C4  UNL     1      15.889   8.190   8.294  1.00  0.00     0.196 C
HETATM    4  C5  UNL     1      15.632   9.577   7.820  1.00  0.00     0.135 C
HETATM    5  C6  UNL     1      15.412  10.294   9.139  1.00  0.00     0.178 C
HETATM    6  O2  UNL     1      14.220   9.853   9.660  1.00  0.00    -0.379 OA
HETATM    7  C7  UNL     1      13.165  10.160   8.847  1.00  0.00     0.187 C
HETATM    8  C8  UNL     1      13.252   9.573   7.461  1.00  0.00     0.144 C
HETATM    9  N1  UNL     1      14.564   9.785   6.930  1.00  0.00    -0.397 N
ENDROOT
BRANCH   9  10
HETATM   10  C9  UNL     1      14.765   9.297   5.612  1.00  0.00     0.080 A
HETATM   11  C10 UNL     1      14.792  10.306   4.494  1.00  0.00     0.027 A
HETATM   12  C11 UNL     1      13.684   9.298   4.595  1.00  0.00     0.027 A
ENDBRANCH   9  10
BRANCH   1  13
HETATM   13  C2  UNL     1      16.418   9.833  11.377  1.00  0.00    -0.003 C
HETATM   14  C1  UNL     1      16.513  11.056  11.869  1.00  0.00     0.009 C
ENDBRANCH   1  13
TORSDOF 2
ENDMDL