MODEL 5
REMARK VINA RESULT: -5.208933242      2.563      3.852
REMARK  2 active torsions:
REMARK  status: ('A' for Active; 'I' for Inactive)
REMARK    1  A    between atoms: C2_2  and  C3_3
REMARK    2  A    between atoms: C7_8  and  C8_9
ROOT
HETATM    1  C3  UNL     1      13.546  10.059   9.762  1.00  0.00     0.051 C
HETATM    2  C4  UNL     1      12.513   8.984   9.438  1.00  0.00     0.282 C
HETATM    3  N1  UNL     1      13.007   8.309   8.247  1.00  0.00     0.090 N
HETATM    4  C5  UNL     1      13.059   9.261   7.135  1.00  0.00     0.273 C
HETATM    5  C6  UNL     1      14.227  10.187   7.432  1.00  0.00     0.047 C
HETATM    6  C7  UNL     1      14.635   9.742   8.788  1.00  0.00     0.046 C
HETATM    7  C11 UNL     1      14.434   8.224   8.619  1.00  0.00     0.287 C
ENDROOT
BRANCH   6   8
HETATM    8  C8  UNL     1      16.001  10.039   9.213  1.00  0.00     0.270 C
HETATM    9  O1  UNL     1      16.735   8.897   9.351  1.00  0.00    -0.358 OA
HETATM   10  C9  UNL     1      17.279   8.847  10.610  1.00  0.00     0.197 C
HETATM   11  C10 UNL     1      16.580   9.942  11.375  1.00  0.00     0.197 C
HETATM   12  O2  UNL     1      15.990  10.717  10.420  1.00  0.00    -0.358 OA
ENDBRANCH   6   8
BRANCH   1  13
HETATM   13  C2  UNL     1      12.887  11.372   9.504  1.00  0.00    -0.030 C
HETATM   14  C1  UNL     1      12.889  12.309  10.442  1.00  0.00     0.007 C
ENDBRANCH   1  13
TORSDOF 2
ENDMDL