MODEL 5
REMARK VINA RESULT: -4.980348596      1.319      1.732
REMARK  2 active torsions:
REMARK  status: ('A' for Active; 'I' for Inactive)
REMARK    1  A    between atoms: N1_7  and  C6_8
REMARK    2  A    between atoms: C6_8  and  C7_9
ROOT
HETATM    1  C1  UNL     1      13.914  10.370   3.251  1.00  0.00     0.198 C
HETATM    2  C2  UNL     1      13.675   8.936   3.628  1.00  0.00     0.198 C
HETATM    3  O1  UNL     1      13.488   9.007   5.002  1.00  0.00    -0.351 OA
HETATM    4  C3  UNL     1      14.448   9.942   5.372  1.00  0.00     0.192 C
HETATM    5  C4  UNL     1      15.768   9.210   5.554  1.00  0.00     0.100 C
HETATM    6  C5  UNL     1      15.601   8.699   6.993  1.00  0.00     0.278 C
HETATM    7  N1  UNL     1      15.160   9.919   7.639  1.00  0.00     0.094 N
HETATM    8  C10 UNL     1      14.202  10.497   6.759  1.00  0.00     0.340 C
HETATM    9  O2  UNL     1      14.495  10.901   4.396  1.00  0.00    -0.351 OA
ENDROOT
BRANCH   7  10
HETATM   10  C6  UNL     1      14.671   9.698   8.974  1.00  0.00     0.277 C
BRANCH  10  11
HETATM   11  C7  UNL     1      14.553  11.057   9.643  1.00  0.00     0.014 A
HETATM   12  C8  UNL     1      14.993  11.212  11.061  1.00  0.00     0.007 A
HETATM   13  C9  UNL     1      13.487  11.265  10.686  1.00  0.00     0.007 A
ENDBRANCH  10  11
ENDBRANCH   7  10
TORSDOF 2
ENDMDL