MODEL 1
REMARK VINA RESULT: -5.741894253      0.000      0.000
REMARK  2 active torsions:
REMARK  status: ('A' for Active; 'I' for Inactive)
REMARK    1  A    between atoms: C2_2  and  O1_3
REMARK    2  A    between atoms: O1_3  and  C3_4
ROOT
HETATM    1  C3  UNL     1      15.819   9.082   8.896  1.00  0.00     0.141 C
HETATM    2  C4  UNL     1      15.449   8.045   7.877  1.00  0.00     0.036 C
HETATM    3  C5  UNL     1      14.007   7.704   7.822  1.00  0.00     0.037 C
HETATM    4  C6  UNL     1      13.091   8.918   7.972  1.00  0.00     0.151 C
HETATM    5  O2  UNL     1      13.528   9.899   7.123  1.00  0.00    -0.382 OA
HETATM    6  C7  UNL     1      14.412  10.715   7.778  1.00  0.00     0.183 C
HETATM    7  C8  UNL     1      14.730  10.068   9.092  1.00  0.00     0.038 C
HETATM    8  C9  UNL     1      14.861  10.987  10.233  1.00  0.00     0.043 C
HETATM    9  C10 UNL     1      13.411  11.319  10.543  1.00  0.00     0.169 C
HETATM   10  O3  UNL     1      12.628  10.472   9.769  1.00  0.00    -0.382 OA
HETATM   11  C11 UNL     1      13.380   9.404   9.395  1.00  0.00     0.163 C
ENDROOT
BRANCH   1  12
HETATM   12  O1  UNL     1      16.265   8.499  10.124  1.00  0.00    -0.358 OA
BRANCH  12  13
HETATM   13  C2  UNL     1      17.530   8.857  10.606  1.00  0.00     0.125 C
HETATM   14  C1  UNL     1      18.620   8.766   9.909  1.00  0.00     0.037 C
ENDBRANCH  12  13
ENDBRANCH   1  12
TORSDOF 2
ENDMDL