MODEL 2
REMARK VINA RESULT: -5.359590207      0.151      1.320
REMARK  2 active torsions:
REMARK  status: ('A' for Active; 'I' for Inactive)
REMARK    1  A    between atoms: C4_4  and  C5_5
REMARK    2  A    between atoms: C5_5  and  N1_6
ROOT
HETATM    1  C5  UNL     1      14.418   9.041   6.217  1.00  0.00     0.095 C
ENDROOT
BRANCH   1   2
HETATM    2  C4  UNL     1      13.407   9.589   7.173  1.00  0.00     0.159 C
HETATM    3  C3  UNL     1      13.195   8.586   8.281  1.00  0.00     0.037 C
HETATM    4  C2  UNL     1      12.631   9.184   9.529  1.00  0.00     0.005 C
HETATM    5  C1  UNL     1      13.295  10.511   9.878  1.00  0.00     0.026 C
HETATM    6  C10 UNL     1      14.425  10.681   8.859  1.00  0.00     0.168 C
HETATM    7  O2  UNL     1      13.821  10.819   7.622  1.00  0.00    -0.381 OA
ENDBRANCH   1   2
BRANCH   1   8
HETATM    8  N1  UNL     1      14.267   9.502   4.904  1.00  0.00    -0.367 N
HETATM    9  C6  UNL     1      15.030  10.596   4.457  1.00  0.00     0.089 C
HETATM   10  C7  UNL     1      14.278  11.405   3.423  1.00  0.00     0.212 C
HETATM   11  O1  UNL     1      13.781  10.664   2.387  1.00  0.00    -0.385 OA
HETATM   12  C8  UNL     1      13.611   9.328   2.637  1.00  0.00     0.188 C
HETATM   13  C9  UNL     1      13.214   9.039   4.095  1.00  0.00     0.153 C
ENDBRANCH   1   8
TORSDOF 2
ENDMDL