MODEL 4
REMARK VINA RESULT: -5.232993025      0.956      1.128
REMARK  2 active torsions:
REMARK  status: ('A' for Active; 'I' for Inactive)
REMARK    1  A    between atoms: N1_4  and  C4_5
REMARK    2  A    between atoms: C4_5  and  C5_6
ROOT
HETATM    1  C4  UNL     1      15.799   9.279   5.288  1.00  0.00     0.161 C
ENDROOT
BRANCH   1   2
HETATM    2  N1  UNL     1      15.253   8.809   6.514  1.00  0.00    -0.371 N
HETATM    3  C3  UNL     1      16.103   8.897   7.630  1.00  0.00     0.063 C
HETATM    4  C2  UNL     1      15.544   8.711   8.973  1.00  0.00     0.045 C
HETATM    5  C1  UNL     1      14.156   8.066   8.984  1.00  0.00     0.010 C
HETATM    6  C10 UNL     1      13.340   8.941   8.054  1.00  0.00     0.045 C
HETATM    7  C9  UNL     1      13.887   8.661   6.664  1.00  0.00     0.063 C
ENDBRANCH   1   2
BRANCH   1   8
HETATM    8  C5  UNL     1      14.732   9.666   4.289  1.00  0.00     0.163 C
HETATM    9  C6  UNL     1      15.103  11.091   3.823  1.00  0.00     0.201 C
HETATM   10  O1  UNL     1      14.051  11.580   3.096  1.00  0.00    -0.386 OA
HETATM   11  C7  UNL     1      13.285  10.603   2.490  1.00  0.00     0.193 C
HETATM   12  C8  UNL     1      14.199   9.455   2.077  1.00  0.00     0.194 C
HETATM   13  O2  UNL     1      14.806   8.874   3.153  1.00  0.00    -0.380 OA
ENDBRANCH   1   8
TORSDOF 2
ENDMDL