MODEL 5
REMARK VINA RESULT: -5.375881524      1.959      3.061
REMARK  2 active torsions:
REMARK  status: ('A' for Active; 'I' for Inactive)
REMARK    1  A    between atoms: C2_3  and  N2_4
REMARK    2  A    between atoms: N3_7  and  C5_8
ROOT
HETATM    1  N1  UNL     1      15.971  12.069   3.204  1.00  0.00    -0.195 NA
HETATM    2  C1  UNL     1      15.740  10.932   3.366  1.00  0.00     0.089 C
HETATM    3  C2  UNL     1      15.425   9.509   3.559  1.00  0.00     0.396 C
ENDROOT
BRANCH   3   4
HETATM    4  N2  UNL     1      15.071   9.297   4.940  1.00  0.00     0.107 N
HETATM    5  C3  UNL     1      16.303   9.270   5.745  1.00  0.00     0.293 C
HETATM    6  C4  UNL     1      15.844   8.727   7.098  1.00  0.00     0.152 C
HETATM    7  N3  UNL     1      15.023   9.722   7.695  1.00  0.00    -0.385 N
HETATM    8  C10 UNL     1      13.996  10.274   6.908  1.00  0.00     0.088 C
HETATM    9  C11 UNL     1      14.323  10.422   5.467  1.00  0.00     0.318 C
BRANCH   7  10
HETATM   10  C5  UNL     1      14.762   9.416   9.033  1.00  0.00     0.083 C
HETATM   11  C6  UNL     1      15.845   9.725  10.024  1.00  0.00     0.025 C
HETATM   12  C7  UNL     1      15.436  10.938  10.797  1.00  0.00     0.002 C
HETATM   13  C8  UNL     1      14.039  11.285  10.409  1.00  0.00     0.002 C
HETATM   14  C9  UNL     1      13.564  10.085   9.652  1.00  0.00     0.025 C
ENDBRANCH   7  10
ENDBRANCH   3   4
TORSDOF 2
ENDMDL