MODEL 4
REMARK VINA RESULT: -4.885820680      1.176      1.269
REMARK  2 active torsions:
REMARK  status: ('A' for Active; 'I' for Inactive)
REMARK    1  A    between atoms: N1_4  and  C4_5
REMARK    2  A    between atoms: C4_5  and  C5_6
ROOT
HETATM    1  C1  UNL     1      13.142   9.190   9.088  1.00  0.00     0.028 C
HETATM    2  C2  UNL     1      13.138   9.333   7.584  1.00  0.00     0.022 C
HETATM    3  C3  UNL     1      14.117   8.440   6.887  1.00  0.00     0.122 C
HETATM    4  N1  UNL     1      15.490   8.796   7.007  1.00  0.00    -0.389 N
HETATM    5  C8  UNL     1      16.109   8.301   8.139  1.00  0.00     0.148 C
HETATM    6  C9  UNL     1      16.036   9.353   9.258  1.00  0.00     0.187 C
HETATM    7  O2  UNL     1      15.184  10.397   8.956  1.00  0.00    -0.390 OA
HETATM    8  C10 UNL     1      13.991  10.318   9.681  1.00  0.00     0.167 C
ENDROOT
BRANCH   4   9
HETATM    9  C4  UNL     1      16.094   9.148   5.826  1.00  0.00     0.090 C
BRANCH   9  10
HETATM   10  C5  UNL     1      15.273   9.303   4.583  1.00  0.00     0.161 C
HETATM   11  C6  UNL     1      15.705  10.535   3.775  1.00  0.00     0.063 C
HETATM   12  C7  UNL     1      15.280   9.582   2.681  1.00  0.00     0.171 C
HETATM   13  O1  UNL     1      15.796   8.555   3.495  1.00  0.00    -0.381 OA
ENDBRANCH   9  10
ENDBRANCH   4   9
TORSDOF 2
ENDMDL