MODEL 1
REMARK VINA RESULT: -5.120826459      0.000      0.000
REMARK  2 active torsions:
REMARK  status: ('A' for Active; 'I' for Inactive)
REMARK    1  A    between atoms: C1_1  and  N2_9
REMARK    2  A    between atoms: N1_2  and  C2_4
ROOT
HETATM    1  C1  UNL     1      15.847  10.467   1.807  1.00  0.00     0.174 C
HETATM    2  N1  UNL     1      15.445   9.718   0.855  1.00  0.00    -0.379 N
ATOM      3  H1  UNL     1      16.106   9.407   0.143  1.00  0.00     0.160 HD
ENDROOT
BRANCH   1   4
HETATM    4  N2  UNL     1      17.194  10.866   1.881  1.00  0.00    -0.373 N
HETATM    5  C6  UNL     1      18.130  10.073   2.616  1.00  0.00     0.149 C
HETATM    6  C7  UNL     1      19.468  10.127   1.880  1.00  0.00     0.187 C
HETATM    7  O2  UNL     1      19.273  10.489   0.542  1.00  0.00    -0.388 OA
HETATM    8  C8  UNL     1      18.939  11.848   0.538  1.00  0.00     0.187 C
HETATM    9  C9  UNL     1      17.605  12.075   1.210  1.00  0.00     0.149 C
ENDBRANCH   1   4
BRANCH   2  10
HETATM   10  C2  UNL     1      14.079   9.312   0.778  1.00  0.00     0.108 C
HETATM   11  C3  UNL     1      13.214  10.168   1.668  1.00  0.00     0.053 C
HETATM   12  C4  UNL     1      12.330   9.195   2.366  1.00  0.00     0.169 C
HETATM   13  O1  UNL     1      12.665   7.923   1.993  1.00  0.00    -0.389 OA
HETATM   14  C5  UNL     1      13.872   7.933   1.349  1.00  0.00     0.192 C
ENDBRANCH   2  10
TORSDOF 2
ENDMDL