MODEL 4
REMARK VINA RESULT: -5.598300281      2.841      4.405
REMARK  2 active torsions:
REMARK  status: ('A' for Active; 'I' for Inactive)
REMARK    1  A    between atoms: C2_3  and  O1_4
REMARK    2  A    between atoms: O1_4  and  C3_5
ROOT
HETATM    1  N1  UNL     1      20.143   9.303  11.078  1.00  0.00    -0.195 NA
HETATM    2  C1  UNL     1      19.069   9.026  10.806  1.00  0.00     0.085 C
HETATM    3  C2  UNL     1      17.716   8.678  10.461  1.00  0.00     0.291 C
ENDROOT
BRANCH   3   4
HETATM    4  O1  UNL     1      17.465   8.799   9.073  1.00  0.00    -0.372 OA
BRANCH   4   5
HETATM    5  C3  UNL     1      16.168   8.426   8.870  1.00  0.00     0.129 C
HETATM    6  C4  UNL     1      15.656   8.613   7.484  1.00  0.00     0.039 C
HETATM    7  C5  UNL     1      14.151   8.880   7.628  1.00  0.00     0.021 C
HETATM    8  C6  UNL     1      13.950  10.336   7.259  1.00  0.00     0.277 C
HETATM    9  C9  UNL     1      13.880   8.673   9.099  1.00  0.00     0.001 C
HETATM   10  N2  UNL     1      14.052  11.098   8.496  1.00  0.00     0.089 N
HETATM   11  C7  UNL     1      12.801  10.899   9.197  1.00  0.00     0.273 C
HETATM   12  C11 UNL     1      15.199  10.705   9.272  1.00  0.00     0.280 C
HETATM   13  C8  UNL     1      12.723   9.462   9.611  1.00  0.00     0.036 C
HETATM   14  C10 UNL     1      15.174   9.260   9.685  1.00  0.00     0.047 C
ENDBRANCH   4   5
ENDBRANCH   3   4
TORSDOF 2
ENDMDL