MODEL 3
REMARK VINA RESULT: -7.795298900      2.886      4.297
REMARK  10 active torsions:
REMARK  status: ('A' for Active; 'I' for Inactive)
REMARK    1  A    between atoms: C2_2  and  C3_3
REMARK    2  A    between atoms: C2_2  and  C22_27
REMARK    3  A    between atoms: C3_3  and  C4_4
REMARK    4  A    between atoms: C10_10  and  C11_11
REMARK    5  A    between atoms: C11_11  and  O1_12
REMARK    6  A    between atoms: C11_11  and  C12_14
REMARK    7  A    between atoms: C13_15  and  C14_16
REMARK    8  A    between atoms: C20_23  and  C21_24
REMARK    9  A    between atoms: C21_24  and  O3_25
REMARK   10  A    between atoms: C22_27  and  C24_29
ROOT
HETATM    1  C11 UNL     1      -9.854 -26.563   3.217  1.00  0.00     0.145 C
ENDROOT
BRANCH   1   2
HETATM    2  C10 UNL     1      -8.484 -26.084   3.544  1.00  0.00     0.023 C
HETATM    3  C4  UNL     1      -7.798 -26.704   4.728  1.00  0.00    -0.003 C
HETATM    4  C5  UNL     1      -6.853 -25.757   5.393  1.00  0.00    -0.009 C
HETATM    5  C6  UNL     1      -6.186 -24.950   4.238  1.00  0.00     0.010 C
HETATM    6  C8  UNL     1      -7.465 -24.453   5.808  1.00  0.00     0.010 C
HETATM    7  C7  UNL     1      -7.370 -24.016   4.386  1.00  0.00    -0.013 C
HETATM    8  C9  UNL     1      -8.572 -24.571   3.653  1.00  0.00     0.012 C
BRANCH   3   9
HETATM    9  C3  UNL     1      -8.665 -27.447   5.639  1.00  0.00     0.010 C
BRANCH   9  10
HETATM   10  C2  UNL     1      -8.365 -28.873   5.960  1.00  0.00    -0.004 C
HETATM   11  C1  UNL     1      -7.593 -29.678   4.997  1.00  0.00     0.011 C
BRANCH  10  12
HETATM   12  C22 UNL     1      -7.720 -29.009   7.329  1.00  0.00     0.086 C
HETATM   13  C23 UNL     1      -6.570 -29.983   7.170  1.00  0.00     0.021 C
BRANCH  12  14
HETATM   14  C24 UNL     1      -8.649 -29.376   8.383  1.00  0.00     0.176 C
HETATM   15  O4  UNL     1      -8.800 -28.647   9.385  1.00  0.00    -0.648 OA
HETATM   16  O5  UNL     1      -9.383 -30.541   8.296  1.00  0.00    -0.648 OA
ENDBRANCH  12  14
ENDBRANCH  10  12
ENDBRANCH   9  10
ENDBRANCH   3   9
ENDBRANCH   1   2
BRANCH   1  17
HETATM   17  O1  UNL     1     -10.903 -25.755   3.586  1.00  0.00    -0.391 OA
ATOM     18  H1  UNL     1     -11.568 -26.139   4.144  1.00  0.00     0.210 HD
ENDBRANCH   1  17
BRANCH   1  19
HETATM   19  C12 UNL     1      -9.894 -26.846   1.753  1.00  0.00     0.001 C
HETATM   20  C13 UNL     1     -10.888 -26.446   0.971  1.00  0.00    -0.023 C
BRANCH  20  21
HETATM   21  C14 UNL     1     -10.868 -26.757  -0.458  1.00  0.00     0.018 C
HETATM   22  C15 UNL     1     -12.041 -27.640  -0.836  1.00  0.00    -0.004 C
HETATM   23  C16 UNL     1     -13.357 -26.968  -0.623  1.00  0.00     0.011 C
HETATM   24  C17 UNL     1     -11.891 -28.113  -2.271  1.00  0.00     0.083 C
HETATM   25  C18 UNL     1     -11.482 -27.050  -3.195  1.00  0.00     0.127 C
HETATM   26  O2  UNL     1     -11.938 -26.889  -4.322  1.00  0.00    -0.298 OA
HETATM   27  C19 UNL     1     -10.434 -26.081  -2.751  1.00  0.00     0.085 C
HETATM   28  C20 UNL     1     -10.870 -25.587  -1.380  1.00  0.00     0.024 C
BRANCH  28  29
HETATM   29  C21 UNL     1      -9.901 -24.504  -0.972  1.00  0.00     0.169 C
BRANCH  29  30
HETATM   30  O3  UNL     1      -8.589 -24.831  -1.297  1.00  0.00    -0.400 OA
ATOM     31  H3  UNL     1      -7.986 -24.126  -1.091  1.00  0.00     0.209 HD
ENDBRANCH  29  30
ENDBRANCH  28  29
ENDBRANCH  20  21
ENDBRANCH   1  19
TORSDOF 10
ENDMDL