MODEL 3
REMARK VINA RESULT: -9.699548534      2.685      3.847
REMARK  9 active torsions:
REMARK  status: ('A' for Active; 'I' for Inactive)
REMARK    1  A    between atoms: C2_2  and  C3_3
REMARK    2  A    between atoms: C7_7  and  C8_8
REMARK    3  A    between atoms: C8_8  and  C9_9
REMARK    4  A    between atoms: C9_9  and  C10_10
REMARK    5  A    between atoms: C10_10  and  C11_12
REMARK    6  A    between atoms: C11_12  and  C12_13
REMARK    7  A    between atoms: C12_13  and  O2_14
REMARK    8  A    between atoms: C12_13  and  C13_16
REMARK    9  A    between atoms: C13_16  and  C14_17
ROOT
HETATM    1  C12 UNL     1      -9.179 -25.311   3.925  1.00  0.00     0.126 C
ENDROOT
BRANCH   1   2
HETATM    2  C11 UNL     1      -8.173 -25.168   4.983  1.00  0.00     0.110 C
BRANCH   2   3
HETATM    3  C10 UNL     1      -6.812 -24.723   4.551  1.00  0.00     0.129 C
HETATM    4  O1  UNL     1      -6.297 -25.106   3.519  1.00  0.00    -0.298 OA
BRANCH   3   5
HETATM    5  C9  UNL     1      -6.035 -23.789   5.381  1.00  0.00     0.081 C
BRANCH   5   6
HETATM    6  C8  UNL     1      -4.578 -23.868   5.315  1.00  0.00     0.039 C
BRANCH   6   7
HETATM    7  C7  UNL     1      -3.751 -22.847   5.955  1.00  0.00     0.122 C
HETATM    8  C6  UNL     1      -4.441 -22.000   6.956  1.00  0.00     0.032 C
HETATM    9  C5  UNL     1      -3.560 -21.926   8.246  1.00  0.00     0.005 C
HETATM   10  C4  UNL     1      -2.158 -21.574   7.874  1.00  0.00     0.032 C
HETATM   11  C3  UNL     1      -1.687 -22.452   6.750  1.00  0.00     0.121 C
HETATM   12  O4  UNL     1      -2.604 -23.469   6.552  1.00  0.00    -0.381 OA
BRANCH  11  13
HETATM   13  C2  UNL     1      -0.340 -23.080   7.113  1.00  0.00     0.027 C
HETATM   14  C1  UNL     1       0.474 -22.005   7.791  1.00  0.00     0.007 C
ENDBRANCH  11  13
ENDBRANCH   6   7
ENDBRANCH   5   6
ENDBRANCH   3   5
ENDBRANCH   2   3
ENDBRANCH   1   2
BRANCH   1  15
HETATM   15  O2  UNL     1     -10.038 -24.180   4.034  1.00  0.00    -0.395 OA
ATOM     16  H2  UNL     1     -10.074 -23.959   4.958  1.00  0.00     0.210 HD
ENDBRANCH   1  15
BRANCH   1  17
HETATM   17  C13 UNL     1      -9.950 -26.544   3.752  1.00  0.00     0.043 C
BRANCH  17  18
HETATM   18  C14 UNL     1      -9.918 -27.279   2.477  1.00  0.00    -0.021 C
HETATM   19  C15 UNL     1     -11.061 -27.096   1.531  1.00  0.00     0.017 C
HETATM   20  C16 UNL     1      -8.668 -26.899   1.641  1.00  0.00     0.012 C
HETATM   21  C17 UNL     1      -8.287 -28.214   0.941  1.00  0.00     0.010 C
HETATM   22  C18 UNL     1      -8.368 -29.128   2.133  1.00  0.00     0.036 C
HETATM   23  C19 UNL     1      -9.732 -28.746   2.689  1.00  0.00     0.101 C
HETATM   24  C21 UNL     1      -8.391 -30.582   1.839  1.00  0.00     0.033 C
HETATM   25  N1  UNL     1      -9.735 -29.211   4.036  1.00  0.00    -0.337 N
HETATM   26  C20 UNL     1      -9.466 -30.633   4.142  1.00  0.00     0.317 C
ATOM     27  H1  UNL     1      -9.908 -28.608   4.840  1.00  0.00     0.164 HD
HETATM   28  O3  UNL     1      -9.557 -31.255   5.209  1.00  0.00    -0.247 OA
HETATM   29  N2  UNL     1      -9.086 -31.259   2.917  1.00  0.00    -0.334 N
ATOM     30  H2  UNL     1      -9.318 -32.244   2.792  1.00  0.00     0.165 HD
HETATM   31  C22 UNL     1      -6.933 -31.065   1.778  1.00  0.00     0.038 C
HETATM   32  C23 UNL     1      -8.984 -30.900   0.487  1.00  0.00     0.038 C
ENDBRANCH  17  18
ENDBRANCH   1  17
TORSDOF 9
ENDMDL