MODEL 1
REMARK VINA RESULT: -6.748659724      0.000      0.000
REMARK  9 active torsions:
REMARK  status: ('A' for Active; 'I' for Inactive)
REMARK    1  A    between atoms: C2_2  and  C3_3
REMARK    2  A    between atoms: C3_3  and  C4_4
REMARK    3  A    between atoms: C4_4  and  C5_5
REMARK    4  A    between atoms: C6_6  and  C7_7
REMARK    5  A    between atoms: C8_8  and  C9_9
REMARK       I    between atoms: N1_12  and  C10_13
REMARK       I    between atoms: C10_13  and  N2_15
REMARK    6  A    between atoms: N2_15  and  C11_17
REMARK    7  A    between atoms: C11_17  and  C12_18
REMARK    8  A    between atoms: C12_18  and  C13_19
REMARK    9  A    between atoms: C20_27  and  O5_29
ROOT
HETATM    1  C7  UNL     1     -10.786 -26.754  -0.887  1.00  0.00     0.052 C
HETATM    2  C8  UNL     1     -10.099 -25.770   0.085  1.00  0.00     0.198 C
HETATM    3  N1  UNL     1      -9.639 -26.653   1.144  1.00  0.00    -0.313 N
HETATM    4  C10 UNL     1      -9.520 -26.245   2.527  1.00  0.00     0.319 C
HETATM    5  O3  UNL     1      -9.782 -25.069   2.866  1.00  0.00    -0.247 OA
HETATM    6  N2  UNL     1      -9.107 -27.179   3.520  1.00  0.00    -0.343 N
ATOM      7  H2  UNL     1      -8.885 -28.147   3.285  1.00  0.00     0.164 HD
HETATM    8  C16 UNL     1      -9.361 -27.905   0.597  1.00  0.00     0.102 C
HETATM    9  C17 UNL     1      -7.942 -28.380   0.477  1.00  0.00     0.057 C
HETATM   10  C18 UNL     1      -8.050 -29.714  -0.267  1.00  0.00     0.123 C
HETATM   11  C19 UNL     1      -7.058 -29.779  -1.416  1.00  0.00     0.040 C
HETATM   12  O4  UNL     1      -9.300 -30.117  -0.580  1.00  0.00    -0.350 OA
HETATM   13  C20 UNL     1     -10.147 -29.220  -1.225  1.00  0.00     0.164 C
HETATM   14  C21 UNL     1     -10.098 -29.365  -2.732  1.00  0.00     0.079 C
HETATM   15  C22 UNL     1      -9.806 -27.844  -0.851  1.00  0.00     0.081 C
ENDROOT
BRANCH   2  16
HETATM   16  C9  UNL     1      -9.095 -24.935  -0.527  1.00  0.00     0.197 C
HETATM   17  O1  UNL     1      -8.564 -25.129  -1.625  1.00  0.00    -0.646 OA
HETATM   18  O2  UNL     1      -8.683 -23.797   0.187  1.00  0.00    -0.646 OA
ENDBRANCH   2  16
BRANCH   1  19
HETATM   19  C6  UNL     1     -12.155 -27.068  -0.492  1.00  0.00    -0.023 C
HETATM   20  C5  UNL     1     -13.209 -26.794  -1.236  1.00  0.00    -0.030 C
BRANCH  20  21
HETATM   21  C4  UNL     1     -14.562 -27.153  -0.744  1.00  0.00     0.027 C
BRANCH  21  22
HETATM   22  C3  UNL     1     -15.415 -27.759  -1.839  1.00  0.00     0.003 C
BRANCH  22  23
HETATM   23  C2  UNL     1     -14.607 -28.810  -2.551  1.00  0.00    -0.004 C
HETATM   24  C1  UNL     1     -14.684 -30.158  -1.899  1.00  0.00     0.005 C
ENDBRANCH  22  23
ENDBRANCH  21  22
ENDBRANCH  20  21
ENDBRANCH   1  19
BRANCH   6  25
HETATM   25  C11 UNL     1      -9.017 -26.690   4.871  1.00  0.00     0.125 C
BRANCH  25  26
HETATM   26  C12 UNL     1      -7.658 -26.528   5.419  1.00  0.00     0.023 C
BRANCH  26  27
HETATM   27  C13 UNL     1      -7.132 -25.142   5.467  1.00  0.00    -0.021 C
HETATM   28  C14 UNL     1      -8.131 -24.048   5.431  1.00  0.00     0.009 C
HETATM   29  C15 UNL     1      -6.142 -24.953   4.290  1.00  0.00     0.009 C
ENDBRANCH  26  27
ENDBRANCH  25  26
ENDBRANCH   6  25
BRANCH  13  30
HETATM   30  O5  UNL     1     -11.440 -29.615  -0.824  1.00  0.00    -0.365 OA
ATOM     31  H5  UNL     1     -11.574 -29.166   0.003  1.00  0.00     0.213 HD
ENDBRANCH  13  30
TORSDOF 9
ENDMDL