MODEL 2
REMARK VINA RESULT: -7.869550283      2.824      7.002
REMARK  11 active torsions:
REMARK  status: ('A' for Active; 'I' for Inactive)
REMARK    1  A    between atoms: C2_2  and  C3_3
REMARK    2  A    between atoms: C3_3  and  C4_4
REMARK    3  A    between atoms: C4_4  and  C5_5
REMARK    4  A    between atoms: C5_5  and  C6_6
REMARK    5  A    between atoms: C6_6  and  C7_7
REMARK    6  A    between atoms: N2_12  and  C9_13
REMARK    7  A    between atoms: C9_13  and  C10_14
REMARK    8  A    between atoms: C14_18  and  C15_19
REMARK    9  A    between atoms: C15_19  and  C16_20
REMARK   10  A    between atoms: C17_23  and  C18_24
REMARK   11  A    between atoms: C24_32  and  O2_33
ROOT
HETATM    1  C7  UNL     1      -8.158 -24.957   4.977  1.00  0.00     0.058 A
HETATM    2  C8  UNL     1      -9.055 -23.967   4.610  1.00  0.00     0.272 A
HETATM    3  O1  UNL     1      -9.082 -22.728   4.934  1.00  0.00    -0.266 OA
HETATM    4  N1  UNL     1      -9.946 -24.561   3.810  1.00  0.00    -0.263 N
ATOM      5  H1  UNL     1     -10.732 -24.069   3.385  1.00  0.00     0.190 HD
HETATM    6  N2  UNL     1      -9.711 -25.839   3.624  1.00  0.00    -0.288 N
HETATM    7  C14 UNL     1      -8.575 -26.117   4.356  1.00  0.00     0.068 A
ENDROOT
BRANCH   7   8
HETATM    8  C15 UNL     1      -8.041 -27.309   4.378  1.00  0.00     0.066 C
BRANCH   8   9
HETATM    9  C16 UNL     1      -8.008 -28.350   5.366  1.00  0.00     0.087 A
HETATM   10  N3  UNL     1      -8.302 -28.313   6.685  1.00  0.00    -0.342 N
HETATM   11  C17 UNL     1      -8.090 -29.519   7.235  1.00  0.00     0.087 A
ATOM     12  H3  UNL     1      -8.635 -27.491   7.187  1.00  0.00     0.167 HD
HETATM   13  N4  UNL     1      -7.660 -30.312   6.242  1.00  0.00    -0.324 N
HETATM   14  C24 UNL     1      -7.593 -29.646   5.086  1.00  0.00     0.169 A
ATOM     15  H4  UNL     1      -7.414 -31.296   6.356  1.00  0.00     0.169 HD
BRANCH  11  16
HETATM   16  C18 UNL     1      -8.301 -29.923   8.663  1.00  0.00     0.053 C
HETATM   17  C19 UNL     1      -7.056 -30.645   9.111  1.00  0.00     0.012 C
HETATM   18  C20 UNL     1      -6.094 -29.636   9.698  1.00  0.00     0.001 C
HETATM   19  C21 UNL     1      -6.595 -29.302  11.101  1.00  0.00     0.000 C
HETATM   20  C22 UNL     1      -8.085 -29.091  11.006  1.00  0.00     0.001 C
HETATM   21  C23 UNL     1      -8.483 -28.716   9.572  1.00  0.00     0.012 C
ENDBRANCH  11  16
BRANCH  14  22
HETATM   22  O2  UNL     1      -7.188 -30.183   3.876  1.00  0.00    -0.344 OA
ATOM     23  H2  UNL     1      -6.308 -30.276   3.533  1.00  0.00     0.219 HD
ENDBRANCH  14  22
ENDBRANCH   8   9
ENDBRANCH   7   8
BRANCH   1  24
HETATM   24  C6  UNL     1      -7.144 -24.723   5.763  1.00  0.00    -0.007 C
BRANCH  24  25
HETATM   25  C5  UNL     1      -5.914 -23.967   5.425  1.00  0.00     0.028 C
BRANCH  25  26
HETATM   26  C4  UNL     1      -5.644 -22.789   6.291  1.00  0.00     0.004 C
BRANCH  26  27
HETATM   27  C3  UNL     1      -4.125 -22.624   6.397  1.00  0.00    -0.000 C
BRANCH  27  28
HETATM   28  C2  UNL     1      -3.812 -21.991   7.749  1.00  0.00    -0.005 C
HETATM   29  C1  UNL     1      -2.377 -21.497   7.778  1.00  0.00     0.005 C
ENDBRANCH  27  28
ENDBRANCH  26  27
ENDBRANCH  25  26
ENDBRANCH  24  25
ENDBRANCH   1  24
BRANCH   6  30
HETATM   30  C9  UNL     1     -10.532 -26.761   2.838  1.00  0.00     0.157 C
BRANCH  30  31
HETATM   31  C10 UNL     1     -10.164 -26.793   1.390  1.00  0.00    -0.033 C
HETATM   32  C11 UNL     1     -11.429 -26.845   0.537  1.00  0.00     0.016 C
HETATM   33  C12 UNL     1      -9.320 -25.649   0.910  1.00  0.00     0.016 C
HETATM   34  C13 UNL     1      -9.395 -28.061   1.034  1.00  0.00     0.016 C
ENDBRANCH  30  31
ENDBRANCH   6  30
TORSDOF 11
ENDMDL