MODEL 3
REMARK VINA RESULT: -6.462803263      2.220      4.210
REMARK  10 active torsions:
REMARK  status: ('A' for Active; 'I' for Inactive)
REMARK    1  A    between atoms: C6_6  and  O1_8
REMARK    2  A    between atoms: C8_10  and  C9_11
REMARK       I    between atoms: C9_11  and  N1_13
REMARK    3  A    between atoms: N1_13  and  C10_15
REMARK    4  A    between atoms: C10_15  and  C11_16
REMARK    5  A    between atoms: C13_18  and  O3_19
REMARK    6  A    between atoms: C17_24  and  C18_25
REMARK    7  A    between atoms: C18_25  and  C19_26
REMARK    8  A    between atoms: C19_26  and  C20_27
REMARK    9  A    between atoms: C20_27  and  C21_29
REMARK   10  A    between atoms: C21_29  and  C22_30
ROOT
HETATM    1  C1  UNL     1      -9.398 -31.072   0.475  1.00  0.00     0.014 C
HETATM    2  C2  UNL     1      -9.373 -29.805   0.150  1.00  0.00    -0.084 C
HETATM    3  C3  UNL     1      -8.010 -29.170  -0.060  1.00  0.00     0.034 C
HETATM    4  C4  UNL     1      -8.002 -28.064   1.017  1.00  0.00     0.013 C
HETATM    5  C5  UNL     1      -9.107 -27.091   0.808  1.00  0.00     0.030 C
HETATM    6  C6  UNL     1      -8.904 -25.941   1.767  1.00  0.00     0.073 C
HETATM    7  C7  UNL     1      -7.431 -25.527   1.588  1.00  0.00     0.047 C
HETATM    8  C8  UNL     1      -9.035 -26.417   3.172  1.00  0.00     0.141 C
HETATM    9  C13 UNL     1     -10.293 -27.207   3.439  1.00  0.00     0.135 C
HETATM   10  C14 UNL     1     -10.560 -28.280   2.432  1.00  0.00     0.042 C
HETATM   11  C15 UNL     1     -10.467 -27.780   1.033  1.00  0.00    -0.028 C
HETATM   12  C16 UNL     1     -11.498 -26.747   0.756  1.00  0.00     0.016 C
HETATM   13  C17 UNL     1     -10.505 -28.875  -0.002  1.00  0.00     0.023 C
ENDROOT
BRANCH  13  14
HETATM   14  C18 UNL     1     -11.771 -29.566  -0.232  1.00  0.00     0.017 C
BRANCH  14  15
HETATM   15  C19 UNL     1     -12.053 -29.677  -1.712  1.00  0.00     0.079 C
BRANCH  15  16
HETATM   16  C20 UNL     1     -12.574 -28.428  -2.285  1.00  0.00     0.127 C
HETATM   17  O4  UNL     1     -13.634 -27.986  -1.918  1.00  0.00    -0.298 OA
BRANCH  16  18
HETATM   18  C21 UNL     1     -11.799 -27.706  -3.315  1.00  0.00     0.082 C
BRANCH  18  19
HETATM   19  C22 UNL     1     -10.967 -26.585  -2.722  1.00  0.00    -0.016 C
HETATM   20  C23 UNL     1     -11.356 -25.317  -3.466  1.00  0.00     0.010 C
HETATM   21  C24 UNL     1      -9.478 -26.820  -2.940  1.00  0.00     0.010 C
ENDBRANCH  18  19
ENDBRANCH  16  18
ENDBRANCH  15  16
ENDBRANCH  14  15
ENDBRANCH  13  14
BRANCH   6  22
HETATM   22  O1  UNL     1      -9.632 -24.824   1.436  1.00  0.00    -0.389 OA
ATOM     23  H1  UNL     1      -9.546 -24.120   2.068  1.00  0.00     0.210 HD
ENDBRANCH   6  22
BRANCH   9  24
HETATM   24  O3  UNL     1     -10.081 -27.861   4.677  1.00  0.00    -0.395 OA
ATOM     25  H3  UNL     1      -9.190 -27.651   4.931  1.00  0.00     0.210 HD
ENDBRANCH   9  24
BRANCH   8  26
HETATM   26  C9  UNL     1      -8.978 -25.316   4.141  1.00  0.00     0.227 C
HETATM   27  O2  UNL     1     -10.007 -24.618   4.347  1.00  0.00    -0.273 OA
HETATM   28  N1  UNL     1      -7.828 -24.967   4.885  1.00  0.00    -0.361 N
ATOM     29  H1  UNL     1      -6.980 -25.513   4.735  1.00  0.00     0.162 HD
BRANCH  28  30
HETATM   30  C10 UNL     1      -7.772 -23.891   5.840  1.00  0.00     0.122 C
BRANCH  30  31
HETATM   31  C11 UNL     1      -6.422 -23.249   5.976  1.00  0.00     0.015 C
HETATM   32  C12 UNL     1      -5.462 -24.081   5.112  1.00  0.00     0.006 C
ENDBRANCH  30  31
ENDBRANCH  28  30
ENDBRANCH   8  26
TORSDOF 10
ENDMDL