MODEL 5
REMARK VINA RESULT: -7.334421930      3.686      7.133
REMARK  9 active torsions:
REMARK  status: ('A' for Active; 'I' for Inactive)
REMARK    1  A    between atoms: C2_2  and  C3_3
REMARK    2  A    between atoms: C3_3  and  S1_4
REMARK    3  A    between atoms: S1_4  and  C4_5
REMARK    4  A    between atoms: C4_5  and  C5_6
REMARK       I    between atoms: C5_6  and  N1_8
REMARK    5  A    between atoms: N1_8  and  C6_10
REMARK    6  A    between atoms: C6_10  and  C7_11
REMARK    7  A    between atoms: C13_17  and  O2_18
REMARK    8  A    between atoms: C16_22  and  N2_23
REMARK    9  A    between atoms: N2_23  and  C17_25
ROOT
HETATM    1  C7  UNL     1      -9.531 -26.829   1.314  1.00  0.00     0.031 C
HETATM    2  C8  UNL     1     -10.723 -27.392   0.703  1.00  0.00     0.025 C
HETATM    3  C9  UNL     1     -10.804 -28.913   0.885  1.00  0.00    -0.012 C
HETATM    4  C10 UNL     1      -9.636 -29.507   0.106  1.00  0.00     0.012 C
HETATM    5  C11 UNL     1      -8.362 -28.984   0.747  1.00  0.00     0.017 C
HETATM    6  C12 UNL     1      -8.349 -27.499   0.538  1.00  0.00     0.028 C
HETATM    7  C13 UNL     1      -8.246 -29.354   2.206  1.00  0.00     0.132 C
HETATM    8  C14 UNL     1      -9.438 -28.686   2.946  1.00  0.00     0.061 C
HETATM    9  C15 UNL     1     -10.632 -29.318   2.298  1.00  0.00     0.017 C
HETATM   10  C16 UNL     1      -9.259 -27.230   2.778  1.00  0.00     0.003 C
ENDROOT
BRANCH   1  11
HETATM   11  C6  UNL     1      -9.253 -25.382   1.202  1.00  0.00     0.079 C
BRANCH  11  12
HETATM   12  N1  UNL     1      -9.893 -24.602   0.224  1.00  0.00    -0.339 N
HETATM   13  C5  UNL     1      -9.520 -24.370  -1.110  1.00  0.00     0.230 C
HETATM   14  O1  UNL     1      -8.524 -24.853  -1.693  1.00  0.00    -0.272 OA
ATOM     15  H1  UNL     1     -10.750 -24.138   0.526  1.00  0.00     0.167 HD
BRANCH  13  16
HETATM   16  C4  UNL     1     -10.362 -23.460  -1.980  1.00  0.00     0.176 C
BRANCH  16  17
HETATM   17  S1  UNL     1     -11.133 -24.420  -3.283  1.00  0.00    -0.160 SA
BRANCH  17  18
HETATM   18  C3  UNL     1     -10.381 -24.067  -4.875  1.00  0.00     0.074 C
BRANCH  18  19
HETATM   19  C2  UNL     1      -9.152 -23.181  -4.649  1.00  0.00     0.006 C
HETATM   20  C1  UNL     1      -9.078 -22.114  -5.722  1.00  0.00     0.006 C
ENDBRANCH  18  19
ENDBRANCH  17  18
ENDBRANCH  16  17
ENDBRANCH  13  16
ENDBRANCH  11  12
ENDBRANCH   1  11
BRANCH  10  21
HETATM   21  N2  UNL     1      -9.654 -26.315   3.720  1.00  0.00    -0.390 N
ATOM     22  H2  UNL     1     -10.605 -25.974   3.584  1.00  0.00     0.159 HD
BRANCH  21  23
HETATM   23  C17 UNL     1      -9.024 -25.771   4.806  1.00  0.00     0.081 C
HETATM   24  C18 UNL     1      -7.552 -26.026   5.012  1.00  0.00     0.025 C
HETATM   25  C19 UNL     1      -6.772 -25.129   4.055  1.00  0.00     0.006 C
HETATM   26  C20 UNL     1      -6.724 -23.762   4.719  1.00  0.00    -0.019 C
HETATM   27  C21 UNL     1      -5.598 -23.792   5.727  1.00  0.00     0.010 C
HETATM   28  C22 UNL     1      -8.045 -23.546   5.427  1.00  0.00     0.006 C
HETATM   29  C23 UNL     1      -9.179 -24.235   4.739  1.00  0.00     0.025 C
ENDBRANCH  21  23
ENDBRANCH  10  21
BRANCH   7  30
HETATM   30  O2  UNL     1      -8.223 -30.707   2.381  1.00  0.00    -0.394 OA
ATOM     31  H2  UNL     1      -9.083 -31.046   2.598  1.00  0.00     0.210 HD
ENDBRANCH   7  30
TORSDOF 9
ENDMDL