MODEL 5
REMARK VINA RESULT: -6.809882909      2.048      8.666
REMARK  9 active torsions:
REMARK  status: ('A' for Active; 'I' for Inactive)
REMARK    1  A    between atoms: O1_2  and  C2_3
REMARK    2  A    between atoms: C2_3  and  C3_4
REMARK    3  A    between atoms: C3_4  and  N1_5
REMARK       I    between atoms: N1_5  and  C4_6
REMARK    4  A    between atoms: N1_5  and  C17_28
REMARK       I    between atoms: C4_6  and  N2_8
REMARK    5  A    between atoms: N2_8  and  C5_10
REMARK    6  A    between atoms: N4_15  and  C8_17
REMARK    7  A    between atoms: C8_17  and  C10_19
REMARK    8  A    between atoms: C10_19  and  O3_20
REMARK    9  A    between atoms: C11_22  and  C12_23
ROOT
HETATM    1  C5  UNL     1     -10.097 -25.561  -0.200  1.00  0.00     0.058 A
HETATM    2  C6  UNL     1      -9.351 -24.526   0.308  1.00  0.00     0.119 A
HETATM    3  N3  UNL     1      -8.829 -24.520   1.556  1.00  0.00    -0.350 N
ATOM      4  H3  UNL     1      -8.281 -23.730   1.897  1.00  0.00     0.166 HD
HETATM    5  C7  UNL     1      -9.057 -25.580   2.320  1.00  0.00     0.108 A
HETATM    6  N4  UNL     1      -8.573 -25.610   3.529  1.00  0.00    -0.369 N
ATOM      7  H4  UNL     1      -8.769 -26.441   4.088  1.00  0.00     0.161 HD
HETATM    8  C11 UNL     1      -9.816 -26.690   1.872  1.00  0.00    -0.002 A
HETATM    9  C15 UNL     1     -10.339 -26.682   0.618  1.00  0.00    -0.023 A
HETATM   10  C16 UNL     1     -11.198 -27.799   0.200  1.00  0.00     0.051 C
ENDROOT
BRANCH   1  11
HETATM   11  N2  UNL     1     -10.584 -25.575  -1.523  1.00  0.00    -0.307 N
HETATM   12  C4  UNL     1      -9.932 -25.282  -2.719  1.00  0.00     0.323 C
HETATM   13  N1  UNL     1     -10.527 -25.329  -4.037  1.00  0.00    -0.327 N
HETATM   14  O2  UNL     1      -8.725 -24.940  -2.716  1.00  0.00    -0.247 OA
ATOM     15  H2  UNL     1     -11.563 -25.841  -1.619  1.00  0.00     0.170 HD
BRANCH  13  16
HETATM   16  C3  UNL     1      -9.616 -24.965  -5.135  1.00  0.00     0.154 C
BRANCH  16  17
HETATM   17  C2  UNL     1     -10.349 -24.155  -6.148  1.00  0.00     0.187 C
BRANCH  17  18
HETATM   18  O1  UNL     1     -10.314 -22.776  -5.872  1.00  0.00    -0.394 OA
HETATM   19  C1  UNL     1      -9.081 -22.329  -5.469  1.00  0.00     0.201 C
ENDBRANCH  17  18
ENDBRANCH  16  17
ENDBRANCH  13  16
BRANCH  13  20
HETATM   20  C17 UNL     1     -11.857 -25.763  -4.270  1.00  0.00     0.089 C
HETATM   21  C18 UNL     1     -12.847 -25.292  -3.207  1.00  0.00     0.025 C
HETATM   22  C19 UNL     1     -14.157 -26.045  -3.471  1.00  0.00     0.002 C
HETATM   23  C20 UNL     1     -14.050 -27.486  -2.996  1.00  0.00     0.000 C
HETATM   24  C21 UNL     1     -12.609 -27.906  -3.175  1.00  0.00     0.002 C
HETATM   25  C22 UNL     1     -12.082 -27.239  -4.424  1.00  0.00     0.025 C
ENDBRANCH  13  20
ENDBRANCH   1  11
BRANCH   8  26
HETATM   26  C12 UNL     1      -9.933 -27.755   2.851  1.00  0.00     0.023 A
HETATM   27  C13 UNL     1     -10.327 -29.132   2.713  1.00  0.00     0.010 A
HETATM   28  C14 UNL     1      -8.853 -28.838   2.781  1.00  0.00     0.010 A
ENDBRANCH   8  26
BRANCH   6  29
HETATM   29  C8  UNL     1      -7.796 -24.589   4.142  1.00  0.00     0.102 C
HETATM   30  C9  UNL     1      -6.793 -25.266   5.086  1.00  0.00     0.034 C
BRANCH  29  31
HETATM   31  C10 UNL     1      -8.742 -23.824   5.076  1.00  0.00     0.188 C
BRANCH  31  32
HETATM   32  O3  UNL     1      -9.915 -23.471   4.434  1.00  0.00    -0.399 OA
ATOM     33  H3  UNL     1     -10.507 -24.210   4.355  1.00  0.00     0.209 HD
ENDBRANCH  31  32
ENDBRANCH  29  31
ENDBRANCH   6  29
TORSDOF 9
ENDMDL