MODEL 1
REMARK VINA RESULT: -7.677644828      0.000      0.000
REMARK  11 active torsions:
REMARK  status: ('A' for Active; 'I' for Inactive)
REMARK       I    between atoms: C2_2  and  N1_4
REMARK    1  A    between atoms: N1_4  and  C3_6
REMARK    2  A    between atoms: C3_6  and  C4_7
REMARK    3  A    between atoms: C3_6  and  C12_16
REMARK    4  A    between atoms: C4_7  and  C5_9
REMARK    5  A    between atoms: C12_16  and  C14_18
REMARK    6  A    between atoms: C12_16  and  C20_28
REMARK    7  A    between atoms: C14_18  and  C15_19
REMARK    8  A    between atoms: C15_19  and  O3_20
REMARK    9  A    between atoms: C15_19  and  C16_22
REMARK   10  A    between atoms: C16_22  and  O4_23
REMARK   11  A    between atoms: C16_22  and  C17_25
ROOT
HETATM    1  C12 UNL     1      -9.614 -27.227   1.387  1.00  0.00     0.008 C
HETATM    2  C13 UNL     1      -8.583 -27.541   0.226  1.00  0.00     0.022 C
ENDROOT
BRANCH   1   3
HETATM    3  C3  UNL     1      -9.366 -25.819   1.762  1.00  0.00     0.067 C
BRANCH   3   4
HETATM    4  N1  UNL     1      -9.975 -24.826   0.878  1.00  0.00    -0.327 N
HETATM    5  C2  UNL     1      -9.480 -24.471  -0.403  1.00  0.00     0.218 C
HETATM    6  C1  UNL     1     -10.210 -23.450  -1.186  1.00  0.00     0.117 C
HETATM    7  O1  UNL     1      -8.454 -24.981  -0.905  1.00  0.00    -0.274 OA
ATOM      8  H1  UNL     1     -10.818 -24.354   1.207  1.00  0.00     0.168 HD
ENDBRANCH   3   4
BRANCH   3   9
HETATM    9  C4  UNL     1      -8.052 -25.354   2.216  1.00  0.00     0.177 C
HETATM   10  O2  UNL     1      -7.058 -25.672   1.527  1.00  0.00    -0.291 OA
BRANCH   9  11
HETATM   11  C5  UNL     1      -7.761 -24.532   3.401  1.00  0.00     0.070 C
HETATM   12  C6  UNL     1      -8.875 -24.583   4.429  1.00  0.00    -0.003 C
HETATM   13  C7  UNL     1      -8.796 -25.975   4.948  1.00  0.00     0.006 C
HETATM   14  C11 UNL     1      -8.245 -23.687   5.492  1.00  0.00     0.006 C
HETATM   15  C8  UNL     1      -7.342 -26.389   4.741  1.00  0.00     0.006 C
HETATM   16  C9  UNL     1      -6.682 -25.102   4.316  1.00  0.00    -0.003 C
HETATM   17  C10 UNL     1      -6.775 -24.138   5.481  1.00  0.00     0.006 C
ENDBRANCH   9  11
ENDBRANCH   3   9
ENDBRANCH   1   3
BRANCH   1  18
HETATM   18  C14 UNL     1     -10.935 -27.600   0.836  1.00  0.00     0.050 C
BRANCH  18  19
HETATM   19  C15 UNL     1     -11.190 -27.878  -0.583  1.00  0.00     0.148 C
BRANCH  19  20
HETATM   20  O3  UNL     1     -11.637 -29.121  -0.941  1.00  0.00    -0.393 OA
ATOM     21  H3  UNL     1     -12.239 -29.197  -1.671  1.00  0.00     0.210 HD
ENDBRANCH  19  20
BRANCH  19  22
HETATM   22  C16 UNL     1     -12.186 -26.816  -1.064  1.00  0.00     0.150 C
BRANCH  22  23
HETATM   23  O4  UNL     1     -12.624 -26.065   0.047  1.00  0.00    -0.393 OA
ATOM     24  H4  UNL     1     -11.865 -25.772   0.539  1.00  0.00     0.210 HD
ENDBRANCH  22  23
BRANCH  22  25
HETATM   25  C17 UNL     1     -13.350 -27.327  -1.824  1.00  0.00     0.009 C
HETATM   26  C18 UNL     1     -13.560 -26.745  -3.185  1.00  0.00     0.012 C
HETATM   27  C19 UNL     1     -14.634 -27.224  -0.998  1.00  0.00     0.012 C
ENDBRANCH  22  25
ENDBRANCH  19  22
ENDBRANCH  18  19
ENDBRANCH   1  18
BRANCH   1  28
HETATM   28  C20 UNL     1      -9.184 -28.290   2.390  1.00  0.00    -0.000 C
HETATM   29  C21 UNL     1      -8.325 -29.398   1.960  1.00  0.00     0.006 C
HETATM   30  C22 UNL     1      -8.172 -30.138   3.342  1.00  0.00     0.000 C
HETATM   31  C23 UNL     1      -9.547 -30.002   3.952  1.00  0.00     0.000 C
HETATM   32  C24 UNL     1     -10.302 -28.973   3.101  1.00  0.00     0.006 C
ENDBRANCH   1  28
TORSDOF 11
ENDMDL