MODEL 4
REMARK VINA RESULT: -9.195038208      1.897      2.474
REMARK  8 active torsions:
REMARK  status: ('A' for Active; 'I' for Inactive)
REMARK    1  A    between atoms: C5_5  and  N1_6
REMARK    2  A    between atoms: N1_6  and  C6_9
REMARK    3  A    between atoms: C6_9  and  C7_10
REMARK    4  A    between atoms: C7_10  and  C8_11
REMARK    5  A    between atoms: C8_11  and  N2_12
REMARK    6  A    between atoms: N2_12  and  C9_15
REMARK    7  A    between atoms: C9_15  and  C10_16
REMARK    8  A    between atoms: C10_16  and  C11_17
ROOT
HETATM    1  C1  UNL     1     -10.678 -28.859   0.974  1.00  0.00     0.018 C
HETATM    2  C2  UNL     1     -10.009 -27.475   0.889  1.00  0.00    -0.014 C
HETATM    3  C3  UNL     1      -8.630 -27.722   0.386  1.00  0.00     0.018 C
HETATM    4  C4  UNL     1      -9.956 -26.858   2.265  1.00  0.00     0.054 C
HETATM    5  C5  UNL     1      -9.123 -25.603   2.253  1.00  0.00     0.277 C
HETATM    6  C17 UNL     1      -9.316 -24.871   0.956  1.00  0.00     0.249 C
HETATM    7  O1  UNL     1      -8.505 -24.003   0.612  1.00  0.00    -0.271 OA
HETATM    8  N3  UNL     1     -10.427 -25.211   0.181  1.00  0.00    -0.344 N
ATOM      9  H3  UNL     1     -10.970 -24.470  -0.263  1.00  0.00     0.163 HD
HETATM   10  C18 UNL     1     -10.830 -26.606  -0.011  1.00  0.00     0.083 C
HETATM   11  C19 UNL     1     -12.293 -26.699   0.277  1.00  0.00     0.043 C
HETATM   12  C20 UNL     1     -12.927 -27.342  -0.916  1.00  0.00     0.043 C
HETATM   13  C21 UNL     1     -11.922 -27.281  -1.974  1.00  0.00    -0.033 A
HETATM   14  C22 UNL     1     -11.991 -27.549  -3.349  1.00  0.00     0.010 A
HETATM   15  C23 UNL     1     -10.864 -27.404  -4.103  1.00  0.00     0.018 A
HETATM   16  C24 UNL     1      -9.655 -27.004  -3.565  1.00  0.00     0.088 A
HETATM   17  N4  UNL     1      -9.621 -26.755  -2.246  1.00  0.00    -0.367 N
ATOM     18  H4  UNL     1      -8.741 -26.457  -1.824  1.00  0.00     0.165 HD
HETATM   19  C25 UNL     1     -10.723 -26.885  -1.449  1.00  0.00     0.044 A
ENDROOT
BRANCH   5  20
HETATM   20  N1  UNL     1      -9.612 -24.655   3.279  1.00  0.00    -0.062 N
ATOM     21  H12 UNL     1      -9.672 -23.698   2.932  1.00  0.00     0.278 HD
ATOM     22  H11 UNL     1     -10.600 -24.787   3.496  1.00  0.00     0.278 HD
BRANCH  20  23
HETATM   23  C6  UNL     1      -8.766 -24.771   4.445  1.00  0.00     0.235 C
BRANCH  23  24
HETATM   24  C7  UNL     1      -8.079 -23.451   4.759  1.00  0.00     0.055 C
BRANCH  24  25
HETATM   25  C8  UNL     1      -6.726 -23.735   5.317  1.00  0.00     0.233 C
BRANCH  25  26
HETATM   26  N2  UNL     1      -6.296 -22.749   6.253  1.00  0.00    -0.075 N
ATOM     27  H22 UNL     1      -6.628 -21.819   5.997  1.00  0.00     0.277 HD
ATOM     28  H21 UNL     1      -6.777 -22.846   7.147  1.00  0.00     0.277 HD
BRANCH  26  29
HETATM   29  C9  UNL     1      -4.853 -22.773   6.420  1.00  0.00     0.232 C
BRANCH  29  30
HETATM   30  C10 UNL     1      -4.341 -21.959   7.571  1.00  0.00     0.032 C
BRANCH  30  31
HETATM   31  C11 UNL     1      -2.869 -22.266   7.710  1.00  0.00    -0.013 C
HETATM   32  C12 UNL     1      -2.288 -22.968   6.473  1.00  0.00     0.005 C
HETATM   33  C13 UNL     1      -0.931 -23.494   6.992  1.00  0.00     0.000 C
HETATM   34  C14 UNL     1      -0.070 -22.327   7.341  1.00  0.00     0.000 C
HETATM   35  C15 UNL     1      -0.695 -21.302   8.226  1.00  0.00     0.000 C
HETATM   36  C16 UNL     1      -2.085 -20.939   7.748  1.00  0.00     0.005 C
ENDBRANCH  30  31
ENDBRANCH  29  30
ENDBRANCH  26  29
ENDBRANCH  25  26
ENDBRANCH  24  25
ENDBRANCH  23  24
ENDBRANCH  20  23
ENDBRANCH   5  20
TORSDOF 8
ENDMDL