MODEL 4
REMARK VINA RESULT: -7.577021096      2.955      5.552
REMARK  10 active torsions:
REMARK  status: ('A' for Active; 'I' for Inactive)
REMARK    1  A    between atoms: C2_2  and  C3_3
REMARK    2  A    between atoms: C3_3  and  N1_4
REMARK       I    between atoms: N1_4  and  C4_6
REMARK    3  A    between atoms: C4_6  and  C5_8
REMARK    4  A    between atoms: C5_8  and  C6_9
REMARK    5  A    between atoms: C5_8  and  C22_30
REMARK    6  A    between atoms: C6_9  and  C7_10
REMARK    7  A    between atoms: C7_10  and  C8_11
REMARK    8  A    between atoms: C8_11  and  C10_13
REMARK    9  A    between atoms: C15_18  and  O2_19
REMARK   10  A    between atoms: C16_22  and  O4_23
ROOT
HETATM    1  C10 UNL     1      -8.629 -27.674   2.369  1.00  0.00    -0.002 C
HETATM    2  C11 UNL     1      -9.483 -28.918   1.934  1.00  0.00     0.006 C
HETATM    3  C12 UNL     1      -9.498 -28.759   0.427  1.00  0.00     0.006 C
HETATM    4  C13 UNL     1      -9.024 -27.368   0.196  1.00  0.00     0.003 C
HETATM    5  C14 UNL     1      -9.323 -26.712  -1.015  1.00  0.00     0.054 C
HETATM    6  C15 UNL     1     -10.608 -26.794  -1.752  1.00  0.00     0.265 C
HETATM    7  O3  UNL     1     -10.192 -26.052  -2.906  1.00  0.00    -0.331 OA
HETATM    8  C16 UNL     1      -9.905 -24.830  -2.238  1.00  0.00     0.264 C
HETATM    9  C17 UNL     1      -9.070 -25.226  -1.040  1.00  0.00     0.050 C
HETATM   10  C18 UNL     1      -9.436 -24.568   0.229  1.00  0.00     0.011 C
HETATM   11  C19 UNL     1      -8.871 -25.314   1.434  1.00  0.00     0.010 C
HETATM   12  C20 UNL     1      -9.357 -26.692   1.565  1.00  0.00    -0.036 C
HETATM   13  C21 UNL     1     -10.848 -26.821   1.727  1.00  0.00     0.016 C
ENDROOT
BRANCH   1  14
HETATM   14  C8  UNL     1      -8.384 -27.688   3.803  1.00  0.00    -0.014 C
HETATM   15  C9  UNL     1      -9.588 -27.347   4.677  1.00  0.00     0.010 C
BRANCH  14  16
HETATM   16  C7  UNL     1      -7.339 -26.727   4.250  1.00  0.00     0.005 C
BRANCH  16  17
HETATM   17  C6  UNL     1      -7.510 -25.932   5.479  1.00  0.00     0.015 C
BRANCH  17  18
HETATM   18  C5  UNL     1      -7.224 -24.492   5.518  1.00  0.00     0.081 C
BRANCH  18  19
HETATM   19  C4  UNL     1      -5.836 -24.096   5.447  1.00  0.00     0.226 C
HETATM   20  N1  UNL     1      -5.206 -23.249   6.411  1.00  0.00    -0.337 N
ATOM     21  H1  UNL     1      -5.798 -22.914   7.172  1.00  0.00     0.168 HD
HETATM   22  O1  UNL     1      -5.058 -24.478   4.508  1.00  0.00    -0.273 OA
BRANCH  20  23
HETATM   23  C3  UNL     1      -3.862 -22.823   6.434  1.00  0.00     0.090 C
BRANCH  23  24
HETATM   24  C2  UNL     1      -3.413 -22.098   7.613  1.00  0.00     0.007 C
HETATM   25  C1  UNL     1      -2.311 -21.440   7.846  1.00  0.00     0.012 C
ENDBRANCH  23  24
ENDBRANCH  20  23
ENDBRANCH  18  19
BRANCH  18  26
HETATM   26  C22 UNL     1      -8.078 -23.670   4.582  1.00  0.00    -0.010 C
HETATM   27  C23 UNL     1      -9.552 -23.912   4.766  1.00  0.00     0.010 C
HETATM   28  C24 UNL     1      -7.859 -22.209   4.902  1.00  0.00     0.010 C
ENDBRANCH  18  26
ENDBRANCH  17  18
ENDBRANCH  16  17
ENDBRANCH  14  16
ENDBRANCH   1  14
BRANCH   6  29
HETATM   29  O2  UNL     1     -11.640 -25.975  -1.299  1.00  0.00    -0.371 OA
ATOM     30  H2  UNL     1     -12.130 -26.285  -0.547  1.00  0.00     0.212 HD
ENDBRANCH   6  29
BRANCH   8  31
HETATM   31  O4  UNL     1      -9.058 -24.138  -3.136  1.00  0.00    -0.371 OA
ATOM     32  H4  UNL     1      -9.285 -23.224  -3.010  1.00  0.00     0.212 HD
ENDBRANCH   8  31
TORSDOF 10
ENDMDL