MODEL 5
REMARK VINA RESULT: -5.663701302      2.460      4.580
REMARK  2 active torsions:
REMARK  status: ('A' for Active; 'I' for Inactive)
REMARK    1  A    between atoms: C10_11  and  C11_12
REMARK    2  A    between atoms: C11_12  and  O2_13
ROOT
HETATM    1  C1  UNL     1      13.080  -5.265  18.547  1.00  0.00     0.048 C
HETATM    2  C2  UNL     1      11.771  -5.860  18.148  1.00  0.00     0.079 C
HETATM    3  C3  UNL     1      10.832  -5.763  19.357  1.00  0.00     0.048 C
HETATM    4  C4  UNL     1      11.881  -7.314  17.746  1.00  0.00     0.209 C
HETATM    5  O1  UNL     1      12.111  -7.216  16.400  1.00  0.00    -0.352 OA
HETATM    6  C5  UNL     1      11.499  -6.062  15.920  1.00  0.00     0.168 C
HETATM    7  C6  UNL     1      12.485  -5.297  15.135  1.00  0.00     0.077 C
HETATM    8  C7  UNL     1      12.414  -5.449  13.635  1.00  0.00    -0.034 C
HETATM    9  C8  UNL     1      13.008  -4.180  13.069  1.00  0.00     0.015 C
HETATM   10  C9  UNL     1      13.380  -6.564  13.196  1.00  0.00     0.015 C
HETATM   11  C10 UNL     1      11.045  -5.696  13.124  1.00  0.00     0.057 C
HETATM   12  C12 UNL     1      10.393  -6.860  13.852  1.00  0.00     0.125 C
HETATM   13  C13 UNL     1      10.194  -6.382  15.274  1.00  0.00     0.112 C
HETATM   14  O3  UNL     1      11.372  -7.908  13.966  1.00  0.00    -0.321 OA
HETATM   15  C14 UNL     1      11.013  -9.233  14.189  1.00  0.00     0.136 C
HETATM   16  N1  UNL     1      11.867 -10.156  14.445  1.00  0.00    -0.382 N
ATOM     17  H11 UNL     1      11.604 -11.128  14.609  1.00  0.00     0.158 HD
ATOM     18  H12 UNL     1      12.871  -9.987  14.504  1.00  0.00     0.158 HD
HETATM   19  C15 UNL     1       9.540  -9.481  14.102  1.00  0.00     0.254 C
HETATM   20  O4  UNL     1       9.096  -8.752  13.042  1.00  0.00    -0.354 OA
HETATM   21  C16 UNL     1       9.145  -7.365  13.197  1.00  0.00     0.166 C
HETATM   22  C17 UNL     1       7.870  -6.994  13.893  1.00  0.00     0.067 C
HETATM   23 CL1  UNL     1       9.020  -6.784  11.490  1.00  0.00    -0.085 Cl
HETATM   24  O5  UNL     1      11.175  -5.289  17.061  1.00  0.00    -0.343 OA
ENDROOT
BRANCH  11  25
HETATM   25  C11 UNL     1      10.230  -4.456  13.167  1.00  0.00     0.172 C
BRANCH  25  26
HETATM   26  O2  UNL     1      10.013  -3.844  11.947  1.00  0.00    -0.400 OA
ATOM     27  H2  UNL     1       9.110  -3.620  11.756  1.00  0.00     0.209 HD
ENDBRANCH  25  26
ENDBRANCH  11  25
TORSDOF 2
ENDMDL