MODEL 2
REMARK VINA RESULT: -6.770412177      3.207      5.967
REMARK  1 active torsions:
REMARK  status: ('A' for Active; 'I' for Inactive)
REMARK       I    between atoms: C2_2  and  N1_4
REMARK    1  A    between atoms: N1_4  and  C3_6
ROOT
HETATM    1  C3  UNL     1      13.898  -4.408  14.210  1.00  0.00     0.221 C
HETATM    2  N2  UNL     1      12.810  -4.560  13.558  1.00  0.00    -0.355 N
ATOM      3  H2  UNL     1      12.819  -4.160  12.620  1.00  0.00     0.163 HD
HETATM    4  C4  UNL     1      11.595  -5.190  13.919  1.00  0.00     0.150 C
HETATM    5  C5  UNL     1      10.943  -5.654  12.602  1.00  0.00     0.252 C
HETATM    6  N3  UNL     1      10.505  -7.029  12.779  1.00  0.00    -0.071 N
ATOM      7  H31 UNL     1      10.542  -7.315  13.758  1.00  0.00     0.277 HD
ATOM      8  H32 UNL     1      11.180  -7.693  12.400  1.00  0.00     0.277 HD
HETATM    9  C6  UNL     1       9.186  -7.221  12.212  1.00  0.00     0.270 C
HETATM   10  C7  UNL     1       8.313  -7.779  13.334  1.00  0.00     0.205 C
HETATM   11  F1  UNL     1       8.415  -6.927  14.396  1.00  0.00    -0.247 F
HETATM   12  C8  UNL     1       8.788  -9.148  13.718  1.00  0.00     0.124 C
HETATM   13  S1  UNL     1      10.360  -9.014  14.597  1.00  0.00    -0.095 SA
HETATM   14  S2  UNL     1      10.432 -10.430  16.199  1.00  0.00    -0.098 SA
HETATM   15  C9  UNL     1      11.207  -9.623  17.615  1.00  0.00     0.086 C
HETATM   16  C10 UNL     1      12.705  -9.460  17.367  1.00  0.00     0.011 C
HETATM   17  C11 UNL     1      13.227  -8.553  18.453  1.00  0.00     0.001 C
HETATM   18  C12 UNL     1      14.572  -7.981  18.103  1.00  0.00     0.000 C
HETATM   19  C13 UNL     1      14.503  -6.619  17.482  1.00  0.00     0.002 C
HETATM   20  C14 UNL     1      13.096  -6.078  17.405  1.00  0.00     0.027 C
HETATM   21  C15 UNL     1      13.153  -4.795  16.568  1.00  0.00     0.178 C
HETATM   22  O2  UNL     1      14.019  -4.898  15.484  1.00  0.00    -0.322 OA
ENDROOT
BRANCH   1  23
HETATM   23  N1  UNL     1      14.965  -3.720  13.574  1.00  0.00    -0.293 N
HETATM   24  C2  UNL     1      15.787  -4.391  12.648  1.00  0.00     0.220 C
HETATM   25  C1  UNL     1      16.891  -3.663  11.997  1.00  0.00     0.117 C
HETATM   26  O1  UNL     1      15.584  -5.598  12.378  1.00  0.00    -0.274 OA
ATOM     27  H1  UNL     1      15.137  -2.738  13.790  1.00  0.00     0.172 HD
ENDBRANCH   1  23
TORSDOF 1
ENDMDL