MODEL 4
REMARK VINA RESULT: -7.320419730      2.147      6.408
REMARK  2 active torsions:
REMARK  status: ('A' for Active; 'I' for Inactive)
REMARK    1  A    between atoms: C8_15  and  O1_16
REMARK    2  A    between atoms: O1_16  and  C9_17
ROOT
HETATM    1  C1  UNL     1      11.542  -6.783  18.574  1.00  0.00     0.054 C
HETATM    2  C2  UNL     1      12.353  -6.363  17.391  1.00  0.00     0.012 A
HETATM    3  C3  UNL     1      13.374  -5.427  17.525  1.00  0.00     0.124 A
HETATM    4  C4  UNL     1      13.602  -4.895  18.840  1.00  0.00     0.118 C
HETATM    5  N1  UNL     1      13.788  -4.462  19.896  1.00  0.00    -0.190 NA
HETATM    6  N2  UNL     1      14.116  -5.034  16.474  1.00  0.00    -0.331 N
ATOM      7  H2  UNL     1      14.852  -4.345  16.631  1.00  0.00     0.168 HD
HETATM    8  C5  UNL     1      13.937  -5.506  15.223  1.00  0.00     0.137 A
HETATM    9  N3  UNL     1      14.545  -5.262  14.049  1.00  0.00    -0.337 N
ATOM     10  H3  UNL     1      15.320  -4.621  13.878  1.00  0.00     0.168 HD
HETATM   11  C6  UNL     1      13.921  -6.041  13.147  1.00  0.00     0.182 A
HETATM   12  N4  UNL     1      12.946  -6.752  13.745  1.00  0.00    -0.347 N
ATOM     13  H4  UNL     1      12.327  -7.417  13.280  1.00  0.00     0.167 HD
HETATM   14  C7  UNL     1      12.922  -6.441  15.071  1.00  0.00     0.112 A
HETATM   15  C8  UNL     1      12.149  -6.859  16.128  1.00  0.00     0.117 A
ENDROOT
BRANCH  15  16
HETATM   16  O1  UNL     1      11.147  -7.792  15.945  1.00  0.00    -0.291 OA
BRANCH  16  17
HETATM   17  C9  UNL     1      10.309  -7.715  14.825  1.00  0.00     0.164 C
HETATM   18  N5  UNL     1       9.819  -6.602  14.473  1.00  0.00    -0.360 N
HETATM   19  C10 UNL     1       8.953  -6.523  13.316  1.00  0.00     0.049 C
ATOM     20  H5  UNL     1      10.035  -5.759  15.006  1.00  0.00     0.162 HD
HETATM   21  C11 UNL     1       9.780  -6.168  12.127  1.00  0.00     0.041 C
HETATM   22  C12 UNL     1       8.010  -5.342  13.592  1.00  0.00     0.041 C
HETATM   23  C13 UNL     1       8.115  -7.747  13.128  1.00  0.00     0.045 C
HETATM   24  C14 UNL     1       7.764  -7.879  11.653  1.00  0.00     0.040 C
HETATM   25  C15 UNL     1       6.775  -7.568  13.854  1.00  0.00     0.040 C
HETATM   26  N6  UNL     1       8.684  -8.960  13.565  1.00  0.00    -0.384 N
HETATM   27  C16 UNL     1      10.007  -8.929  14.068  1.00  0.00     0.166 C
ATOM     28  H6  UNL     1       8.159  -9.833  13.519  1.00  0.00     0.156 HD
HETATM   29  C17 UNL     1      10.154 -10.119  15.027  1.00  0.00     0.065 C
HETATM   30 CL1  UNL     1      11.219  -9.223  12.774  1.00  0.00    -0.087 Cl
ENDBRANCH  16  17
ENDBRANCH  15  16
TORSDOF 2
ENDMDL