MODEL 5
REMARK VINA RESULT: -7.474311254      1.031      1.264
REMARK  1 active torsions:
REMARK  status: ('A' for Active; 'I' for Inactive)
REMARK    1  A    between atoms: C5_5  and  O1_6
ROOT
HETATM    1  C1  UNL     1       9.463  -5.485  13.802  1.00  0.00     0.051 C
HETATM    2  C2  UNL     1      10.575  -6.459  14.062  1.00  0.00     0.109 C
HETATM    3  C3  UNL     1      10.073  -7.835  13.932  1.00  0.00     0.045 C
HETATM    4  C4  UNL     1      10.954  -8.907  14.496  1.00  0.00     0.035 C
HETATM    5  C5  UNL     1      10.770  -9.140  15.977  1.00  0.00     0.118 C
HETATM    6  C6  UNL     1      12.056  -9.636  16.621  1.00  0.00     0.032 C
HETATM    7  C7  UNL     1      12.000  -9.598  18.110  1.00  0.00     0.002 C
HETATM    8  C8  UNL     1      12.103  -8.174  18.628  1.00  0.00     0.000 C
HETATM    9  C9  UNL     1      13.447  -7.780  19.092  1.00  0.00     0.004 C
HETATM   10  C10 UNL     1      14.283  -6.971  18.166  1.00  0.00     0.048 C
HETATM   11  C11 UNL     1      13.848  -5.549  17.979  1.00  0.00     0.221 C
HETATM   12 CL1  UNL     1      13.742  -4.833  19.629  1.00  0.00    -0.095 Cl
HETATM   13  O2  UNL     1      12.649  -5.356  17.379  1.00  0.00    -0.329 OA
HETATM   14  C12 UNL     1      12.612  -4.898  16.110  1.00  0.00     0.237 C
HETATM   15  C13 UNL     1      13.052  -3.503  15.872  1.00  0.00     0.252 C
HETATM   16  O3  UNL     1      13.272  -3.195  14.532  1.00  0.00    -0.317 OA
HETATM   17  C14 UNL     1      12.964  -4.095  13.465  1.00  0.00     0.215 C
HETATM   18  N1  UNL     1      12.926  -3.750  12.258  1.00  0.00    -0.365 N
ATOM     19  H11 UNL     1      12.706  -4.393  11.497  1.00  0.00     0.159 HD
ATOM     20  H12 UNL     1      13.118  -2.792  11.968  1.00  0.00     0.159 HD
HETATM   21  N2  UNL     1      12.699  -5.418  13.865  1.00  0.00    -0.339 N
HETATM   22  C15 UNL     1      11.736  -6.138  13.090  1.00  0.00     0.167 C
HETATM   23  C16 UNL     1      13.392  -5.789  15.112  1.00  0.00     0.200 C
HETATM   24  O4  UNL     1      11.261  -5.000  15.676  1.00  0.00    -0.196 OA
HETATM   25  O5  UNL     1      11.022  -6.233  15.384  1.00  0.00    -0.225 OA
ENDROOT
BRANCH   5  26
HETATM   26  O1  UNL     1       9.855 -10.214  16.089  1.00  0.00    -0.396 OA
ATOM     27  H1  UNL     1       9.260  -9.977  16.790  1.00  0.00     0.210 HD
ENDBRANCH   5  26
TORSDOF 1
ENDMDL