MODEL 5
REMARK VINA RESULT: -6.264393657      3.081      5.247
REMARK  5 active torsions:
REMARK  status: ('A' for Active; 'I' for Inactive)
REMARK    1  A    between atoms: C2_2  and  N1_5
REMARK    2  A    between atoms: N1_5  and  C5_7
REMARK    3  A    between atoms: C5_7  and  O1_8
REMARK    4  A    between atoms: C5_7  and  N2_10
REMARK    5  A    between atoms: N4_21  and  O2_22
ROOT
HETATM    1  N2  UNL     1      10.996  -7.444  15.052  1.00  0.00    -0.257 N
HETATM    2  C6  UNL     1      11.187  -8.172  16.224  1.00  0.00     0.080 A
HETATM    3  C7  UNL     1      11.166  -9.463  16.656  1.00  0.00     0.046 A
HETATM    4 BR1  UNL     1      10.763 -11.086  15.631  1.00  0.00    -0.048 Br
HETATM    5  C8  UNL     1      11.429  -9.681  18.003  1.00  0.00     0.072 A
HETATM    6  S1  UNL     1      11.686  -8.124  18.607  1.00  0.00    -0.097 SA
HETATM    7  C9  UNL     1      11.464  -7.236  17.181  1.00  0.00     0.049 A
HETATM    8  C10 UNL     1      11.452  -5.957  16.660  1.00  0.00     0.049 A
HETATM    9  C11 UNL     1      11.634  -4.641  16.987  1.00  0.00     0.126 A
HETATM   10  N3  UNL     1      11.455  -3.980  15.858  1.00  0.00    -0.283 N
ATOM     11  H3  UNL     1      11.521  -2.967  15.755  1.00  0.00     0.188 HD
HETATM   12  N4  UNL     1      11.170  -4.848  14.856  1.00  0.00    -0.145 N
HETATM   13  C12 UNL     1      11.157  -6.107  15.324  1.00  0.00     0.175 A
ENDROOT
BRANCH   1  14
HETATM   14  C5  UNL     1      10.781  -7.951  13.771  1.00  0.00     0.226 C
BRANCH  14  15
HETATM   15  N1  UNL     1       9.901  -7.611  12.751  1.00  0.00    -0.348 N
ATOM     16  H1  UNL     1      10.265  -7.186  11.898  1.00  0.00     0.163 HD
BRANCH  15  17
HETATM   17  C2  UNL     1       8.438  -7.854  12.876  1.00  0.00     0.022 C
HETATM   18  C1  UNL     1       7.878  -8.234  11.529  1.00  0.00     0.037 C
HETATM   19  C3  UNL     1       7.733  -6.584  13.306  1.00  0.00     0.037 C
HETATM   20  C4  UNL     1       8.185  -8.978  13.851  1.00  0.00     0.037 C
ENDBRANCH  15  17
ENDBRANCH  14  15
BRANCH  14  21
HETATM   21  O1  UNL     1      11.539  -8.954  13.429  1.00  0.00    -0.332 OA
ATOM     22  H1  UNL     1      11.325  -9.734  13.926  1.00  0.00     0.221 HD
ENDBRANCH  14  21
ENDBRANCH   1  14
BRANCH  12  23
HETATM   23  O2  UNL     1      10.963  -4.423  13.572  1.00  0.00    -0.266 OA
ATOM     24  H2  UNL     1      11.356  -4.866  12.829  1.00  0.00     0.247 HD
ENDBRANCH  12  23
TORSDOF 5
ENDMDL