MODEL 2
REMARK VINA RESULT: -6.956683328      1.771      4.573
REMARK  2 active torsions:
REMARK  status: ('A' for Active; 'I' for Inactive)
REMARK    1  A    between atoms: C3_3  and  O1_4
REMARK    2  A    between atoms: C6_8  and  O2_10
ROOT
HETATM    1  C1  UNL     1      12.279  -3.867  11.953  1.00  0.00     0.015 C
HETATM    2  C2  UNL     1      11.638  -4.387  13.191  1.00  0.00     0.040 C
HETATM    3  C3  UNL     1      10.608  -5.444  12.753  1.00  0.00     0.124 C
HETATM    4  C4  UNL     1       9.636  -5.757  13.833  1.00  0.00     0.035 C
HETATM    5  C5  UNL     1       9.617  -7.136  14.344  1.00  0.00     0.046 C
HETATM    6  C6  UNL     1      10.830  -7.752  14.917  1.00  0.00     0.111 C
HETATM    7  C7  UNL     1      11.522  -8.576  13.833  1.00  0.00     0.051 C
HETATM    8  C8  UNL     1      11.831  -6.858  15.550  1.00  0.00     0.210 C
HETATM    9  O3  UNL     1      13.070  -7.552  15.551  1.00  0.00    -0.317 OA
HETATM   10  C9  UNL     1      13.379  -7.378  16.906  1.00  0.00     0.313 C
HETATM   11  O4  UNL     1      14.402  -6.407  16.908  1.00  0.00    -0.206 OA
HETATM   12  O5  UNL     1      14.014  -5.486  16.151  1.00  0.00    -0.229 OA
HETATM   13  C10 UNL     1      14.757  -4.728  15.378  1.00  0.00     0.214 A
HETATM   14  C11 UNL     1      15.154  -4.861  13.989  1.00  0.00     0.142 A
HETATM   15  C12 UNL     1      16.143  -3.872  13.405  1.00  0.00     0.055 C
HETATM   16  F1  UNL     1      15.192  -6.064  13.312  1.00  0.00    -0.239 F
HETATM   17  C13 UNL     1      13.785  -4.245  14.253  1.00  0.00     0.053 A
HETATM   18  C14 UNL     1      13.641  -2.767  14.168  1.00  0.00     0.024 C
HETATM   19  C15 UNL     1      12.645  -5.188  14.057  1.00  0.00     0.145 C
HETATM   20  O6  UNL     1      11.921  -5.601  15.078  1.00  0.00    -0.345 OA
HETATM   21  C16 UNL     1      11.987  -6.787  17.029  1.00  0.00     0.065 C
HETATM   22  C17 UNL     1      11.949  -5.363  17.610  1.00  0.00     0.026 C
HETATM   23  C18 UNL     1      11.191  -7.668  17.939  1.00  0.00     0.026 C
ENDROOT
BRANCH   6  24
HETATM   24  O2  UNL     1      10.330  -8.745  15.806  1.00  0.00    -0.385 OA
ATOM     25  H2  UNL     1       9.632  -9.165  15.316  1.00  0.00     0.210 HD
ENDBRANCH   6  24
BRANCH   3  26
HETATM   26  O1  UNL     1       9.996  -4.850  11.619  1.00  0.00    -0.395 OA
ATOM     27  H1  UNL     1       9.109  -4.682  11.914  1.00  0.00     0.210 HD
ENDBRANCH   3  26
TORSDOF 2
ENDMDL