MODEL 1
REMARK VINA RESULT: -6.961344089      0.000      0.000
REMARK  4 active torsions:
REMARK  status: ('A' for Active; 'I' for Inactive)
REMARK    1  A    between atoms: C2_2  and  C4_5
REMARK    2  A    between atoms: C5_6  and  C6_7
REMARK    3  A    between atoms: C11_18  and  N5_19
REMARK    4  A    between atoms: N5_19  and  C12_21
ROOT
HETATM    1  C6  UNL     1      10.402  -6.906  14.421  1.00  0.00     0.079 A
HETATM    2  C7  UNL     1       9.116  -6.701  13.916  1.00  0.00     0.094 A
HETATM    3  N1  UNL     1       8.131  -7.659  14.166  1.00  0.00    -0.099 NA
HETATM    4  C8  UNL     1       8.969  -5.538  13.208  1.00  0.00     0.140 A
HETATM    5  C9  UNL     1       7.635  -5.304  12.672  1.00  0.00     0.107 C
HETATM    6  N2  UNL     1       6.573  -5.106  12.254  1.00  0.00    -0.191 NA
HETATM    7  C10 UNL     1       9.950  -4.624  12.983  1.00  0.00     0.290 A
HETATM    8  O1  UNL     1       9.647  -3.608  12.313  1.00  0.00    -0.264 OA
HETATM    9  N3  UNL     1      11.218  -4.833  13.485  1.00  0.00    -0.209 N
HETATM   10  N4  UNL     1      12.221  -4.031  13.330  1.00  0.00    -0.269 N
ATOM     11  H4  UNL     1      12.117  -3.164  12.805  1.00  0.00     0.190 HD
HETATM   12  C11 UNL     1      13.394  -4.363  13.873  1.00  0.00     0.162 A
HETATM   13  S1  UNL     1      13.037  -5.857  14.618  1.00  0.00    -0.032 SA
HETATM   14  C16 UNL     1      11.391  -5.951  14.175  1.00  0.00     0.125 A
ENDROOT
BRANCH   1  15
HETATM   15  C5  UNL     1      10.698  -8.076  15.178  1.00  0.00    -0.060 C
HETATM   16  C4  UNL     1      10.937  -9.073  15.839  1.00  0.00    -0.075 C
BRANCH  16  17
HETATM   17  C2  UNL     1      11.210 -10.265  16.650  1.00  0.00     0.093 C
HETATM   18  C1  UNL     1      10.427 -10.260  17.929  1.00  0.00     0.046 C
HETATM   19  C3  UNL     1      12.684 -10.264  16.988  1.00  0.00     0.046 C
HETATM   20 CL1  UNL     1      10.790 -11.756  15.753  1.00  0.00    -0.106 Cl
ENDBRANCH  16  17
ENDBRANCH   1  15
BRANCH  12  21
HETATM   21  N5  UNL     1      14.538  -3.766  13.878  1.00  0.00    -0.361 N
ATOM     22  H5  UNL     1      14.581  -2.832  14.287  1.00  0.00     0.162 HD
BRANCH  21  23
HETATM   23  C12 UNL     1      15.747  -4.311  13.354  1.00  0.00     0.021 C
HETATM   24  C13 UNL     1      15.544  -5.253  12.184  1.00  0.00     0.037 C
HETATM   25  C14 UNL     1      16.492  -4.990  14.503  1.00  0.00     0.037 C
HETATM   26  C15 UNL     1      16.643  -3.192  12.855  1.00  0.00     0.037 C
ENDBRANCH  21  23
ENDBRANCH  12  21
TORSDOF 4
ENDMDL