MODEL 4
REMARK VINA RESULT: -6.855032101      3.961      8.542
REMARK  3 active torsions:
REMARK  status: ('A' for Active; 'I' for Inactive)
REMARK    1  A    between atoms: C3_4  and  C4_5
REMARK    2  A    between atoms: C7_8  and  C8_9
REMARK    3  A    between atoms: C9_10  and  C10_11
ROOT
HETATM    1  N1  UNL     1       5.529  -5.194  13.397  1.00  0.00    -0.182 NA
HETATM    2  C1  UNL     1       6.666  -5.032  13.358  1.00  0.00     0.152 C
HETATM    3  C2  UNL     1       8.067  -4.817  13.293  1.00  0.00     0.018 C
HETATM    4  C3  UNL     1       9.255  -4.613  13.237  1.00  0.00    -0.051 C
ENDROOT
BRANCH   4   5
HETATM    5  C4  UNL     1      10.674  -4.346  13.179  1.00  0.00     0.020 A
HETATM    6  C5  UNL     1      11.303  -3.900  12.042  1.00  0.00     0.022 A
HETATM    7  C6  UNL     1      12.659  -3.665  12.056  1.00  0.00     0.024 A
HETATM    8  C7  UNL     1      13.445  -3.857  13.180  1.00  0.00     0.038 A
HETATM    9  C16 UNL     1      12.816  -4.305  14.323  1.00  0.00     0.064 A
HETATM   10  C17 UNL     1      13.585  -4.523  15.527  1.00  0.00     0.101 C
HETATM   11  C18 UNL     1      11.444  -4.543  14.310  1.00  0.00     0.044 A
HETATM   12  N6  UNL     1      14.187  -4.709  16.507  1.00  0.00    -0.191 NA
BRANCH   8  13
HETATM   13  C8  UNL     1      14.868  -3.595  13.145  1.00  0.00    -0.062 C
HETATM   14  C9  UNL     1      16.054  -3.368  13.096  1.00  0.00    -0.052 C
BRANCH  14  15
HETATM   15  C10 UNL     1      17.497  -3.071  13.023  1.00  0.00     0.202 C
HETATM   16  C11 UNL     1      17.811  -2.698  11.635  1.00  0.00     0.106 C
HETATM   17  N2  UNL     1      18.049  -2.389  10.534  1.00  0.00    -0.193 NA
HETATM   18  C12 UNL     1      17.734  -1.864  13.892  1.00  0.00     0.072 C
HETATM   19  C13 UNL     1      19.137  -1.353  13.874  1.00  0.00     0.087 C
HETATM   20  S1  UNL     1      20.159  -2.641  14.692  1.00  0.00    -0.093 SA
HETATM   21  C14 UNL     1      19.433  -4.195  14.186  1.00  0.00     0.151 C
HETATM   22  N3  UNL     1      20.047  -5.262  14.564  1.00  0.00    -0.379 N
HETATM   23  N4  UNL     1      18.244  -4.221  13.413  1.00  0.00    -0.229 N
ATOM     24  H32 UNL     1      20.902  -5.244  15.120  1.00  0.00     0.158 HD
ATOM     25  H31 UNL     1      19.633  -6.149  14.275  1.00  0.00     0.158 HD
HETATM   26  C15 UNL     1      17.775  -5.472  13.004  1.00  0.00     0.188 C
HETATM   27  N5  UNL     1      17.405  -6.518  12.666  1.00  0.00    -0.172 NA
ENDBRANCH  14  15
ENDBRANCH   8  13
ENDBRANCH   4   5
TORSDOF 3
ENDMDL