MODEL 2
REMARK VINA RESULT: -6.578802758      3.573      5.049
REMARK  0 active torsions:
REMARK  status: ('A' for Active; 'I' for Inactive)
ROOT
HETATM    1  C1  UNL     1      10.449 -10.909  16.612  1.00  0.00     0.076 C
HETATM    2  C2  UNL     1      10.674  -9.657  15.831  1.00  0.00     0.046 C
HETATM    3  N1  UNL     1       9.962  -9.539  14.798  1.00  0.00    -0.368 N
ATOM      4  H1  UNL     1       9.337 -10.334  14.665  1.00  0.00     0.161 HD
HETATM    5  C3  UNL     1       9.819  -8.556  13.763  1.00  0.00     0.110 C
HETATM    6  C4  UNL     1      10.785  -8.834  12.674  1.00  0.00     0.053 C
HETATM    7  S1  UNL     1       8.118  -8.673  13.138  1.00  0.00    -0.108 SA
HETATM    8  C5  UNL     1       7.690  -6.914  13.372  1.00  0.00     0.309 C
HETATM    9  N2  UNL     1       8.956  -6.288  13.684  1.00  0.00    -0.055 N
ATOM     10  H21 UNL     1       8.823  -5.447  14.245  1.00  0.00     0.279 HD
ATOM     11  H22 UNL     1       9.373  -5.866  12.855  1.00  0.00     0.279 HD
HETATM   12  C6  UNL     1       9.839  -7.164  14.298  1.00  0.00     0.263 C
HETATM   13  C7  UNL     1      11.226  -6.706  14.384  1.00  0.00     0.044 A
HETATM   14  C8  UNL     1      11.586  -5.723  13.533  1.00  0.00     0.093 A
HETATM   15 BR1  UNL     1      10.327  -5.027  12.299  1.00  0.00    -0.030 Br
HETATM   16  N3  UNL     1      12.860  -5.276  13.590  1.00  0.00    -0.327 N
ATOM     17  H3  UNL     1      13.144  -4.532  12.952  1.00  0.00     0.169 HD
HETATM   18  C9  UNL     1      13.766  -5.765  14.444  1.00  0.00     0.177 A
HETATM   19  S2  UNL     1      15.299  -5.156  14.440  1.00  0.00    -0.040 SA
HETATM   20  N4  UNL     1      13.409  -6.744  15.290  1.00  0.00    -0.327 N
ATOM     21  H4  UNL     1      14.095  -7.121  15.945  1.00  0.00     0.169 HD
HETATM   22  C10 UNL     1      12.170  -7.224  15.283  1.00  0.00     0.089 A
HETATM   23  S3  UNL     1      11.899  -8.536  16.472  1.00  0.00    -0.059 SA
ENDROOT
TORSDOF 0
ENDMDL