MODEL 5
REMARK VINA RESULT: -7.010533479      2.766      4.579
REMARK  0 active torsions:
REMARK  status: ('A' for Active; 'I' for Inactive)
ROOT
HETATM    1  C1  UNL     1      12.595 -10.336  16.130  1.00  0.00     0.017 C
HETATM    2  C2  UNL     1      11.291  -9.698  15.680  1.00  0.00    -0.021 C
HETATM    3  C3  UNL     1      10.348 -10.891  15.417  1.00  0.00     0.017 C
HETATM    4  C4  UNL     1      11.546  -9.072  14.352  1.00  0.00     0.055 C
HETATM    5  C5  UNL     1      10.546  -8.145  13.819  1.00  0.00     0.061 C
HETATM    6  N1  UNL     1      10.581  -6.772  14.046  1.00  0.00    -0.372 N
HETATM    7  C6  UNL     1       9.258  -6.192  14.125  1.00  0.00     0.124 C
HETATM    8  C7  UNL     1       8.829  -5.679  12.767  1.00  0.00     0.020 C
HETATM    9  C8  UNL     1       9.778  -4.544  12.429  1.00  0.00     0.005 C
HETATM   10  C9  UNL     1      11.158  -5.132  12.299  1.00  0.00     0.047 C
HETATM   11  C10 UNL     1      11.567  -5.921  13.526  1.00  0.00     0.184 C
HETATM   12  N2  UNL     1      12.053  -4.927  14.503  1.00  0.00    -0.352 N
ATOM     13  H2  UNL     1      12.278  -3.981  14.197  1.00  0.00     0.163 HD
HETATM   14  C11 UNL     1      12.209  -5.293  15.885  1.00  0.00     0.146 A
HETATM   15  N3  UNL     1      11.890  -6.532  16.238  1.00  0.00    -0.318 N
ATOM     16  H3  UNL     1      11.546  -7.170  15.520  1.00  0.00     0.169 HD
HETATM   17  C12 UNL     1      11.996  -6.976  17.469  1.00  0.00     0.179 A
HETATM   18  C13 UNL     1      12.456  -6.130  18.444  1.00  0.00     0.132 A
HETATM   19 BR1  UNL     1      12.598  -6.805  20.226  1.00  0.00    -0.026 Br
HETATM   20  N4  UNL     1      12.803  -4.839  18.148  1.00  0.00    -0.332 N
ATOM     21  H4  UNL     1      13.146  -4.201  18.865  1.00  0.00     0.168 HD
HETATM   22  C14 UNL     1      12.670  -4.450  16.868  1.00  0.00     0.161 A
HETATM   23  N5  UNL     1      13.004  -3.118  16.444  1.00  0.00    -0.079 NA
HETATM   24  O1  UNL     1      11.619  -8.320  17.696  1.00  0.00    -0.333 OA
HETATM   25  C15 UNL     1      10.714  -8.910  16.767  1.00  0.00     0.186 C
ENDROOT
TORSDOF 0
ENDMDL