MODEL 3
REMARK VINA RESULT: -6.439549928      1.964      2.806
REMARK  3 active torsions:
REMARK  status: ('A' for Active; 'I' for Inactive)
REMARK       I    between atoms: N2_5  and  C4_6
REMARK       I    between atoms: C4_6  and  N4_11
REMARK    1  A    between atoms: N3_7  and  O1_9
REMARK    2  A    between atoms: N4_11  and  C5_13
REMARK    3  A    between atoms: C5_13  and  C6_14
ROOT
HETATM    1  C1  UNL     1       3.563  49.719   3.446  1.00  0.00     0.310 C
HETATM    2  N1  UNL     1       3.976  51.038   2.982  1.00  0.00     0.088 N
HETATM    3  C2  UNL     1       3.565  51.152   1.618  1.00  0.00     0.292 C
HETATM    4  C3  UNL     1       4.168  52.293   0.864  1.00  0.00     0.172 C
HETATM    5  N2  UNL     1       5.435  52.753   1.372  1.00  0.00    -0.204 N
HETATM    6  C4  UNL     1       5.903  54.056   1.108  1.00  0.00     0.696 C
HETATM    7  N3  UNL     1       7.011  54.185   0.418  1.00  0.00    -0.099 N
ATOM      8  H3  UNL     1       7.498  53.347   0.098  1.00  0.00     0.213 HD
HETATM    9  N4  UNL     1       5.288  55.258   1.526  1.00  0.00    -0.224 N
ATOM     10  H4  UNL     1       5.435  55.594   2.478  1.00  0.00     0.177 HD
HETATM   11  C10 UNL     1       6.178  51.776   2.142  1.00  0.00     0.069 C
HETATM   12  C11 UNL     1       7.384  52.454   2.757  1.00  0.00     0.041 C
HETATM   13  C12 UNL     1       6.716  50.649   1.295  1.00  0.00     0.041 C
HETATM   14  C13 UNL     1       5.326  51.298   3.269  1.00  0.00     0.302 C
ENDROOT
BRANCH   7  15
HETATM   15  O1  UNL     1       7.533  55.424   0.114  1.00  0.00    -0.276 OA
ATOM     16  H1  UNL     1       8.051  55.568  -0.669  1.00  0.00     0.245 HD
ENDBRANCH   7  15
BRANCH   9  17
HETATM   17  C5  UNL     1       4.461  56.011   0.628  1.00  0.00     0.146 C
BRANCH  17  18
HETATM   18  C6  UNL     1       4.388  57.483   0.943  1.00  0.00    -0.035 C
HETATM   19  C7  UNL     1       5.229  58.358   0.078  1.00  0.00     0.016 C
HETATM   20  C8  UNL     1       2.956  57.965   0.957  1.00  0.00     0.016 C
HETATM   21  C9  UNL     1       4.898  57.621   2.385  1.00  0.00     0.016 C
ENDBRANCH  17  18
ENDBRANCH   9  17
TORSDOF 3
ENDMDL