MODEL 2
REMARK VINA RESULT: -6.289099209      3.109      5.651
REMARK  2 active torsions:
REMARK  status: ('A' for Active; 'I' for Inactive)
REMARK    1  A    between atoms: C7_8  and  O1_9
REMARK    2  A    between atoms: O1_9  and  C8_10
ROOT
HETATM    1  C1  UNL     1       5.433  61.565   1.063  1.00  0.00     0.221 C
HETATM    2  N1  UNL     1       5.449  60.762   0.207  1.00  0.00    -0.466 NA
HETATM    3  C2  UNL     1       5.467  59.802  -0.802  1.00  0.00     0.162 C
HETATM    4  C3  UNL     1       6.822  59.704  -1.464  1.00  0.00     0.044 C
HETATM    5  C4  UNL     1       7.704  58.931  -0.532  1.00  0.00    -0.002 A
HETATM    6  C5  UNL     1       8.694  57.959  -0.941  1.00  0.00     0.015 A
HETATM    7  C6  UNL     1       7.344  57.438  -0.739  1.00  0.00     0.054 A
HETATM    8  C7  UNL     1       6.780  56.983   0.558  1.00  0.00     0.184 C
HETATM    9  O2  UNL     1       5.774  56.040   0.546  1.00  0.00    -0.343 OA
HETATM   10  C9  UNL     1       5.048  56.747   1.466  1.00  0.00     0.066 C
HETATM   11  C10 UNL     1       3.566  56.703   1.070  1.00  0.00     0.046 C
HETATM   12  C11 UNL     1       5.199  56.451   2.906  1.00  0.00     0.046 C
HETATM   13  C12 UNL     1       5.741  58.013   0.957  1.00  0.00     0.086 C
HETATM   14  C13 UNL     1       4.990  58.501  -0.244  1.00  0.00     0.052 C
ENDROOT
BRANCH   8  15
HETATM   15  O1  UNL     1       7.749  56.683   1.495  1.00  0.00    -0.286 OA
BRANCH  15  16
HETATM   16  C8  UNL     1       8.377  55.459   1.490  1.00  0.00     0.227 C
HETATM   17  N2  UNL     1       7.788  54.447   2.005  1.00  0.00    -0.368 N
ATOM     18  H22 UNL     1       6.861  54.594   2.404  1.00  0.00     0.159 HD
ATOM     19  H21 UNL     1       8.254  53.539   2.001  1.00  0.00     0.159 HD
HETATM   20  N3  UNL     1       9.660  55.254   0.937  1.00  0.00    -0.057 NA
ENDBRANCH  15  16
ENDBRANCH   8  15
TORSDOF 2
ENDMDL