MODEL 3
REMARK VINA RESULT: -6.131638749      1.740      4.318
REMARK  2 active torsions:
REMARK  status: ('A' for Active; 'I' for Inactive)
REMARK       I    between atoms: N1_2  and  C2_4
REMARK    1  A    between atoms: C2_4  and  C3_6
REMARK    2  A    between atoms: C13_17  and  N2_18
ROOT
HETATM    1  C3  UNL     1       5.709  56.107   1.127  1.00  0.00     0.067 C
HETATM    2  C4  UNL     1       4.879  56.116   2.448  1.00  0.00     0.024 C
HETATM    3  C5  UNL     1       3.426  56.137   2.058  1.00  0.00     0.028 C
HETATM    4  C6  UNL     1       3.144  57.514   1.455  1.00  0.00     0.168 C
HETATM    5  O2  UNL     1       4.357  58.128   1.118  1.00  0.00    -0.385 OA
HETATM    6  C7  UNL     1       5.166  57.207   0.380  1.00  0.00     0.139 C
HETATM    7  C8  UNL     1       6.053  58.001  -0.610  1.00  0.00     0.040 C
HETATM    8  C9  UNL     1       7.325  57.513  -0.339  1.00  0.00     0.019 C
HETATM    9  C10 UNL     1       7.557  57.963   1.104  1.00  0.00     0.011 C
HETATM   10  C11 UNL     1       8.204  56.706   1.517  1.00  0.00    -0.011 C
HETATM   11  C12 UNL     1       9.218  56.594   0.360  1.00  0.00     0.037 C
HETATM   12  C13 UNL     1       8.699  57.606  -0.722  1.00  0.00     0.188 C
HETATM   13  C14 UNL     1       7.071  55.729   1.485  1.00  0.00     0.026 C
ENDROOT
BRANCH   1  14
HETATM   14  C2  UNL     1       5.154  54.811   0.524  1.00  0.00     0.228 C
HETATM   15  N1  UNL     1       4.969  53.708   1.372  1.00  0.00    -0.365 N
HETATM   16  C1  UNL     1       4.436  52.465   0.806  1.00  0.00     0.149 C
ATOM     17  H1  UNL     1       5.201  53.770   2.363  1.00  0.00     0.161 HD
HETATM   18  O1  UNL     1       4.873  54.752  -0.710  1.00  0.00    -0.273 OA
ENDBRANCH   1  14
BRANCH  12  19
HETATM   19  N2  UNL     1       8.953  56.985  -2.008  1.00  0.00    -0.075 N
ATOM     20  H23 UNL     1       8.905  55.969  -1.944  1.00  0.00     0.274 HD
ATOM     21  H22 UNL     1       8.178  57.143  -2.654  1.00  0.00     0.274 HD
ATOM     22  H21 UNL     1       9.838  57.288  -2.414  1.00  0.00     0.274 HD
ENDBRANCH  12  19
TORSDOF 2
ENDMDL