MODEL 1
REMARK VINA RESULT: -6.458355093      0.000      0.000
REMARK  2 active torsions:
REMARK  status: ('A' for Active; 'I' for Inactive)
REMARK    1  A    between atoms: C3_5  and  N1_6
REMARK       I    between atoms: N1_6  and  C4_8
REMARK    2  A    between atoms: C4_8  and  C5_10
ROOT
HETATM    1  C1  UNL     1       4.292  49.158   3.069  1.00  0.00     0.026 C
HETATM    2  C2  UNL     1       4.194  50.081   1.910  1.00  0.00     0.114 C
HETATM    3  S1  UNL     1       5.408  51.383   1.950  1.00  0.00     0.072 S
HETATM    4  O1  UNL     1       6.620  51.144   0.833  1.00  0.00    -0.254 OA
HETATM    5  C3  UNL     1       4.277  52.681   1.420  1.00  0.00     0.382 C
HETATM    6  N2  UNL     1       3.075  52.191   2.034  1.00  0.00    -0.033 N
ATOM      7  H21 UNL     1       2.256  52.727   1.745  1.00  0.00     0.281 HD
ATOM      8  H22 UNL     1       3.048  52.399   3.032  1.00  0.00     0.281 HD
HETATM    9  C9  UNL     1       2.914  50.816   1.781  1.00  0.00     0.136 C
HETATM   10  C10 UNL     1       1.857  50.289   2.759  1.00  0.00     0.047 C
HETATM   11  C11 UNL     1       2.286  50.650   0.392  1.00  0.00     0.047 C
ENDROOT
BRANCH   5  12
HETATM   12  N1  UNL     1       4.627  53.942   1.966  1.00  0.00    -0.323 N
HETATM   13  C4  UNL     1       5.082  54.984   1.125  1.00  0.00     0.227 C
HETATM   14  O2  UNL     1       5.193  54.833  -0.119  1.00  0.00    -0.273 OA
ATOM     15  H1  UNL     1       4.549  54.098   2.971  1.00  0.00     0.165 HD
BRANCH  13  16
HETATM   16  C5  UNL     1       5.455  56.314   1.666  1.00  0.00     0.030 C
HETATM   17  C6  UNL     1       6.664  56.888   1.004  1.00  0.00     0.024 C
HETATM   18  C7  UNL     1       5.659  56.304   3.151  1.00  0.00     0.024 C
HETATM   19  C8  UNL     1       4.284  57.249   1.351  1.00  0.00     0.024 C
ENDBRANCH  13  16
ENDBRANCH   5  12
TORSDOF 2
ENDMDL