MODEL 4
REMARK VINA RESULT: -5.881054084      2.621      4.390
REMARK  4 active torsions:
REMARK  status: ('A' for Active; 'I' for Inactive)
REMARK    1  A    between atoms: C2_2  and  C5_5
REMARK    2  A    between atoms: C5_5  and  N1_6
REMARK    3  A    between atoms: C11_15  and  C12_16
REMARK    4  A    between atoms: N2_20  and  O3_21
ROOT
HETATM    1  C5  UNL     1       6.151  54.460   1.768  1.00  0.00     0.138 C
HETATM    2  C6  UNL     1       7.121  54.083   0.698  1.00  0.00     0.062 C
HETATM    3  C7  UNL     1       7.559  52.652   0.943  1.00  0.00     0.090 C
HETATM    4  C8  UNL     1       8.010  52.471   2.373  1.00  0.00     0.027 C
HETATM    5  C9  UNL     1       6.814  52.656   3.270  1.00  0.00    -0.001 C
HETATM    6  C10 UNL     1       6.014  51.353   3.115  1.00  0.00     0.044 C
HETATM    7  C11 UNL     1       5.477  52.027   1.837  1.00  0.00     0.133 C
HETATM    8  C13 UNL     1       5.653  53.316   2.551  1.00  0.00     0.062 C
HETATM    9  N2  UNL     1       6.393  51.820   0.742  1.00  0.00    -0.174 NA
ENDROOT
BRANCH   1  10
HETATM   10  C2  UNL     1       5.101  55.386   1.229  1.00  0.00    -0.018 C
HETATM   11  C1  UNL     1       5.584  56.827   1.396  1.00  0.00     0.017 C
HETATM   12  C3  UNL     1       3.756  55.259   1.814  1.00  0.00     0.017 C
HETATM   13  C4  UNL     1       5.007  55.148  -0.270  1.00  0.00     0.017 C
ENDBRANCH   1  10
BRANCH   1  14
HETATM   14  N1  UNL     1       6.892  55.318   2.714  1.00  0.00    -0.069 N
ATOM     15  H13 UNL     1       7.357  56.120   2.287  1.00  0.00     0.275 HD
ATOM     16  H12 UNL     1       6.305  55.864   3.344  1.00  0.00     0.275 HD
ATOM     17  H11 UNL     1       7.517  54.659   3.176  1.00  0.00     0.275 HD
ENDBRANCH   1  14
BRANCH   7  18
HETATM   18  C12 UNL     1       4.107  51.545   1.624  1.00  0.00     0.200 C
HETATM   19  O1  UNL     1       3.708  51.317   0.470  1.00  0.00    -0.646 OA
HETATM   20  O2  UNL     1       3.266  51.347   2.690  1.00  0.00    -0.646 OA
ENDBRANCH   7  18
BRANCH   9  21
HETATM   21  O3  UNL     1       6.702  50.507   0.648  1.00  0.00    -0.311 OA
ATOM     22  H3  UNL     1       6.606  50.049   1.474  1.00  0.00     0.237 HD
ENDBRANCH   9  21
TORSDOF 4
ENDMDL