MODEL 1
REMARK VINA RESULT: -7.078779037      0.000      0.000
REMARK  4 active torsions:
REMARK  status: ('A' for Active; 'I' for Inactive)
REMARK    1  A    between atoms: C1_4  and  C2_6
REMARK    2  A    between atoms: C2_6  and  C3_7
REMARK    3  A    between atoms: C4_8  and  C5_9
REMARK    4  A    between atoms: C5_9  and  N3_10
ROOT
HETATM    1  C2  UNL     1       5.085  56.022   1.551  1.00  0.00     0.079 C
HETATM    2  C10 UNL     1       5.805  56.533   0.337  1.00  0.00     0.030 C
HETATM    3  C11 UNL     1       5.034  57.578  -0.419  1.00  0.00     0.002 C
HETATM    4  C12 UNL     1       4.454  58.653   0.466  1.00  0.00     0.000 C
HETATM    5  C13 UNL     1       3.697  58.130   1.640  1.00  0.00     0.002 C
HETATM    6  C14 UNL     1       3.817  56.668   1.879  1.00  0.00     0.030 C
ENDROOT
BRANCH   1   7
HETATM    7  C1  UNL     1       6.050  56.055   2.668  1.00  0.00     0.107 C
HETATM    8  N1  UNL     1       7.282  56.205   2.518  1.00  0.00    -0.390 N
ATOM      9  H12 UNL     1       7.948  56.228   3.290  1.00  0.00     0.157 HD
ATOM     10  H11 UNL     1       7.621  56.311   1.562  1.00  0.00     0.157 HD
HETATM   11  N2  UNL     1       5.572  55.904   4.016  1.00  0.00    -0.086 NA
ENDBRANCH   1   7
BRANCH   1  12
HETATM   12  C3  UNL     1       4.795  54.569   1.356  1.00  0.00    -0.087 C
HETATM   13  C4  UNL     1       4.571  53.391   1.219  1.00  0.00    -0.075 C
BRANCH  13  14
HETATM   14  C5  UNL     1       4.281  51.966   1.060  1.00  0.00     0.366 C
BRANCH  14  15
HETATM   15  N3  UNL     1       3.759  51.392   2.275  1.00  0.00     0.103 N
HETATM   16  C6  UNL     1       3.347  50.033   2.079  1.00  0.00     0.299 C
HETATM   17  C7  UNL     1       4.262  49.093   2.836  1.00  0.00     0.198 C
HETATM   18  O1  UNL     1       4.312  49.349   4.185  1.00  0.00    -0.388 OA
HETATM   19  C8  UNL     1       4.150  50.670   4.531  1.00  0.00     0.198 C
HETATM   20  C9  UNL     1       4.649  51.540   3.387  1.00  0.00     0.299 C
ENDBRANCH  14  15
ENDBRANCH  13  14
ENDBRANCH   1  12
TORSDOF 4
ENDMDL