MODEL 5
REMARK VINA RESULT: -4.420601068      2.398      3.813
REMARK  2 active torsions:
REMARK  status: ('A' for Active; 'I' for Inactive)
REMARK    1  A    between atoms: C2_2  and  C4_4
REMARK    2  A    between atoms: C5_5  and  C6_6
ROOT
HETATM    1  C4  UNL     1       5.923  57.046  -0.045  1.00  0.00     0.047 C
HETATM    2  C5  UNL     1       6.143  55.651   0.373  1.00  0.00     0.014 C
HETATM    3  C7  UNL     1       7.040  55.546   1.559  1.00  0.00     0.086 C
HETATM    4  C8  UNL     1       7.557  54.158   1.727  1.00  0.00     0.037 C
HETATM    5  C9  UNL     1       6.593  56.114   2.824  1.00  0.00     0.037 C
HETATM    6  S1  UNL     1       8.381  56.528   0.854  1.00  0.00     0.165 S
HETATM    7  O2  UNL     1       9.120  57.211   1.931  1.00  0.00    -0.226 OA
HETATM    8  O3  UNL     1       9.200  55.687  -0.043  1.00  0.00    -0.226 OA
HETATM    9  C10 UNL     1       7.299  57.642  -0.074  1.00  0.00     0.066 C
HETATM   10  C11 UNL     1       7.881  57.655  -1.498  1.00  0.00     0.032 C
HETATM   11  C12 UNL     1       7.530  58.964   0.511  1.00  0.00     0.032 C
ENDROOT
BRANCH   1  12
HETATM   12  C2  UNL     1       4.905  57.870   0.621  1.00  0.00    -0.013 C
HETATM   13  C1  UNL     1       3.600  57.278   0.973  1.00  0.00     0.010 C
HETATM   14  C3  UNL     1       4.529  59.012  -0.332  1.00  0.00     0.010 C
ENDBRANCH   1  12
BRANCH   2  15
HETATM   15  C6  UNL     1       5.031  54.715   0.337  1.00  0.00     0.259 C
HETATM   16  N1  UNL     1       4.388  54.321   1.520  1.00  0.00    -0.058 NA
HETATM   17  O1  UNL     1       4.640  54.253  -0.782  1.00  0.00    -0.272 OA
ENDBRANCH   2  15
TORSDOF 2
ENDMDL