MODEL 5
REMARK VINA RESULT: -6.304015353      3.837      6.003
REMARK  3 active torsions:
REMARK  status: ('A' for Active; 'I' for Inactive)
REMARK       I    between atoms: C2_2  and  N1_4
REMARK    1  A    between atoms: N1_4  and  C3_6
REMARK    2  A    between atoms: C8_13  and  C9_14
REMARK       I    between atoms: C9_14  and  N3_16
REMARK    3  A    between atoms: N3_16  and  C10_18
ROOT
HETATM    1  C3  UNL     1       9.437  54.797   0.456  1.00  0.00     0.142 C
HETATM    2  C4  UNL     1      10.338  53.770  -0.203  1.00  0.00     0.061 C
HETATM    3  C5  UNL     1       9.645  52.440   0.003  1.00  0.00     0.025 C
HETATM    4  C6  UNL     1      10.262  51.657   1.143  1.00  0.00     0.038 C
HETATM    5  C7  UNL     1       9.624  51.603  -1.253  1.00  0.00     0.038 C
HETATM    6  N2  UNL     1       8.315  52.800   0.378  1.00  0.00    -0.379 N
ATOM      7  H2  UNL     1       7.555  52.124   0.442  1.00  0.00     0.160 HD
HETATM    8  C8  UNL     1       8.164  54.046   0.627  1.00  0.00     0.097 C
ENDROOT
BRANCH   8   9
HETATM    9  C9  UNL     1       6.897  54.640   1.029  1.00  0.00     0.266 C
HETATM   10  O2  UNL     1       5.899  54.608   0.264  1.00  0.00    -0.266 OA
HETATM   11  N3  UNL     1       6.720  55.274   2.284  1.00  0.00    -0.348 N
ATOM     12  H3  UNL     1       7.517  55.310   2.920  1.00  0.00     0.163 HD
BRANCH  11  13
HETATM   13  C10 UNL     1       5.492  55.866   2.712  1.00  0.00     0.022 C
HETATM   14  C11 UNL     1       5.099  56.995   1.815  1.00  0.00     0.037 C
HETATM   15  C12 UNL     1       4.408  54.810   2.695  1.00  0.00     0.037 C
HETATM   16  C13 UNL     1       5.685  56.403   4.128  1.00  0.00     0.037 C
ENDBRANCH  11  13
ENDBRANCH   8   9
BRANCH   1  17
HETATM   17  N1  UNL     1       9.233  55.877  -0.472  1.00  0.00    -0.351 N
HETATM   18  C2  UNL     1       8.848  57.180  -0.061  1.00  0.00     0.214 C
HETATM   19  C1  UNL     1       8.635  58.292  -0.988  1.00  0.00     0.117 C
HETATM   20  O1  UNL     1       8.673  57.413   1.174  1.00  0.00    -0.274 OA
ATOM     21  H1  UNL     1       9.370  55.700  -1.466  1.00  0.00     0.163 HD
ENDBRANCH   1  17
TORSDOF 3
ENDMDL