MODEL 2
REMARK VINA RESULT: -5.914541794      5.992      8.118
REMARK  3 active torsions:
REMARK  status: ('A' for Active; 'I' for Inactive)
REMARK    1  A    between atoms: N2_3  and  C2_5
REMARK    2  A    between atoms: C2_5  and  N3_7
REMARK       I    between atoms: N3_7  and  C3_9
REMARK    3  A    between atoms: C3_9  and  C4_11
ROOT
HETATM    1  N1  UNL     1       3.952  48.351   4.568  1.00  0.00    -0.172 NA
HETATM    2  C1  UNL     1       3.475  49.358   4.262  1.00  0.00     0.184 C
HETATM    3  N2  UNL     1       2.866  50.597   3.875  1.00  0.00    -0.270 N
ATOM      4  H2  UNL     1       2.626  51.304   4.571  1.00  0.00     0.180 HD
ENDROOT
BRANCH   3   5
HETATM    5  C2  UNL     1       2.613  50.809   2.522  1.00  0.00     0.187 C
HETATM    6  S1  UNL     1       1.560  49.755   1.776  1.00  0.00    -0.040 SA
BRANCH   5   7
HETATM    7  N3  UNL     1       3.162  51.816   1.748  1.00  0.00    -0.300 N
HETATM    8  C3  UNL     1       4.427  52.459   1.894  1.00  0.00     0.247 C
HETATM    9  O1  UNL     1       5.187  52.128   2.807  1.00  0.00    -0.268 OA
ATOM     10  H3  UNL     1       2.586  52.142   0.971  1.00  0.00     0.171 HD
BRANCH   8  11
HETATM   11  C4  UNL     1       4.798  53.496   0.962  1.00  0.00     0.077 C
HETATM   12  C5  UNL     1       4.662  54.762   1.152  1.00  0.00    -0.073 C
HETATM   13  C6  UNL     1       5.143  55.633  -0.006  1.00  0.00     0.044 C
HETATM   14  C9  UNL     1       4.134  55.513   2.283  1.00  0.00     0.044 C
HETATM   15  C7  UNL     1       6.595  55.905   0.280  1.00  0.00     0.078 C
HETATM   16  S2  UNL     1       6.827  56.005   2.061  1.00  0.00    -0.169 SA
HETATM   17  C8  UNL     1       5.299  56.221   2.985  1.00  0.00     0.078 C
ENDBRANCH   8  11
ENDBRANCH   5   7
ENDBRANCH   3   5
TORSDOF 3
ENDMDL