MODEL 2
REMARK VINA RESULT: -6.432871074      1.898      2.741
REMARK  3 active torsions:
REMARK  status: ('A' for Active; 'I' for Inactive)
REMARK    1  A    between atoms: C4_6  and  N2_7
REMARK       I    between atoms: N2_7  and  C5_9
REMARK    2  A    between atoms: C5_9  and  C6_11
REMARK    3  A    between atoms: C10_16  and  C11_17
ROOT
HETATM    1  C1  UNL     1       2.504  59.247   1.853  1.00  0.00     0.019 C
HETATM    2  C2  UNL     1       3.527  58.828   1.339  1.00  0.00    -0.058 C
HETATM    3  C3  UNL     1       4.761  58.338   0.713  1.00  0.00     0.110 A
HETATM    4  N1  UNL     1       5.096  57.080   0.732  1.00  0.00    -0.328 N
ATOM      5  H1  UNL     1       4.505  56.385   1.188  1.00  0.00     0.168 HD
HETATM    6  C4  UNL     1       6.238  56.725   0.135  1.00  0.00     0.153 A
HETATM    7  S1  UNL     1       6.844  58.206  -0.461  1.00  0.00    -0.046 SA
HETATM    8  C10 UNL     1       5.590  59.220   0.088  1.00  0.00     0.108 A
ENDROOT
BRANCH   8   9
HETATM    9  C11 UNL     1       5.461  60.678  -0.083  1.00  0.00     0.274 C
HETATM   10  N3  UNL     1       6.352  61.540   0.606  1.00  0.00    -0.057 NA
HETATM   11  O2  UNL     1       4.594  61.178  -0.815  1.00  0.00    -0.270 OA
ENDBRANCH   8   9
BRANCH   6  12
HETATM   12  N2  UNL     1       6.748  55.512   0.046  1.00  0.00    -0.306 N
HETATM   13  C5  UNL     1       5.990  54.388   0.422  1.00  0.00     0.231 C
HETATM   14  O1  UNL     1       4.963  54.090  -0.241  1.00  0.00    -0.272 OA
ATOM     15  H2  UNL     1       7.700  55.387  -0.299  1.00  0.00     0.171 HD
BRANCH  13  16
HETATM   16  C6  UNL     1       6.324  53.513   1.572  1.00  0.00     0.030 C
HETATM   17  C7  UNL     1       7.813  53.274   1.689  1.00  0.00     0.025 C
HETATM   18  C8  UNL     1       5.663  52.158   1.455  1.00  0.00     0.025 C
HETATM   19  C9  UNL     1       5.803  54.211   2.818  1.00  0.00     0.025 C
ENDBRANCH  13  16
ENDBRANCH   6  12
TORSDOF 3
ENDMDL