MODEL 2
REMARK VINA RESULT: -6.909862216      2.108      3.029
REMARK  3 active torsions:
REMARK  status: ('A' for Active; 'I' for Inactive)
REMARK    1  A    between atoms: C2_2  and  O1_3
REMARK    2  A    between atoms: C4_6  and  C6_8
REMARK    3  A    between atoms: C11_14  and  O3_16
ROOT
HETATM    1  C1  UNL     1       5.246  55.038   2.752  1.00  0.00     0.078 C
HETATM    2  C2  UNL     1       6.697  55.253   2.987  1.00  0.00     0.160 C
HETATM    3  C3  UNL     1       7.360  56.246   2.080  1.00  0.00     0.084 C
HETATM    4  C4  UNL     1       7.429  55.978   0.660  1.00  0.00     0.013 C
HETATM    5  C5  UNL     1       6.210  56.673   0.009  1.00  0.00     0.023 C
HETATM    6  C10 UNL     1       7.387  54.589   0.164  1.00  0.00     0.056 C
HETATM    7  C11 UNL     1       8.036  53.502   0.893  1.00  0.00     0.086 C
HETATM    8  C12 UNL     1       9.564  53.577   0.789  1.00  0.00     0.049 C
HETATM    9  C13 UNL     1       7.580  53.206   2.273  1.00  0.00     0.088 C
HETATM   10  C14 UNL     1       6.354  52.278   2.218  1.00  0.00     0.049 C
HETATM   11  C15 UNL     1       8.677  52.260   2.831  1.00  0.00     0.049 C
HETATM   12  O4  UNL     1       7.482  54.187   3.159  1.00  0.00    -0.342 OA
ENDROOT
BRANCH   4  13
HETATM   13  C6  UNL     1       8.618  56.697   0.071  1.00  0.00     0.061 A
HETATM   14  C7  UNL     1       9.865  56.892   0.604  1.00  0.00     0.035 A
HETATM   15  C8  UNL     1      10.564  57.607  -0.341  1.00  0.00     0.027 A
HETATM   16  C9  UNL     1       9.727  57.827  -1.417  1.00  0.00     0.142 A
HETATM   17  O2  UNL     1       8.574  57.272  -1.141  1.00  0.00    -0.326 OA
ENDBRANCH   4  13
BRANCH   2  18
HETATM   18  O1  UNL     1       6.738  55.921   4.256  1.00  0.00    -0.366 OA
ATOM     19  H1  UNL     1       6.294  55.317   4.840  1.00  0.00     0.213 HD
ENDBRANCH   2  18
BRANCH   7  20
HETATM   20  O3  UNL     1       7.726  52.318   0.155  1.00  0.00    -0.387 OA
ATOM     21  H3  UNL     1       7.875  51.601   0.760  1.00  0.00     0.210 HD
ENDBRANCH   7  20
TORSDOF 3
ENDMDL