MODEL 3
REMARK VINA RESULT: -6.190265681      5.390      8.310
REMARK  4 active torsions:
REMARK  status: ('A' for Active; 'I' for Inactive)
REMARK    1  A    between atoms: O1_2  and  C2_3
REMARK    2  A    between atoms: C2_3  and  C3_5
REMARK    3  A    between atoms: C8_13  and  C9_14
REMARK    4  A    between atoms: C14_19  and  N2_20
ROOT
HETATM    1  C3  UNL     1       4.727  50.384   1.959  1.00  0.00     0.088 A
HETATM    2  C4  UNL     1       5.482  49.248   1.989  1.00  0.00     0.024 A
HETATM    3  C5  UNL     1       4.862  47.909   2.043  1.00  0.00     0.069 C
HETATM    4  N1  UNL     1       6.817  49.387   1.969  1.00  0.00    -0.353 N
ATOM      5  H1  UNL     1       7.407  48.555   1.991  1.00  0.00     0.166 HD
HETATM    6  C6  UNL     1       7.399  50.625   1.918  1.00  0.00     0.087 A
HETATM    7  S1  UNL     1       9.040  51.051   1.909  1.00  0.00    -0.083 SA
HETATM    8  C7  UNL     1       8.844  52.745   1.858  1.00  0.00     0.060 A
HETATM    9  C8  UNL     1       7.475  52.961   1.848  1.00  0.00    -0.029 A
HETATM   10  C13 UNL     1       6.716  51.813   1.883  1.00  0.00     0.033 A
HETATM   11  C14 UNL     1       5.319  51.632   1.908  1.00  0.00     0.058 A
ENDROOT
BRANCH   1  12
HETATM   12  C2  UNL     1       3.275  50.226   1.982  1.00  0.00     0.297 C
HETATM   13  O2  UNL     1       2.610  50.197   0.918  1.00  0.00    -0.259 OA
BRANCH  12  14
HETATM   14  O1  UNL     1       2.597  50.106   3.185  1.00  0.00    -0.322 OA
HETATM   15  C1  UNL     1       1.949  48.952   3.626  1.00  0.00     0.213 C
ENDBRANCH  12  14
ENDBRANCH   1  12
BRANCH  11  16
HETATM   16  N2  UNL     1       4.524  52.600   1.919  1.00  0.00    -0.397 N
ATOM     17  H22 UNL     1       4.844  53.561   2.040  1.00  0.00     0.156 HD
ATOM     18  H21 UNL     1       3.538  52.353   1.827  1.00  0.00     0.156 HD
ENDBRANCH  11  16
BRANCH   9  19
HETATM   19  C9  UNL     1       6.953  54.380   1.737  1.00  0.00    -0.023 C
HETATM   20  C10 UNL     1       6.278  54.715   0.454  1.00  0.00     0.019 C
HETATM   21  C11 UNL     1       6.250  54.842   2.988  1.00  0.00     0.019 C
HETATM   22  C12 UNL     1       8.197  55.295   1.705  1.00  0.00     0.019 C
ENDBRANCH   9  19
TORSDOF 4
ENDMDL