MODEL 2
REMARK VINA RESULT: -7.864204616      2.628      3.178
REMARK  3 active torsions:
REMARK  status: ('A' for Active; 'I' for Inactive)
REMARK    1  A    between atoms: N1_1  and  N2_4
REMARK    2  A    between atoms: N2_4  and  N3_5
REMARK    3  A    between atoms: N3_5  and  C1_7
ROOT
HETATM    1  C1  UNL     1       8.291  53.469   0.640  1.00  0.00     0.064 A
HETATM    2  C2  UNL     1       6.928  53.474   0.861  1.00  0.00     0.034 A
HETATM    3  C3  UNL     1       6.203  54.640   0.803  1.00  0.00     0.033 A
HETATM    4  C4  UNL     1       6.850  55.855   0.514  1.00  0.00     0.054 A
HETATM    5  C5  UNL     1       8.204  55.808   0.301  1.00  0.00     0.093 A
HETATM    6  C6  UNL     1       8.933  54.648   0.357  1.00  0.00     0.058 A
HETATM    7  S1  UNL     1       9.029  57.309  -0.060  1.00  0.00     0.211 S
HETATM    8  O1  UNL     1      10.119  57.572   0.939  1.00  0.00    -0.217 OA
HETATM    9  O2  UNL     1       9.595  57.176  -1.446  1.00  0.00    -0.217 OA
HETATM   10  C7  UNL     1       7.840  58.577  -0.057  1.00  0.00     0.090 A
HETATM   11  C8  UNL     1       8.258  59.868  -0.321  1.00  0.00     0.026 A
HETATM   12  C9  UNL     1       7.336  60.883  -0.324  1.00  0.00     0.002 A
HETATM   13  C10 UNL     1       5.994  60.655  -0.071  1.00  0.00     0.002 A
HETATM   14  C11 UNL     1       5.581  59.375   0.190  1.00  0.00     0.031 A
HETATM   15  C12 UNL     1       6.522  58.323   0.195  1.00  0.00     0.054 A
HETATM   16  N4  UNL     1       6.055  57.017   0.469  1.00  0.00    -0.354 N
ATOM     17  H4  UNL     1       5.057  56.907   0.649  1.00  0.00     0.166 HD
ENDROOT
BRANCH   1  18
HETATM   18  N3  UNL     1       9.007  52.239   0.709  1.00  0.00    -0.217 N
ATOM     19  H3  UNL     1      10.026  52.237   0.665  1.00  0.00     0.203 HD
BRANCH  18  20
HETATM   20  N2  UNL     1       8.392  51.176   0.823  1.00  0.00    -0.243 NA
BRANCH  20  21
HETATM   21  N1  UNL     1       7.940  50.053   1.023  1.00  0.00    -0.260 N
ATOM     22  H12 UNL     1       8.880  49.776   1.305  1.00  0.00     0.193 HD
ATOM     23  H11 UNL     1       7.423  49.180   1.140  1.00  0.00     0.193 HD
ENDBRANCH  20  21
ENDBRANCH  18  20
ENDBRANCH   1  18
TORSDOF 3
ENDMDL