MODEL 3
REMARK VINA RESULT: -9.246785224      3.029      4.923
REMARK  2 active torsions:
REMARK  status: ('A' for Active; 'I' for Inactive)
REMARK    1  A    between atoms: N1_1  and  N2_4
REMARK    2  A    between atoms: N2_4  and  C1_6
ROOT
HETATM    1  C1  UNL     1       9.651  55.657   0.620  1.00  0.00     0.072 A
HETATM    2  C2  UNL     1       8.848  56.790   0.428  1.00  0.00    -0.013 A
HETATM    3  C3  UNL     1       7.513  56.805   0.841  1.00  0.00    -0.014 A
HETATM    4  C4  UNL     1       7.039  55.660   1.438  1.00  0.00     0.051 A
HETATM    5  C5  UNL     1       7.792  54.522   1.647  1.00  0.00     0.092 A
HETATM    6  O1  UNL     1       7.316  53.451   2.216  1.00  0.00    -0.322 OA
HETATM    7  C6  UNL     1       8.017  52.362   2.425  1.00  0.00     0.146 A
HETATM    8  C7  UNL     1       9.335  52.292   2.041  1.00  0.00     0.080 A
HETATM    9  C8  UNL     1       9.880  53.427   1.424  1.00  0.00     0.189 A
HETATM   10  O2  UNL     1      11.081  53.421   1.052  1.00  0.00    -0.287 OA
HETATM   11  C9  UNL     1       9.119  54.549   1.221  1.00  0.00     0.076 A
HETATM   12  C10 UNL     1       6.919  58.102   0.521  1.00  0.00    -0.019 A
HETATM   13  C11 UNL     1       5.644  58.597   0.726  1.00  0.00     0.013 A
HETATM   14  C12 UNL     1       5.321  59.858   0.334  1.00  0.00     0.001 A
HETATM   15  C13 UNL     1       6.288  60.640  -0.274  1.00  0.00     0.001 A
HETATM   16  C14 UNL     1       7.560  60.137  -0.476  1.00  0.00     0.008 A
HETATM   17  C15 UNL     1       7.905  58.854  -0.083  1.00  0.00    -0.043 A
HETATM   18  C16 UNL     1       9.172  58.085  -0.178  1.00  0.00     0.081 A
ENDROOT
BRANCH   1  19
HETATM   19  N2  UNL     1      10.998  55.664   0.195  1.00  0.00    -0.306 N
ATOM     20  H2  UNL     1      11.727  55.805   0.895  1.00  0.00     0.186 HD
BRANCH  19  21
HETATM   21  N1  UNL     1      11.381  55.488  -1.142  1.00  0.00    -0.345 N
ATOM     22  H12 UNL     1      11.903  56.244  -1.584  1.00  0.00     0.176 HD
ATOM     23  H11 UNL     1      11.160  54.649  -1.679  1.00  0.00     0.176 HD
ENDBRANCH  19  21
ENDBRANCH   1  19
TORSDOF 2
ENDMDL