MODEL 3
REMARK VINA RESULT: -7.561230114      1.038      1.270
REMARK  2 active torsions:
REMARK  status: ('A' for Active; 'I' for Inactive)
REMARK    1  A    between atoms: C10_14  and  O2_15
REMARK    2  A    between atoms: C10_14  and  C11_17
ROOT
HETATM    1  N1  UNL     1      10.998  54.288   0.863  1.00  0.00    -0.374 N
ATOM      2  H11 UNL     1      11.231  53.399   1.306  1.00  0.00     0.158 HD
ATOM      3  H12 UNL     1      11.756  54.793   0.403  1.00  0.00     0.158 HD
HETATM    4  C1  UNL     1       9.804  54.781   0.864  1.00  0.00     0.182 C
HETATM    5  O1  UNL     1       9.493  55.971   0.270  1.00  0.00    -0.288 OA
HETATM    6  C2  UNL     1       8.339  56.693   0.436  1.00  0.00     0.086 A
HETATM    7  C3  UNL     1       8.311  57.905  -0.287  1.00  0.00     0.038 A
HETATM    8  C4  UNL     1       7.253  58.774  -0.230  1.00  0.00     0.003 A
HETATM    9  C5  UNL     1       6.202  58.417   0.571  1.00  0.00     0.001 A
HETATM   10  C6  UNL     1       6.219  57.234   1.281  1.00  0.00     0.012 A
HETATM   11  C7  UNL     1       7.292  56.326   1.233  1.00  0.00    -0.001 A
HETATM   12  C8  UNL     1       7.138  55.071   1.977  1.00  0.00     0.086 A
HETATM   13  C9  UNL     1       6.605  55.087   3.348  1.00  0.00     0.076 A
HETATM   14  C10 UNL     1       5.811  54.452   2.218  1.00  0.00     0.130 A
HETATM   15  S1  UNL     1       8.495  53.909   1.658  1.00  0.00    -0.068 SA
ENDROOT
BRANCH  14  16
HETATM   16  O2  UNL     1       4.676  55.050   1.755  1.00  0.00    -0.381 OA
ATOM     17  H2  UNL     1       3.825  54.666   1.929  1.00  0.00     0.211 HD
ENDBRANCH  14  16
BRANCH  14  18
HETATM   18  C11 UNL     1       5.761  52.936   2.207  1.00  0.00     0.089 A
HETATM   19  C12 UNL     1       5.401  52.170   1.127  1.00  0.00     0.038 A
HETATM   20  C13 UNL     1       5.481  50.830   1.520  1.00  0.00     0.027 A
HETATM   21  C14 UNL     1       5.897  50.904   2.848  1.00  0.00     0.142 A
HETATM   22  O3  UNL     1       6.052  52.157   3.216  1.00  0.00    -0.324 OA
ENDBRANCH  14  18
TORSDOF 2
ENDMDL