MODEL 1
REMARK VINA RESULT: -7.835612210      0.000      0.000
REMARK  2 active torsions:
REMARK  status: ('A' for Active; 'I' for Inactive)
REMARK    1  A    between atoms: C5_9  and  N2_10
REMARK    2  A    between atoms: N2_10  and  C6_12
ROOT
HETATM    1  C1  UNL     1       3.858  59.164   1.609  1.00  0.00     0.057 C
HETATM    2  C2  UNL     1       5.166  58.600   1.101  1.00  0.00    -0.012 A
HETATM    3  S1  UNL     1       5.747  57.008   1.231  1.00  0.00    -0.076 SA
HETATM    4  C3  UNL     1       7.247  57.207   0.423  1.00  0.00     0.092 A
HETATM    5  N1  UNL     1       8.172  56.220   0.228  1.00  0.00    -0.338 N
ATOM      6  H1  UNL     1       7.822  55.266   0.304  1.00  0.00     0.167 HD
HETATM    7  C4  UNL     1       9.494  56.340  -0.053  1.00  0.00     0.145 C
HETATM    8  S2  UNL     1      10.442  55.188   0.566  1.00  0.00    -0.056 SA
HETATM    9  C5  UNL     1      10.044  57.363  -0.801  1.00  0.00     0.143 C
HETATM   10  N3  UNL     1       9.589  58.664  -0.784  1.00  0.00    -0.306 N
ATOM     11  H3  UNL     1      10.300  59.387  -0.900  1.00  0.00     0.170 HD
HETATM   12  C9  UNL     1       8.328  59.104  -0.633  1.00  0.00     0.260 C
HETATM   13  O1  UNL     1       8.118  60.195  -1.226  1.00  0.00    -0.267 OA
HETATM   14  C10 UNL     1       7.243  58.531   0.074  1.00  0.00     0.073 A
HETATM   15  C11 UNL     1       6.164  59.250   0.427  1.00  0.00    -0.031 A
HETATM   16  C12 UNL     1       6.007  60.731   0.122  1.00  0.00     0.050 C
ENDROOT
BRANCH   9  17
HETATM   17  N2  UNL     1      10.997  57.087  -1.536  1.00  0.00    -0.370 N
ATOM     18  H2  UNL     1      11.688  56.572  -0.992  1.00  0.00     0.161 HD
BRANCH  17  19
HETATM   19  C6  UNL     1      11.464  57.224  -2.828  1.00  0.00     0.075 C
HETATM   20  C7  UNL     1      12.352  56.028  -3.265  1.00  0.00     0.031 C
HETATM   21  C8  UNL     1      12.313  58.498  -2.965  1.00  0.00     0.031 C
ENDBRANCH  17  19
ENDBRANCH   9  17
TORSDOF 2
ENDMDL