MODEL 1
REMARK VINA RESULT: -7.131209064      0.000      0.000
REMARK  2 active torsions:
REMARK  status: ('A' for Active; 'I' for Inactive)
REMARK    1  A    between atoms: C3_3  and  C4_4
REMARK    2  A    between atoms: C15_18  and  N1_19
ROOT
HETATM    1  C1  UNL     1       7.528  52.015   2.646  1.00  0.00     0.011 C
HETATM    2  C2  UNL     1       6.116  52.452   2.973  1.00  0.00     0.000 C
HETATM    3  C3  UNL     1       5.480  53.286   1.918  1.00  0.00     0.028 C
HETATM    4  C11 UNL     1       5.646  52.560   0.613  1.00  0.00     0.011 C
HETATM    5  C12 UNL     1       4.820  51.323   0.681  1.00  0.00     0.042 C
HETATM    6  C13 UNL     1       4.722  50.613   1.952  1.00  0.00     0.101 C
HETATM    7  C14 UNL     1       3.243  50.273   2.206  1.00  0.00     0.050 C
HETATM    8  O2  UNL     1       5.360  49.364   1.895  1.00  0.00    -0.227 OA
HETATM    9  O3  UNL     1       6.280  49.318   2.795  1.00  0.00    -0.206 OA
HETATM   10  C15 UNL     1       5.915  50.107   3.876  1.00  0.00     0.363 C
HETATM   11  C16 UNL     1       5.229  51.257   3.185  1.00  0.00     0.086 C
ENDROOT
BRANCH   3  12
HETATM   12  C4  UNL     1       5.865  54.710   1.843  1.00  0.00     0.080 C
HETATM   13  C5  UNL     1       4.558  55.520   1.883  1.00  0.00     0.051 C
HETATM   14  C6  UNL     1       6.669  55.168   2.980  1.00  0.00     0.010 C
HETATM   15  C7  UNL     1       7.570  56.007   2.504  1.00  0.00     0.009 C
HETATM   16  C8  UNL     1       7.390  56.129   1.042  1.00  0.00     0.073 C
HETATM   17  C9  UNL     1       8.695  55.915   0.295  1.00  0.00     0.050 C
HETATM   18  C10 UNL     1       6.820  57.460   0.632  1.00  0.00     0.050 C
HETATM   19  O1  UNL     1       6.498  55.102   0.684  1.00  0.00    -0.362 OA
ENDBRANCH   3  12
BRANCH  10  20
HETATM   20  N1  UNL     1       4.994  49.325   4.678  1.00  0.00    -0.049 N
ATOM     21  H13 UNL     1       4.634  48.505   4.190  1.00  0.00     0.277 HD
ATOM     22  H12 UNL     1       5.450  48.830   5.445  1.00  0.00     0.277 HD
ATOM     23  H11 UNL     1       4.259  49.959   4.990  1.00  0.00     0.277 HD
ENDBRANCH  10  20
TORSDOF 2
ENDMDL