MODEL 2
REMARK VINA RESULT: -6.858607273      3.383      4.079
REMARK  2 active torsions:
REMARK  status: ('A' for Active; 'I' for Inactive)
REMARK    1  A    between atoms: C2_2  and  C3_3
REMARK       I    between atoms: C3_3  and  N1_5
REMARK    2  A    between atoms: N1_5  and  C4_7
ROOT
HETATM    1  C4  UNL     1       8.813  54.765   0.875  1.00  0.00     0.161 C
HETATM    2  N2  UNL     1       7.830  54.319   1.559  1.00  0.00    -0.260 N
ATOM      3  H2  UNL     1       7.702  53.309   1.615  1.00  0.00     0.181 HD
HETATM    4  S1  UNL     1       6.712  55.330   2.390  1.00  0.00     0.266 S
HETATM    5  O2  UNL     1       7.301  55.740   3.725  1.00  0.00    -0.200 OA
HETATM    6  O3  UNL     1       5.421  54.589   2.602  1.00  0.00    -0.200 OA
HETATM    7  C5  UNL     1       6.429  56.747   1.431  1.00  0.00     0.097 A
HETATM    8  C6  UNL     1       5.144  57.300   1.433  1.00  0.00     0.027 A
HETATM    9  C7  UNL     1       4.925  58.414   0.685  1.00  0.00     0.002 A
HETATM   10  C8  UNL     1       5.941  58.990  -0.059  1.00  0.00     0.001 A
HETATM   11  C9  UNL     1       7.198  58.418  -0.039  1.00  0.00     0.020 A
HETATM   12  C10 UNL     1       7.468  57.289   0.704  1.00  0.00     0.031 A
HETATM   13  S2  UNL     1       9.107  56.546   0.718  1.00  0.00    -0.052 SA
ENDROOT
BRANCH   1  14
HETATM   14  N1  UNL     1       9.675  53.842   0.230  1.00  0.00    -0.307 N
HETATM   15  C3  UNL     1      10.983  53.557   0.680  1.00  0.00     0.223 C
HETATM   16  O1  UNL     1      11.406  54.144   1.697  1.00  0.00    -0.273 OA
ATOM     17  H1  UNL     1       9.333  53.359  -0.601  1.00  0.00     0.171 HD
BRANCH  15  18
HETATM   18  C2  UNL     1      11.857  52.592  -0.009  1.00  0.00     0.099 C
HETATM   19  C1  UNL     1      12.920  52.068   0.926  1.00  0.00     0.014 C
ENDBRANCH  15  18
ENDBRANCH   1  14
TORSDOF 2
ENDMDL