MODEL 1
REMARK VINA RESULT: -8.856002297      0.000      0.000
REMARK  2 active torsions:
REMARK  status: ('A' for Active; 'I' for Inactive)
REMARK    1  A    between atoms: C7_8  and  N2_9
REMARK       I    between atoms: N2_9  and  C8_11
REMARK       I    between atoms: C8_11  and  N3_13
REMARK    2  A    between atoms: N3_13  and  C9_15
ROOT
HETATM    1  N1  UNL     1       9.810  57.769  -1.269  1.00  0.00    -0.191 NA
HETATM    2  C1  UNL     1       8.862  58.305  -0.898  1.00  0.00     0.102 C
HETATM    3  C2  UNL     1       7.671  58.992  -0.405  1.00  0.00     0.071 A
HETATM    4  C3  UNL     1       7.713  60.354  -0.260  1.00  0.00     0.025 A
HETATM    5  C4  UNL     1       6.616  61.033   0.200  1.00  0.00     0.002 A
HETATM    6  C5  UNL     1       5.474  60.349   0.515  1.00  0.00     0.002 A
HETATM    7  C6  UNL     1       5.407  58.965   0.376  1.00  0.00     0.031 A
HETATM    8  C7  UNL     1       6.504  58.273  -0.085  1.00  0.00     0.057 A
ENDROOT
BRANCH   8   9
HETATM    9  N2  UNL     1       6.569  56.881  -0.271  1.00  0.00    -0.307 N
HETATM   10  C8  UNL     1       6.624  55.849   0.691  1.00  0.00     0.325 C
HETATM   11  O1  UNL     1       6.618  56.145   1.898  1.00  0.00    -0.247 OA
HETATM   12  N3  UNL     1       6.684  54.506   0.229  1.00  0.00    -0.309 N
ATOM     13  H3  UNL     1       6.678  54.353  -0.780  1.00  0.00     0.170 HD
ATOM     14  H2  UNL     1       6.577  56.571  -1.243  1.00  0.00     0.170 HD
BRANCH  12  15
HETATM   15  C9  UNL     1       6.752  53.375   1.054  1.00  0.00     0.039 A
HETATM   16  C10 UNL     1       7.925  52.906   1.575  1.00  0.00     0.032 A
HETATM   17  C11 UNL     1       7.886  51.782   2.413  1.00  0.00     0.042 A
HETATM   18  C12 UNL     1       6.691  51.162   2.705  1.00  0.00     0.105 A
HETATM   19  C13 UNL     1       5.509  51.636   2.178  1.00  0.00     0.107 A
HETATM   20  O3  UNL     1       6.375  50.057   3.489  1.00  0.00    -0.323 OA
HETATM   21  C14 UNL     1       5.542  52.733   1.359  1.00  0.00     0.069 A
HETATM   22  O2  UNL     1       4.445  50.831   2.627  1.00  0.00    -0.323 OA
HETATM   23  C15 UNL     1       4.989  49.797   3.424  1.00  0.00     0.352 A
ENDBRANCH  12  15
ENDBRANCH   8   9
TORSDOF 2
ENDMDL