MODEL 5
REMARK VINA RESULT: -5.884478820      6.107      8.698
REMARK  2 active torsions:
REMARK  status: ('A' for Active; 'I' for Inactive)
REMARK    1  A    between atoms: C2_2  and  N1_5
REMARK       I    between atoms: N1_5  and  C5_7
REMARK    2  A    between atoms: C5_7  and  C6_9
ROOT
HETATM    1  C6  UNL     1       5.337  51.132   2.036  1.00  0.00     0.097 A
HETATM    2  S1  UNL     1       5.505  50.272   3.503  1.00  0.00    -0.086 SA
HETATM    3  C7  UNL     1       4.313  49.085   3.263  1.00  0.00     0.001 A
HETATM    4  C8  UNL     1       3.806  49.389   2.032  1.00  0.00    -0.018 A
HETATM    5  C9  UNL     1       4.339  50.456   1.391  1.00  0.00     0.076 A
HETATM    6  N2  UNL     1       3.911  50.914   0.072  1.00  0.00    -0.100 NA
HETATM    7  C10 UNL     1       2.693  48.473   1.539  1.00  0.00     0.052 C
HETATM    8  C11 UNL     1       1.481  48.643   2.431  1.00  0.00     0.079 C
HETATM    9  S2  UNL     1       1.957  47.963   4.066  1.00  0.00    -0.164 SA
HETATM   10  C12 UNL     1       3.784  47.909   4.064  1.00  0.00     0.120 C
ENDROOT
BRANCH   1  11
HETATM   11  C5  UNL     1       6.092  52.322   1.576  1.00  0.00     0.261 C
HETATM   12  N1  UNL     1       5.487  53.596   1.747  1.00  0.00    -0.348 N
ATOM     13  H1  UNL     1       4.563  53.654   2.175  1.00  0.00     0.163 HD
HETATM   14  O1  UNL     1       7.207  52.124   1.071  1.00  0.00    -0.267 OA
BRANCH  12  15
HETATM   15  C2  UNL     1       6.146  54.808   1.330  1.00  0.00     0.022 C
HETATM   16  C1  UNL     1       5.234  55.981   1.609  1.00  0.00     0.037 C
HETATM   17  C3  UNL     1       6.526  54.769  -0.134  1.00  0.00     0.037 C
HETATM   18  C4  UNL     1       7.441  55.039   2.106  1.00  0.00     0.037 C
ENDBRANCH  12  15
ENDBRANCH   1  11
TORSDOF 2
ENDMDL