MODEL 4
REMARK VINA RESULT: -3.888500704      1.987      3.328
REMARK  3 active torsions:
REMARK  status: ('A' for Active; 'I' for Inactive)
REMARK    1  A    between atoms: C4_4  and  N1_5
REMARK    2  A    between atoms: C8_12  and  C9_13
REMARK    3  A    between atoms: C9_13  and  N2_14
ROOT
HETATM    1  C1  UNL     1      11.853  22.071  23.377  1.00  0.00     0.016 C
HETATM    2  C2  UNL     1      10.897  22.480  22.319  1.00  0.00    -0.034 C
HETATM    3  C3  UNL     1      10.823  21.538  21.143  1.00  0.00     0.042 C
HETATM    4  C4  UNL     1       9.376  21.354  20.806  1.00  0.00     0.185 C
HETATM    5  C5  UNL     1       8.584  21.849  22.001  1.00  0.00     0.043 C
HETATM    6  C6  UNL     1       9.505  22.812  22.714  1.00  0.00    -0.030 C
HETATM    7  C7  UNL     1       9.270  22.903  24.194  1.00  0.00     0.016 C
HETATM    8  C8  UNL     1       9.593  24.101  21.969  1.00  0.00     0.020 C
HETATM    9  C10 UNL     1      11.097  23.938  21.931  1.00  0.00     0.017 C
ENDROOT
BRANCH   8  10
HETATM   10  C9  UNL     1       9.121  25.324  22.725  1.00  0.00     0.235 C
BRANCH  10  11
HETATM   11  N2  UNL     1       8.070  25.967  21.953  1.00  0.00    -0.079 N
ATOM     12  H23 UNL     1       8.415  26.367  21.080  1.00  0.00     0.274 HD
ATOM     13  H22 UNL     1       7.416  25.296  21.549  1.00  0.00     0.274 HD
ATOM     14  H21 UNL     1       7.609  26.657  22.545  1.00  0.00     0.274 HD
ENDBRANCH  10  11
ENDBRANCH   8  10
BRANCH   4  15
HETATM   15  N1  UNL     1       9.014  19.963  20.609  1.00  0.00    -0.075 N
ATOM     16  H13 UNL     1       9.844  19.372  20.570  1.00  0.00     0.274 HD
ATOM     17  H12 UNL     1       8.576  19.578  21.446  1.00  0.00     0.274 HD
ATOM     18  H11 UNL     1       8.424  19.819  19.789  1.00  0.00     0.274 HD
ENDBRANCH   4  15
TORSDOF 3
ENDMDL