MODEL 2
REMARK VINA RESULT: -4.050447252      1.075      3.032
REMARK  1 active torsions:
REMARK  status: ('A' for Active; 'I' for Inactive)
REMARK    1  A    between atoms: N1_2  and  C2_5
ROOT
HETATM    1  C2  UNL     1      10.707  21.787  21.977  1.00  0.00     0.193 C
HETATM    2  C3  UNL     1       9.571  22.667  22.488  1.00  0.00     0.016 C
HETATM    3  C4  UNL     1       9.858  23.166  23.885  1.00  0.00     0.007 C
HETATM    4  C5  UNL     1      11.319  23.544  23.967  1.00  0.00     0.005 C
HETATM    5  C6  UNL     1      11.773  23.911  22.565  1.00  0.00    -0.009 C
HETATM    6  C7  UNL     1      10.688  24.816  21.992  1.00  0.00     0.005 C
HETATM    7  C8  UNL     1       9.533  23.904  21.595  1.00  0.00     0.007 C
HETATM    8  C9  UNL     1      11.853  22.710  21.658  1.00  0.00     0.016 C
HETATM    9  C10 UNL     1      13.189  22.031  21.680  1.00  0.00     0.012 C
ENDROOT
BRANCH   1  10
HETATM   10  N1  UNL     1      10.220  21.188  20.745  1.00  0.00    -0.074 N
HETATM   11  C1  UNL     1       9.093  20.317  20.953  1.00  0.00     0.267 C
ATOM     12  H12 UNL     1      10.971  20.702  20.254  1.00  0.00     0.277 HD
ATOM     13  H11 UNL     1      10.005  21.904  20.051  1.00  0.00     0.277 HD
ENDBRANCH   1  10
TORSDOF 1
ENDMDL