MODEL 1
REMARK VINA RESULT: -3.977235420      0.000      0.000
REMARK  2 active torsions:
REMARK  status: ('A' for Active; 'I' for Inactive)
REMARK    1  A    between atoms: C2_2  and  N1_4
REMARK    2  A    between atoms: C2_2  and  C4_8
ROOT
HETATM    1  C4  UNL     1       9.858  22.788  20.756  1.00  0.00     0.029 C
HETATM    2  C5  UNL     1       9.375  24.147  21.227  1.00  0.00     0.008 C
HETATM    3  C6  UNL     1      10.798  24.317  21.788  1.00  0.00     0.010 C
HETATM    4  C7  UNL     1      10.800  22.781  21.841  1.00  0.00    -0.034 C
HETATM    5  C8  UNL     1      12.118  22.137  21.764  1.00  0.00     0.010 C
HETATM    6  C9  UNL     1      12.114  22.163  23.302  1.00  0.00     0.002 C
HETATM    7  C10 UNL     1      10.582  22.277  23.177  1.00  0.00     0.010 C
ENDROOT
BRANCH   1   8
HETATM    8  C2  UNL     1       8.818  21.780  20.543  1.00  0.00     0.121 C
HETATM    9  C1  UNL     1       8.294  21.899  19.108  1.00  0.00     0.046 C
HETATM   10  C3  UNL     1       9.111  20.362  20.843  1.00  0.00     0.046 C
BRANCH   8  11
HETATM   11  N1  UNL     1       7.678  22.170  21.398  1.00  0.00    -0.071 N
ATOM     12  H13 UNL     1       6.825  22.378  20.879  1.00  0.00     0.275 HD
ATOM     13  H12 UNL     1       7.295  21.404  21.951  1.00  0.00     0.275 HD
ATOM     14  H11 UNL     1       8.022  22.951  21.956  1.00  0.00     0.275 HD
ENDBRANCH   8  11
ENDBRANCH   1   8
TORSDOF 2
ENDMDL