MODEL 5
REMARK VINA RESULT: -4.104846202      1.415      1.536
REMARK  1 active torsions:
REMARK  status: ('A' for Active; 'I' for Inactive)
REMARK    1  A    between atoms: N1_2  and  C2_5
ROOT
HETATM    1  C2  UNL     1       9.258  21.861  21.852  1.00  0.00     0.186 C
HETATM    2  C3  UNL     1      10.641  21.257  21.633  1.00  0.00     0.038 C
HETATM    3  C4  UNL     1      11.534  22.315  22.180  1.00  0.00    -0.008 C
HETATM    4  C5  UNL     1      12.944  22.286  21.696  1.00  0.00     0.005 C
HETATM    5  C6  UNL     1      13.580  23.614  22.089  1.00  0.00     0.000 C
HETATM    6  C7  UNL     1      12.712  24.406  23.034  1.00  0.00     0.000 C
HETATM    7  C8  UNL     1      11.481  24.813  22.247  1.00  0.00     0.005 C
HETATM    8  C9  UNL     1      10.892  23.577  21.634  1.00  0.00    -0.008 C
HETATM    9  C10 UNL     1       9.452  23.347  21.997  1.00  0.00     0.038 C
ENDROOT
BRANCH   1  10
HETATM   10  N1  UNL     1       8.446  21.553  20.688  1.00  0.00    -0.075 N
HETATM   11  C1  UNL     1       8.589  20.119  20.457  1.00  0.00     0.267 C
ATOM     12  H12 UNL     1       8.676  22.120  19.873  1.00  0.00     0.277 HD
ATOM     13  H11 UNL     1       7.475  21.854  20.781  1.00  0.00     0.277 HD
ENDBRANCH   1  10
TORSDOF 1
ENDMDL