MODEL 1
REMARK VINA RESULT: -4.692959736      0.000      0.000
REMARK  2 active torsions:
REMARK  status: ('A' for Active; 'I' for Inactive)
REMARK    1  A    between atoms: C2_2  and  N1_4
REMARK    2  A    between atoms: C2_2  and  C5_8
ROOT
HETATM    1  N1  UNL     1      10.846  21.192  21.536  1.00  0.00    -0.319 N
ATOM      2  H1  UNL     1      11.670  20.610  21.387  1.00  0.00     0.172 HD
HETATM    3  C4  UNL     1       9.587  20.711  21.159  1.00  0.00     0.178 C
HETATM    4  N2  UNL     1       8.548  20.308  20.861  1.00  0.00    -0.172 NA
ENDROOT
BRANCH   1   5
HETATM    5  C2  UNL     1      11.002  22.500  22.133  1.00  0.00     0.036 C
HETATM    6  C1  UNL     1      10.302  23.510  21.287  1.00  0.00     0.039 C
HETATM    7  C3  UNL     1      10.240  22.440  23.466  1.00  0.00     0.039 C
BRANCH   5   8
HETATM    8  C5  UNL     1      12.447  22.839  22.395  1.00  0.00     0.014 C
HETATM    9  C6  UNL     1      12.604  24.341  22.336  1.00  0.00     0.007 C
HETATM   10  C7  UNL     1      14.018  24.613  22.810  1.00  0.00     0.000 C
HETATM   11  C8  UNL     1      14.961  24.091  21.788  1.00  0.00     0.000 C
HETATM   12  C9  UNL     1      14.727  22.698  21.334  1.00  0.00     0.000 C
HETATM   13  C10 UNL     1      13.393  22.125  21.511  1.00  0.00     0.007 C
ENDBRANCH   5   8
ENDBRANCH   1   5
TORSDOF 2
ENDMDL