MODEL 5
REMARK VINA RESULT: -4.006710874      1.755      2.711
REMARK  2 active torsions:
REMARK  status: ('A' for Active; 'I' for Inactive)
REMARK    1  A    between atoms: N1_1  and  C1_5
REMARK    2  A    between atoms: C8_12  and  N2_13
ROOT
HETATM    1  C1  UNL     1      11.457  23.812  21.846  1.00  0.00     0.191 C
HETATM    2  C2  UNL     1      10.085  24.345  21.533  1.00  0.00     0.019 C
HETATM    3  C3  UNL     1       9.151  24.328  22.699  1.00  0.00     0.011 C
HETATM    4  C4  UNL     1       8.988  22.901  23.214  1.00  0.00    -0.011 C
HETATM    5  C5  UNL     1      10.382  22.485  23.689  1.00  0.00     0.011 C
HETATM    6  C6  UNL     1      11.325  22.484  22.527  1.00  0.00     0.019 C
HETATM    7  C7  UNL     1      10.780  21.508  21.497  1.00  0.00     0.045 C
HETATM    8  C8  UNL     1       9.467  22.002  20.981  1.00  0.00     0.125 C
HETATM    9  C9  UNL     1       8.477  21.971  22.146  1.00  0.00     0.043 C
HETATM   10  C10 UNL     1       9.497  23.409  20.469  1.00  0.00     0.045 C
ENDROOT
BRANCH   1  11
HETATM   11  N1  UNL     1      12.301  24.745  22.526  1.00  0.00    -0.074 N
ATOM     12  H13 UNL     1      12.384  24.498  23.512  1.00  0.00     0.274 HD
ATOM     13  H12 UNL     1      13.272  24.627  22.236  1.00  0.00     0.274 HD
ATOM     14  H11 UNL     1      12.012  25.717  22.423  1.00  0.00     0.274 HD
ENDBRANCH   1  11
BRANCH   8  15
HETATM   15  N2  UNL     1       9.018  21.138  19.902  1.00  0.00    -0.070 N
ATOM     16  H23 UNL     1       8.039  21.296  19.662  1.00  0.00     0.275 HD
ATOM     17  H22 UNL     1       9.430  21.395  19.004  1.00  0.00     0.275 HD
ATOM     18  H21 UNL     1       9.204  20.165  20.147  1.00  0.00     0.275 HD
ENDBRANCH   8  15
TORSDOF 2
ENDMDL