MODEL 2
REMARK VINA RESULT: -4.136299856      1.198      2.666
REMARK  1 active torsions:
REMARK  status: ('A' for Active; 'I' for Inactive)
REMARK    1  A    between atoms: N1_2  and  C2_5
ROOT
HETATM    1  C2  UNL     1      10.066  21.818  21.835  1.00  0.00     0.190 C
HETATM    2  C3  UNL     1       9.848  23.285  21.707  1.00  0.00     0.042 C
HETATM    3  C4  UNL     1      10.673  23.911  22.826  1.00  0.00    -0.042 C
HETATM    4  C5  UNL     1       9.848  24.886  23.608  1.00  0.00     0.015 C
HETATM    5  C6  UNL     1      11.912  24.483  22.235  1.00  0.00     0.009 C
HETATM    6  C7  UNL     1      13.049  23.494  22.122  1.00  0.00     0.001 C
HETATM    7  C8  UNL     1      12.569  22.103  21.792  1.00  0.00     0.007 C
HETATM    8  C9  UNL     1      11.373  21.696  22.584  1.00  0.00     0.017 C
HETATM    9  C10 UNL     1      11.112  22.725  23.695  1.00  0.00     0.015 C
ENDROOT
BRANCH   1  10
HETATM   10  N1  UNL     1       9.978  21.045  20.656  1.00  0.00    -0.074 N
HETATM   11  C1  UNL     1       8.854  20.147  20.745  1.00  0.00     0.267 C
ATOM     12  H12 UNL     1      10.848  20.553  20.454  1.00  0.00     0.277 HD
ATOM     13  H11 UNL     1       9.939  21.627  19.818  1.00  0.00     0.277 HD
ENDBRANCH   1  10
TORSDOF 1
ENDMDL