MODEL 1
REMARK VINA RESULT: -3.983747104      0.000      0.000
REMARK  1 active torsions:
REMARK  status: ('A' for Active; 'I' for Inactive)
REMARK    1  A    between atoms: N1_2  and  C2_5
ROOT
HETATM    1  C2  UNL     1      10.525  21.920  21.760  1.00  0.00     0.199 C
HETATM    2  C3  UNL     1      11.285  21.762  23.076  1.00  0.00     0.025 C
HETATM    3  C4  UNL     1      12.671  22.166  22.644  1.00  0.00     0.008 C
HETATM    4  C5  UNL     1      12.304  23.359  21.745  1.00  0.00     0.012 C
HETATM    5  C6  UNL     1      10.810  23.374  21.975  1.00  0.00    -0.008 C
HETATM    6  C7  UNL     1      10.014  24.400  21.350  1.00  0.00     0.018 C
HETATM    7  C8  UNL     1      10.684  23.109  23.450  1.00  0.00    -0.033 C
HETATM    8  C9  UNL     1       9.277  23.040  23.982  1.00  0.00     0.016 C
HETATM    9  C10 UNL     1      11.532  23.950  24.358  1.00  0.00     0.016 C
ENDROOT
BRANCH   1  10
HETATM   10  N1  UNL     1       9.204  21.455  21.716  1.00  0.00    -0.074 N
HETATM   11  C1  UNL     1       9.064  20.326  20.812  1.00  0.00     0.267 C
ATOM     12  H12 UNL     1       8.553  22.204  21.480  1.00  0.00     0.277 HD
ATOM     13  H11 UNL     1       8.857  21.230  22.649  1.00  0.00     0.277 HD
ENDBRANCH   1  10
TORSDOF 1
ENDMDL