MODEL 2
REMARK VINA RESULT: -3.770877757      1.540      3.682
REMARK  3 active torsions:
REMARK  status: ('A' for Active; 'I' for Inactive)
REMARK    1  A    between atoms: N1_2  and  C2_5
REMARK    2  A    between atoms: C2_5  and  N2_6
REMARK    3  A    between atoms: C5_12  and  C7_14
ROOT
HETATM    1  C2  UNL     1       9.717  22.475  21.495  1.00  0.00     0.291 C
HETATM    2  C3  UNL     1       8.473  22.444  22.369  1.00  0.00     0.071 C
HETATM    3  C4  UNL     1       9.435  22.554  23.560  1.00  0.00     0.018 C
HETATM    4  C5  UNL     1      10.414  23.154  22.586  1.00  0.00     0.022 C
HETATM    5  C6  UNL     1      10.062  24.668  22.520  1.00  0.00     0.020 C
ENDROOT
BRANCH   1   6
HETATM    6  N1  UNL     1      10.053  21.126  21.122  1.00  0.00    -0.044 N
HETATM    7  C1  UNL     1       8.902  20.325  20.722  1.00  0.00     0.270 C
ATOM      8  H12 UNL     1      10.571  20.664  21.870  1.00  0.00     0.279 HD
ATOM      9  H11 UNL     1      10.766  21.121  20.393  1.00  0.00     0.279 HD
ENDBRANCH   1   6
BRANCH   1  10
HETATM   10  N2  UNL     1       9.422  23.327  20.334  1.00  0.00    -0.044 N
ATOM     11  H23 UNL     1      10.216  23.926  20.109  1.00  0.00     0.277 HD
ATOM     12  H22 UNL     1       9.383  22.777  19.476  1.00  0.00     0.277 HD
ATOM     13  H21 UNL     1       8.572  23.877  20.456  1.00  0.00     0.277 HD
ENDBRANCH   1  10
BRANCH   4  14
HETATM   14  C7  UNL     1      11.812  22.958  22.934  1.00  0.00    -0.040 C
HETATM   15  C8  UNL     1      12.174  21.581  23.422  1.00  0.00     0.015 C
HETATM   16  C9  UNL     1      12.130  23.884  24.130  1.00  0.00     0.015 C
HETATM   17  C10 UNL     1      12.830  23.328  21.888  1.00  0.00     0.015 C
ENDBRANCH   4  14
TORSDOF 3
ENDMDL