MODEL 1
REMARK VINA RESULT: -4.362963356      0.000      0.000
REMARK  1 active torsions:
REMARK  status: ('A' for Active; 'I' for Inactive)
REMARK    1  A    between atoms: N1_2  and  C2_4
ROOT
HETATM    1  C2  UNL     1      10.137  21.966  21.310  1.00  0.00     0.076 A
HETATM    2  C3  UNL     1       9.229  22.261  22.473  1.00  0.00     0.029 A
HETATM    3  C4  UNL     1      10.088  22.493  23.681  1.00  0.00    -0.007 A
HETATM    4  C5  UNL     1      10.323  23.954  24.036  1.00  0.00     0.014 A
HETATM    5  C6  UNL     1      11.736  23.783  23.551  1.00  0.00    -0.043 A
HETATM    6  C7  UNL     1      11.988  24.656  22.349  1.00  0.00     0.015 C
HETATM    7  C8  UNL     1      12.742  24.102  24.632  1.00  0.00     0.015 C
HETATM    8  C9  UNL     1      11.521  22.325  23.270  1.00  0.00    -0.001 A
HETATM    9  C10 UNL     1      11.541  21.911  21.826  1.00  0.00     0.030 A
ENDROOT
BRANCH   1  10
HETATM   10  N1  UNL     1       9.677  20.754  20.695  1.00  0.00    -0.421 N
HETATM   11  C1  UNL     1       8.272  20.705  20.431  1.00  0.00     0.140 C
ATOM     12  H1  UNL     1      10.306  19.985  20.463  1.00  0.00     0.153 HD
ENDBRANCH   1  10
TORSDOF 1
ENDMDL