MODEL 2
REMARK VINA RESULT: -4.115482254      0.985      1.436
REMARK  3 active torsions:
REMARK  status: ('A' for Active; 'I' for Inactive)
REMARK    1  A    between atoms: C5_5  and  C7_7
REMARK    2  A    between atoms: C7_7  and  N1_8
REMARK    3  A    between atoms: N1_8  and  C8_11
ROOT
HETATM    1  C1  UNL     1     -13.972  21.539 -22.611  1.00  0.00     0.010 C
HETATM    2  C2  UNL     1     -12.910  21.893 -23.598  1.00  0.00    -0.019 C
HETATM    3  C3  UNL     1     -12.596  20.802 -24.574  1.00  0.00     0.005 C
HETATM    4  C4  UNL     1     -11.880  19.638 -23.977  1.00  0.00     0.011 C
HETATM    5  C5  UNL     1     -10.644  20.043 -23.217  1.00  0.00    -0.020 C
HETATM    6  C6  UNL     1      -9.564  20.528 -24.168  1.00  0.00     0.017 C
HETATM    7  C11 UNL     1     -11.037  21.110 -22.215  1.00  0.00     0.011 C
HETATM    8  C12 UNL     1     -11.649  22.307 -22.873  1.00  0.00     0.005 C
ENDROOT
BRANCH   5   9
HETATM    9  C7  UNL     1     -10.138  18.867 -22.426  1.00  0.00     0.241 C
BRANCH   9  10
HETATM   10  N1  UNL     1      -9.195  19.261 -21.422  1.00  0.00    -0.070 N
ATOM     11  H12 UNL     1      -9.058  20.272 -21.415  1.00  0.00     0.277 HD
ATOM     12  H11 UNL     1      -9.581  19.147 -20.484  1.00  0.00     0.277 HD
BRANCH  10  13
HETATM   13  C8  UNL     1      -7.947  18.562 -21.565  1.00  0.00     0.186 A
HETATM   14  C9  UNL     1      -6.875  18.593 -20.576  1.00  0.00     0.035 A
HETATM   15  C10 UNL     1      -6.711  19.505 -21.738  1.00  0.00     0.035 A
ENDBRANCH  10  13
ENDBRANCH   9  10
ENDBRANCH   5   9
TORSDOF 3
ENDMDL