MODEL 5
REMARK VINA RESULT: -3.897997068      3.538      5.427
REMARK  4 active torsions:
REMARK  status: ('A' for Active; 'I' for Inactive)
REMARK    1  A    between atoms: C4_4  and  C5_5
REMARK    2  A    between atoms: C6_6  and  C7_7
REMARK    3  A    between atoms: C7_7  and  N1_9
REMARK    4  A    between atoms: N1_9  and  C9_11
ROOT
HETATM    1  C7  UNL     1     -11.292  20.156 -23.081  1.00  0.00     0.102 C
HETATM    2  C8  UNL     1     -10.849  20.293 -24.519  1.00  0.00     0.036 C
ENDROOT
BRANCH   1   3
HETATM    3  C6  UNL     1     -10.312  19.297 -22.378  1.00  0.00    -0.002 C
HETATM    4  C5  UNL     1      -9.492  19.760 -21.466  1.00  0.00    -0.002 C
BRANCH   4   5
HETATM    5  C4  UNL     1      -9.482  21.178 -21.070  1.00  0.00     0.002 C
HETATM    6  C2  UNL     1      -9.204  21.518 -19.833  1.00  0.00    -0.088 C
HETATM    7  C1  UNL     1      -8.891  20.526 -18.790  1.00  0.00     0.043 C
HETATM    8  C3  UNL     1      -9.207  22.970 -19.474  1.00  0.00     0.043 C
ENDBRANCH   4   5
ENDBRANCH   1   3
BRANCH   1   9
HETATM    9  N1  UNL     1     -12.633  19.587 -23.013  1.00  0.00    -0.362 N
ATOM     10  H1  UNL     1     -12.754  18.599 -23.235  1.00  0.00     0.162 HD
BRANCH   9  11
HETATM   11  C9  UNL     1     -13.763  20.335 -22.655  1.00  0.00     0.181 C
HETATM   12  N2  UNL     1     -14.885  19.711 -22.052  1.00  0.00    -0.070 NA
HETATM   13  S1  UNL     1     -13.831  21.943 -22.917  1.00  0.00    -0.044 SA
ENDBRANCH   9  11
ENDBRANCH   1   9
TORSDOF 4
ENDMDL