MODEL 2
REMARK VINA RESULT: -4.424909595      0.624      1.584
REMARK  3 active torsions:
REMARK  status: ('A' for Active; 'I' for Inactive)
REMARK    1  A    between atoms: C2_2  and  N1_4
REMARK    2  A    between atoms: N1_4  and  C4_7
REMARK    3  A    between atoms: C4_7  and  C5_8
ROOT
HETATM    1  C5  UNL     1     -10.198  20.412 -22.650  1.00  0.00    -0.015 C
HETATM    2  C6  UNL     1     -10.982  21.641 -22.306  1.00  0.00     0.016 C
HETATM    3  C7  UNL     1     -12.011  21.671 -23.404  1.00  0.00    -0.009 C
HETATM    4  C8  UNL     1     -13.121  20.658 -23.110  1.00  0.00     0.010 C
HETATM    5  C9  UNL     1     -12.146  19.612 -23.670  1.00  0.00    -0.009 C
HETATM    6  C10 UNL     1     -11.088  19.223 -22.628  1.00  0.00     0.016 C
HETATM    7  C11 UNL     1     -11.539  20.711 -24.475  1.00  0.00    -0.005 C
HETATM    8  C12 UNL     1     -10.058  20.613 -24.168  1.00  0.00     0.016 C
ENDROOT
BRANCH   1   9
HETATM    9  C4  UNL     1      -8.925  20.325 -21.923  1.00  0.00     0.242 C
BRANCH   9  10
HETATM   10  N1  UNL     1      -8.936  19.588 -20.709  1.00  0.00    -0.071 N
ATOM     11  H12 UNL     1      -9.810  19.078 -20.572  1.00  0.00     0.277 HD
ATOM     12  H11 UNL     1      -8.993  20.192 -19.888  1.00  0.00     0.277 HD
BRANCH  10  13
HETATM   13  C2  UNL     1      -7.780  18.718 -20.674  1.00  0.00     0.177 C
HETATM   14  C1  UNL     1      -6.471  19.406 -20.539  1.00  0.00     0.039 C
HETATM   15  C3  UNL     1      -7.723  17.749 -21.837  1.00  0.00     0.039 C
ENDBRANCH  10  13
ENDBRANCH   9  10
ENDBRANCH   1   9
TORSDOF 3
ENDMDL