MODEL 1
REMARK VINA RESULT: -4.755504160      0.000      0.000
REMARK  3 active torsions:
REMARK  status: ('A' for Active; 'I' for Inactive)
REMARK    1  A    between atoms: N1_1  and  C1_5
REMARK    2  A    between atoms: C1_5  and  C2_6
REMARK    3  A    between atoms: C2_6  and  C3_7
ROOT
HETATM    1  C3  UNL     1      -9.375  20.049 -22.773  1.00  0.00    -0.035 A
HETATM    2  C4  UNL     1      -9.251  21.225 -21.788  1.00  0.00     0.010 A
HETATM    3  C5  UNL     1      -9.217  22.159 -22.937  1.00  0.00     0.006 A
HETATM    4  C6  UNL     1      -9.411  20.978 -23.873  1.00  0.00    -0.006 A
HETATM    5  C7  UNL     1     -10.543  21.047 -24.808  1.00  0.00     0.010 C
HETATM    6  C8  UNL     1     -11.911  20.839 -24.398  1.00  0.00    -0.013 C
HETATM    7  C9  UNL     1     -12.179  19.331 -24.242  1.00  0.00     0.009 C
HETATM    8  C10 UNL     1     -11.886  19.598 -22.755  1.00  0.00    -0.013 C
HETATM    9  C11 UNL     1     -12.314  20.971 -22.982  1.00  0.00     0.009 C
HETATM   10  C12 UNL     1     -10.542  19.213 -22.436  1.00  0.00     0.014 C
ENDROOT
BRANCH   1  11
HETATM   11  C2  UNL     1      -8.137  19.181 -22.654  1.00  0.00     0.037 C
BRANCH  11  12
HETATM   12  C1  UNL     1      -8.239  17.970 -21.836  1.00  0.00     0.230 C
BRANCH  12  13
HETATM   13  N1  UNL     1      -6.860  17.623 -21.429  1.00  0.00    -0.079 N
ATOM     14  H13 UNL     1      -6.455  16.864 -21.978  1.00  0.00     0.274 HD
ATOM     15  H12 UNL     1      -6.174  18.336 -21.675  1.00  0.00     0.274 HD
ATOM     16  H11 UNL     1      -6.897  17.425 -20.429  1.00  0.00     0.274 HD
ENDBRANCH  12  13
ENDBRANCH  11  12
ENDBRANCH   1  11
TORSDOF 3
ENDMDL