MODEL 2
REMARK VINA RESULT: -4.378262068      1.379      2.540
REMARK  4 active torsions:
REMARK  status: ('A' for Active; 'I' for Inactive)
REMARK    1  A    between atoms: C3_3  and  C5_5
REMARK    2  A    between atoms: C5_5  and  C6_6
REMARK    3  A    between atoms: C6_6  and  N1_7
REMARK    4  A    between atoms: C6_6  and  C8_10
ROOT
HETATM    1  C1  UNL     1      -9.969  23.640 -21.026  1.00  0.00     0.012 C
HETATM    2  C2  UNL     1      -9.626  22.543 -20.659  1.00  0.00    -0.113 C
HETATM    3  C3  UNL     1      -9.219  21.190 -20.191  1.00  0.00     0.062 C
HETATM    4  C4  UNL     1      -7.884  21.403 -19.431  1.00  0.00     0.023 C
ENDROOT
BRANCH   3   5
HETATM    5  C5  UNL     1      -8.850  20.405 -21.405  1.00  0.00     0.041 C
BRANCH   5   6
HETATM    6  C6  UNL     1      -9.734  19.298 -21.786  1.00  0.00     0.081 C
BRANCH   6   7
HETATM    7  N1  UNL     1      -9.148  18.035 -21.834  1.00  0.00    -0.421 N
HETATM    8  C7  UNL     1      -7.793  17.748 -21.844  1.00  0.00     0.140 C
ATOM      9  H1  UNL     1      -9.784  17.238 -21.867  1.00  0.00     0.153 HD
ENDBRANCH   6   7
BRANCH   6  10
HETATM   10  C8  UNL     1     -10.492  19.566 -23.088  1.00  0.00     0.008 C
HETATM   11  C9  UNL     1     -11.959  19.724 -22.800  1.00  0.00     0.007 C
HETATM   12  C10 UNL     1     -12.412  21.128 -23.193  1.00  0.00     0.000 C
HETATM   13  C11 UNL     1     -12.201  21.216 -24.694  1.00  0.00     0.000 C
HETATM   14  C12 UNL     1     -10.737  21.193 -24.966  1.00  0.00     0.000 C
HETATM   15  C13 UNL     1      -9.882  20.707 -23.830  1.00  0.00     0.007 C
ENDBRANCH   6  10
ENDBRANCH   5   6
ENDBRANCH   3   5
TORSDOF 4
ENDMDL