MODEL 5
REMARK VINA RESULT: -4.295296592      1.927      5.513
REMARK  3 active torsions:
REMARK  status: ('A' for Active; 'I' for Inactive)
REMARK    1  A    between atoms: C2_2  and  N1_3
REMARK    2  A    between atoms: C2_2  and  C9_11
REMARK    3  A    between atoms: N1_3  and  C3_5
ROOT
HETATM    1  C1  UNL     1      -7.329  19.553 -22.793  1.00  0.00     0.034 C
HETATM    2  C2  UNL     1      -8.186  18.601 -22.050  1.00  0.00     0.103 C
ENDROOT
BRANCH   2   3
HETATM    3  N1  UNL     1      -9.557  18.735 -22.020  1.00  0.00    -0.411 N
ATOM      4  H1  UNL     1     -10.077  18.016 -21.517  1.00  0.00     0.154 HD
BRANCH   3   5
HETATM    5  C3  UNL     1     -10.300  19.750 -22.606  1.00  0.00     0.077 C
HETATM    6  C4  UNL     1     -11.748  19.444 -22.870  1.00  0.00     0.024 C
HETATM    7  C5  UNL     1     -12.294  20.557 -23.753  1.00  0.00     0.002 C
HETATM    8  C6  UNL     1     -12.309  21.823 -22.945  1.00  0.00     0.000 C
HETATM    9  C7  UNL     1     -10.952  22.146 -22.365  1.00  0.00     0.002 C
HETATM   10  C8  UNL     1     -10.341  20.975 -21.653  1.00  0.00     0.024 C
ENDBRANCH   3   5
ENDBRANCH   2   3
BRANCH   2  11
HETATM   11  C9  UNL     1      -7.540  18.433 -20.661  1.00  0.00     0.209 C
HETATM   12  C10 UNL     1      -7.003  19.720 -20.096  1.00  0.00     0.062 C
HETATM   13  C11 UNL     1      -5.753  18.933 -19.818  1.00  0.00     0.235 C
HETATM   14  N2  UNL     1      -6.230  17.891 -20.688  1.00  0.00    -0.069 N
ATOM     15  H22 UNL     1      -6.084  16.915 -20.432  1.00  0.00     0.277 HD
ATOM     16  H21 UNL     1      -5.768  17.733 -21.584  1.00  0.00     0.277 HD
ENDBRANCH   2  11
TORSDOF 3
ENDMDL