MODEL 1
REMARK VINA RESULT: -4.369812838      0.000      0.000
REMARK  4 active torsions:
REMARK  status: ('A' for Active; 'I' for Inactive)
REMARK    1  A    between atoms: C3_3  and  C4_4
REMARK    2  A    between atoms: C4_4  and  C5_5
REMARK    3  A    between atoms: C7_7  and  C8_8
REMARK    4  A    between atoms: C12_12  and  N1_13
ROOT
HETATM    1  C5  UNL     1      -9.304  19.805 -22.445  1.00  0.00     0.020 C
HETATM    2  C6  UNL     1      -9.503  20.683 -21.263  1.00  0.00     0.012 C
HETATM    3  C7  UNL     1      -8.743  20.093 -20.104  1.00  0.00    -0.008 C
HETATM    4  C11 UNL     1      -7.623  19.343 -20.785  1.00  0.00     0.038 C
HETATM    5  C12 UNL     1      -8.324  18.737 -22.008  1.00  0.00     0.188 C
ENDROOT
BRANCH   1   6
HETATM    6  C4  UNL     1     -10.635  19.252 -22.884  1.00  0.00     0.033 C
BRANCH   6   7
HETATM    7  C3  UNL     1     -11.759  20.190 -22.631  1.00  0.00    -0.031 C
HETATM    8  C2  UNL     1     -12.993  19.765 -22.860  1.00  0.00    -0.035 C
HETATM    9  C1  UNL     1     -14.127  20.695 -22.611  1.00  0.00     0.036 C
ENDBRANCH   6   7
ENDBRANCH   1   6
BRANCH   5  10
HETATM   10  N1  UNL     1      -8.977  17.504 -21.660  1.00  0.00    -0.075 N
ATOM     11  H13 UNL     1      -9.558  17.616 -20.829  1.00  0.00     0.274 HD
ATOM     12  H12 UNL     1      -9.702  17.268 -22.336  1.00  0.00     0.274 HD
ATOM     13  H11 UNL     1      -8.317  16.734 -21.546  1.00  0.00     0.274 HD
ENDBRANCH   5  10
BRANCH   3  14
HETATM   14  C8  UNL     1      -8.264  21.219 -19.252  1.00  0.00    -0.010 A
HETATM   15  C9  UNL     1      -7.199  21.055 -18.241  1.00  0.00     0.005 A
HETATM   16  C10 UNL     1      -8.635  21.074 -17.772  1.00  0.00     0.005 A
ENDBRANCH   3  14
TORSDOF 4
ENDMDL