MODEL 3
REMARK VINA RESULT: -4.041916623      2.111      3.326
REMARK  3 active torsions:
REMARK  status: ('A' for Active; 'I' for Inactive)
REMARK    1  A    between atoms: C2_2  and  N1_3
REMARK    2  A    between atoms: C2_2  and  C4_8
REMARK    3  A    between atoms: N1_3  and  C3_5
ROOT
HETATM    1  C1  UNL     1      -9.228  21.275 -20.406  1.00  0.00     0.032 C
HETATM    2  C2  UNL     1      -9.264  20.191 -21.437  1.00  0.00     0.083 C
ENDROOT
BRANCH   2   3
HETATM    3  N1  UNL     1      -7.976  19.786 -21.925  1.00  0.00    -0.365 N
ATOM      4  H1  UNL     1      -7.535  20.370 -22.636  1.00  0.00     0.162 HD
BRANCH   3   5
HETATM    5  C3  UNL     1      -7.274  18.637 -21.494  1.00  0.00     0.181 C
HETATM    6  N2  UNL     1      -7.498  17.393 -22.151  1.00  0.00    -0.070 NA
HETATM    7  S1  UNL     1      -6.237  18.781 -20.249  1.00  0.00    -0.044 SA
ENDBRANCH   3   5
ENDBRANCH   2   3
BRANCH   2   8
HETATM    8  C4  UNL     1     -10.213  20.511 -22.572  1.00  0.00     0.008 C
HETATM    9  C5  UNL     1     -11.123  19.305 -22.719  1.00  0.00     0.007 C
HETATM   10  C6  UNL     1     -12.138  19.639 -23.761  1.00  0.00     0.000 C
HETATM   11  C7  UNL     1     -12.975  20.832 -23.392  1.00  0.00     0.000 C
HETATM   12  C8  UNL     1     -12.186  22.019 -22.955  1.00  0.00     0.000 C
HETATM   13  C9  UNL     1     -10.986  21.732 -22.150  1.00  0.00     0.007 C
ENDBRANCH   2   8
TORSDOF 3
ENDMDL