MODEL 4
REMARK VINA RESULT: -4.189541438      1.289      1.954
REMARK  3 active torsions:
REMARK  status: ('A' for Active; 'I' for Inactive)
REMARK    1  A    between atoms: C2_2  and  C3_4
REMARK    2  A    between atoms: C4_5  and  N2_7
REMARK    3  A    between atoms: N2_7  and  C6_9
ROOT
HETATM    1  N2  UNL     1      -9.653  18.751 -22.080  1.00  0.00    -0.389 N
ATOM      2  H2  UNL     1      -9.860  17.768 -22.251  1.00  0.00     0.159 HD
ENDROOT
BRANCH   1   3
HETATM    3  C4  UNL     1      -8.314  19.136 -21.702  1.00  0.00     0.003 C
HETATM    4  C3  UNL     1      -7.995  19.211 -20.424  1.00  0.00     0.050 C
HETATM    5  C5  UNL     1      -7.373  19.428 -22.807  1.00  0.00     0.068 C
BRANCH   4   6
HETATM    6  C2  UNL     1      -6.727  19.572 -19.856  1.00  0.00     0.038 C
HETATM    7  C1  UNL     1      -6.483  20.802 -19.398  1.00  0.00     0.039 C
HETATM    8  N1  UNL     1      -5.680  18.632 -19.757  1.00  0.00    -0.103 NA
ENDBRANCH   4   6
ENDBRANCH   1   3
BRANCH   1   9
HETATM    9  C6  UNL     1     -10.684  19.712 -22.220  1.00  0.00     0.081 C
HETATM   10  C7  UNL     1     -11.691  19.301 -23.318  1.00  0.00     0.025 C
HETATM   11  C8  UNL     1     -12.919  20.130 -23.046  1.00  0.00     0.006 C
HETATM   12  C9  UNL     1     -12.640  21.583 -23.160  1.00  0.00    -0.019 C
HETATM   13  C10 UNL     1     -12.608  22.009 -24.602  1.00  0.00     0.010 C
HETATM   14  C11 UNL     1     -11.399  22.044 -22.458  1.00  0.00     0.006 C
HETATM   15  C12 UNL     1     -10.241  21.088 -22.589  1.00  0.00     0.025 C
ENDBRANCH   1   9
TORSDOF 3
ENDMDL