MODEL 4
REMARK VINA RESULT: -10.053594939      1.929      2.800
REMARK  10 active torsions:
REMARK  status: ('A' for Active; 'I' for Inactive)
REMARK    1  A    between atoms: C4_4  and  C5_5
REMARK    2  A    between atoms: C5_5  and  C6_6
REMARK    3  A    between atoms: C6_6  and  C7_7
REMARK    4  A    between atoms: C9_10  and  C10_11
REMARK    5  A    between atoms: C10_11  and  C11_12
REMARK    6  A    between atoms: C11_12  and  C12_13
REMARK    7  A    between atoms: C12_13  and  O2_15
REMARK    8  A    between atoms: O2_15  and  C13_16
REMARK    9  A    between atoms: C21_26  and  O4_27
REMARK   10  A    between atoms: C31_39  and  O6_40
ROOT
HETATM    1  C7  UNL     1      37.904  46.102  16.788  1.00  0.00     0.019 C
HETATM    2  C8  UNL     1      38.488  47.271  16.207  1.00  0.00     0.095 C
HETATM    3  N1  UNL     1      38.972  48.227  15.745  1.00  0.00    -0.192 NA
HETATM    4  C9  UNL     1      38.549  45.499  17.763  1.00  0.00    -0.008 C
ENDROOT
BRANCH   1   5
HETATM    5  C6  UNL     1      36.611  45.549  16.341  1.00  0.00     0.053 C
BRANCH   5   6
HETATM    6  C5  UNL     1      36.438  44.174  16.954  1.00  0.00     0.032 C
BRANCH   6   7
HETATM    7  C4  UNL     1      35.085  44.010  17.513  1.00  0.00    -0.024 C
HETATM    8  C2  UNL     1      34.913  43.884  18.809  1.00  0.00    -0.091 C
HETATM    9  C1  UNL     1      36.047  43.899  19.757  1.00  0.00     0.042 C
HETATM   10  C3  UNL     1      33.525  43.720  19.358  1.00  0.00     0.042 C
ENDBRANCH   6   7
ENDBRANCH   5   6
ENDBRANCH   1   5
BRANCH   4  11
HETATM   11  C10 UNL     1      39.866  45.974  18.296  1.00  0.00     0.038 C
BRANCH  11  12
HETATM   12  C11 UNL     1      40.531  44.783  18.903  1.00  0.00     0.115 C
BRANCH  12  13
HETATM   13  C12 UNL     1      41.256  45.096  20.142  1.00  0.00     0.259 C
HETATM   14  O1  UNL     1      41.908  46.176  20.203  1.00  0.00    -0.265 OA
BRANCH  13  15
HETATM   15  O2  UNL     1      41.276  44.282  21.259  1.00  0.00    -0.315 OA
BRANCH  15  16
HETATM   16  C13 UNL     1      40.912  44.804  22.552  1.00  0.00     0.142 C
HETATM   17  C14 UNL     1      39.647  44.155  22.974  1.00  0.00     0.060 C
HETATM   18  C15 UNL     1      39.724  43.237  24.113  1.00  0.00    -0.019 C
HETATM   19  C16 UNL     1      38.837  43.171  25.070  1.00  0.00    -0.047 C
HETATM   20  C17 UNL     1      39.085  42.156  26.168  1.00  0.00     0.046 C
HETATM   21  C18 UNL     1      37.615  44.010  25.176  1.00  0.00     0.268 C
HETATM   22  F1  UNL     1      36.822  43.980  24.052  1.00  0.00    -0.236 F
HETATM   23  C19 UNL     1      37.959  45.388  25.627  1.00  0.00     0.167 C
HETATM   24  O3  UNL     1      37.222  46.292  25.343  1.00  0.00    -0.294 OA
HETATM   25  C20 UNL     1      39.210  45.626  26.425  1.00  0.00     0.114 C
HETATM   26  C21 UNL     1      39.448  47.057  26.733  1.00  0.00     0.140 C
HETATM   27  C22 UNL     1      40.353  47.787  25.798  1.00  0.00     0.039 C
HETATM   28  C23 UNL     1      40.750  49.104  26.489  1.00  0.00     0.025 C
HETATM   29  C24 UNL     1      39.658  48.216  24.525  1.00  0.00     0.025 C
HETATM   30  C25 UNL     1      41.611  47.044  25.558  1.00  0.00     0.137 C
HETATM   31  O5  UNL     1      42.099  46.438  26.478  1.00  0.00    -0.297 OA
HETATM   32  C26 UNL     1      42.216  47.063  24.243  1.00  0.00     0.084 C
HETATM   33  C27 UNL     1      42.882  45.880  23.719  1.00  0.00     0.005 C
HETATM   34  C28 UNL     1      44.001  45.297  24.551  1.00  0.00    -0.011 C
HETATM   35  C32 UNL     1      42.086  44.647  23.445  1.00  0.00     0.049 C
HETATM   36  C29 UNL     1      45.150  46.237  24.745  1.00  0.00     0.010 C
HETATM   37  C30 UNL     1      44.399  44.099  23.669  1.00  0.00     0.037 C
HETATM   38  C31 UNL     1      43.213  43.850  22.754  1.00  0.00     0.125 C
BRANCH  26  39
HETATM   39  O4  UNL     1      38.255  47.782  26.884  1.00  0.00    -0.394 OA
ATOM     40  H4  UNL     1      38.332  48.484  27.520  1.00  0.00     0.210 HD
ENDBRANCH  26  39
BRANCH  38  41
HETATM   41  O6  UNL     1      42.923  42.544  22.534  1.00  0.00    -0.395 OA
ATOM     42  H6  UNL     1      43.383  42.147  21.805  1.00  0.00     0.210 HD
ENDBRANCH  38  41
ENDBRANCH  15  16
ENDBRANCH  13  15
ENDBRANCH  12  13
ENDBRANCH  11  12
ENDBRANCH   4  11
TORSDOF 10
ENDMDL