MODEL 4
REMARK VINA RESULT: -9.333325285      1.347      2.398
REMARK  12 active torsions:
REMARK  status: ('A' for Active; 'I' for Inactive)
REMARK    1  A    between atoms: C2_2  and  C3_3
REMARK    2  A    between atoms: C2_2  and  C14_20
REMARK    3  A    between atoms: C7_8  and  C8_9
REMARK    4  A    between atoms: C7_8  and  C9_12
REMARK    5  A    between atoms: C8_9  and  O2_10
REMARK    6  A    between atoms: C9_12  and  O3_15
REMARK    7  A    between atoms: C16_22  and  C17_23
REMARK    8  A    between atoms: C21_28  and  N1_29
REMARK    9  A    between atoms: N1_29  and  N2_31
REMARK   10  A    between atoms: C22_36  and  O4_37
REMARK   11  A    between atoms: C22_36  and  C23_39
REMARK   12  A    between atoms: C24_40  and  C25_41
ROOT
HETATM    1  C14 UNL     1      36.184  44.728  19.143  1.00  0.00     0.132 C
HETATM    2  C15 UNL     1      36.802  45.297  17.933  1.00  0.00     0.044 C
HETATM    3  C16 UNL     1      35.855  45.956  16.973  1.00  0.00     0.058 C
HETATM    4  C21 UNL     1      34.677  45.019  16.824  1.00  0.00     0.176 C
HETATM    5  C22 UNL     1      34.048  44.925  18.175  1.00  0.00     0.204 C
HETATM    6  O5  UNL     1      34.847  44.644  19.219  1.00  0.00    -0.344 OA
ENDROOT
BRANCH   1   7
HETATM    7  C2  UNL     1      36.792  43.363  19.499  1.00  0.00     0.040 C
HETATM    8  C1  UNL     1      35.746  42.595  20.322  1.00  0.00     0.015 C
BRANCH   7   9
HETATM    9  C3  UNL     1      37.993  43.481  20.384  1.00  0.00     0.128 C
HETATM   10  C4  UNL     1      38.975  44.394  19.697  1.00  0.00     0.043 C
HETATM   11  C5  UNL     1      39.330  45.407  20.725  1.00  0.00     0.058 C
HETATM   12  C6  UNL     1      38.419  45.103  21.870  1.00  0.00     0.146 C
HETATM   13  C12 UNL     1      40.508  45.053  21.613  1.00  0.00     0.121 C
HETATM   14  O1  UNL     1      37.785  43.923  21.648  1.00  0.00    -0.379 OA
HETATM   15  C7  UNL     1      39.589  45.133  22.790  1.00  0.00     0.074 C
HETATM   16  C13 UNL     1      41.572  46.149  21.553  1.00  0.00     0.053 C
HETATM   17  F1  UNL     1      40.972  43.805  21.289  1.00  0.00    -0.242 F
BRANCH  15  18
HETATM   18  C8  UNL     1      39.728  46.491  23.461  1.00  0.00     0.182 C
BRANCH  18  19
HETATM   19  O2  UNL     1      38.502  46.923  23.994  1.00  0.00    -0.400 OA
ATOM     20  H2  UNL     1      37.781  46.719  23.410  1.00  0.00     0.209 HD
ENDBRANCH  18  19
ENDBRANCH  15  18
BRANCH  15  21
HETATM   21  C9  UNL     1      39.695  44.002  23.778  1.00  0.00     0.066 C
HETATM   22  C10 UNL     1      40.939  44.180  24.622  1.00  0.00     0.046 C
HETATM   23  C11 UNL     1      38.509  44.054  24.718  1.00  0.00     0.046 C
BRANCH  21  24
HETATM   24  O3  UNL     1      39.763  42.780  23.115  1.00  0.00    -0.390 OA
ATOM     25  H3  UNL     1      40.379  42.201  23.548  1.00  0.00     0.210 HD
ENDBRANCH  21  24
ENDBRANCH  15  21
ENDBRANCH   7   9
ENDBRANCH   1   7
BRANCH   3  26
HETATM   26  C17 UNL     1      36.475  46.102  15.607  1.00  0.00    -0.011 A
HETATM   27  C18 UNL     1      36.685  45.123  14.672  1.00  0.00     0.015 A
HETATM   28  C19 UNL     1      37.256  45.483  13.515  1.00  0.00     0.008 A
HETATM   29  C20 UNL     1      37.583  46.805  13.362  1.00  0.00     0.050 A
HETATM   30  S1  UNL     1      37.083  47.495  14.838  1.00  0.00    -0.106 SA
ENDBRANCH   3  26
BRANCH   5  31
HETATM   31  O4  UNL     1      33.451  46.188  18.421  1.00  0.00    -0.360 OA
ATOM     32  H4  UNL     1      33.103  46.482  17.588  1.00  0.00     0.213 HD
ENDBRANCH   5  31
BRANCH   5  33
HETATM   33  C23 UNL     1      32.888  43.983  18.039  1.00  0.00     0.044 C
HETATM   34  C24 UNL     1      32.997  42.693  18.137  1.00  0.00     0.013 C
BRANCH  34  35
HETATM   35  C25 UNL     1      31.859  41.812  18.000  1.00  0.00    -0.036 A
HETATM   36  C26 UNL     1      31.792  40.529  18.497  1.00  0.00     0.011 A
HETATM   37  C27 UNL     1      30.706  39.702  18.361  1.00  0.00     0.001 A
HETATM   38  C28 UNL     1      29.607  40.170  17.690  1.00  0.00     0.000 A
HETATM   39  C29 UNL     1      29.643  41.461  17.177  1.00  0.00     0.001 A
HETATM   40  C30 UNL     1      30.724  42.269  17.318  1.00  0.00     0.011 A
ENDBRANCH  34  35
ENDBRANCH   5  33
BRANCH   4  41
HETATM   41  N1  UNL     1      33.693  45.525  15.892  1.00  0.00    -0.311 N
ATOM     42  H1  UNL     1      33.960  45.860  14.966  1.00  0.00     0.182 HD
BRANCH  41  43
HETATM   43  N2  UNL     1      32.509  45.533  16.268  1.00  0.00    -0.253 N
HETATM   44  N3  UNL     1      31.308  45.794  16.207  1.00  0.00    -0.331 N
ATOM     45  H32 UNL     1      31.298  46.301  15.322  1.00  0.00     0.178 HD
ATOM     46  H31 UNL     1      30.336  45.800  16.517  1.00  0.00     0.178 HD
ATOM     47  H2  UNL     1      32.566  45.019  17.148  1.00  0.00     0.207 HD
ENDBRANCH  41  43
ENDBRANCH   4  41
TORSDOF 12
ENDMDL