MODEL 1
REMARK VINA RESULT: -10.567897148      0.000      0.000
REMARK  11 active torsions:
REMARK  status: ('A' for Active; 'I' for Inactive)
REMARK    1  A    between atoms: C7_7  and  O1_8
REMARK    2  A    between atoms: C11_13  and  O2_14
REMARK    3  A    between atoms: C19_23  and  O3_24
REMARK    4  A    between atoms: O3_24  and  C20_25
REMARK    5  A    between atoms: C20_25  and  C21_27
REMARK    6  A    between atoms: C21_27  and  C22_28
REMARK    7  A    between atoms: C22_28  and  C23_29
REMARK    8  A    between atoms: C23_29  and  C24_30
REMARK    9  A    between atoms: C24_30  and  C25_31
REMARK   10  A    between atoms: C25_31  and  O6_33
REMARK   11  A    between atoms: O6_33  and  C26_34
ROOT
HETATM    1  C1  UNL     1      35.268  44.770  18.621  1.00  0.00     0.015 C
HETATM    2  C2  UNL     1      34.589  45.002  17.307  1.00  0.00    -0.038 C
HETATM    3  C3  UNL     1      33.227  45.561  17.560  1.00  0.00     0.010 C
HETATM    4  C4  UNL     1      32.080  45.013  16.840  1.00  0.00     0.007 C
HETATM    5  C5  UNL     1      32.133  43.622  16.319  1.00  0.00     0.001 C
HETATM    6  C6  UNL     1      33.417  42.880  16.507  1.00  0.00     0.024 C
HETATM    7  C7  UNL     1      33.432  41.926  17.632  1.00  0.00     0.123 C
HETATM    8  C8  UNL     1      32.378  42.201  18.715  1.00  0.00     0.037 C
HETATM    9  C9  UNL     1      31.015  42.192  18.083  1.00  0.00    -0.001 C
HETATM   10  C10 UNL     1      30.475  40.795  18.214  1.00  0.00     0.037 C
HETATM   11  C11 UNL     1      29.353  40.462  17.310  1.00  0.00     0.118 C
HETATM   12  C12 UNL     1      29.556  40.842  15.885  1.00  0.00     0.032 C
HETATM   13  C13 UNL     1      30.732  41.719  15.634  1.00  0.00     0.012 C
HETATM   14  C14 UNL     1      30.929  42.772  16.729  1.00  0.00    -0.036 C
HETATM   15  C15 UNL     1      29.709  43.696  16.599  1.00  0.00     0.016 C
HETATM   16  C16 UNL     1      34.546  43.854  16.378  1.00  0.00     0.001 C
HETATM   17  C17 UNL     1      35.889  43.213  16.136  1.00  0.00     0.008 C
HETATM   18  C18 UNL     1      36.737  44.260  15.396  1.00  0.00     0.033 C
HETATM   19  C19 UNL     1      36.842  45.444  16.330  1.00  0.00     0.132 C
HETATM   20  C32 UNL     1      35.472  46.057  16.597  1.00  0.00     0.042 C
ENDROOT
BRANCH  19  21
HETATM   21  O3  UNL     1      37.715  46.445  15.859  1.00  0.00    -0.316 OA
BRANCH  21  22
HETATM   22  C20 UNL     1      38.797  46.919  16.625  1.00  0.00     0.259 C
HETATM   23  O4  UNL     1      39.319  47.968  16.182  1.00  0.00    -0.265 OA
BRANCH  22  24
HETATM   24  C21 UNL     1      39.273  46.250  17.830  1.00  0.00     0.111 C
BRANCH  24  25
HETATM   25  C22 UNL     1      40.670  46.655  18.221  1.00  0.00     0.010 C
BRANCH  25  26
HETATM   26  C23 UNL     1      41.438  45.654  19.005  1.00  0.00     0.010 C
BRANCH  26  27
HETATM   27  C24 UNL     1      41.691  46.061  20.442  1.00  0.00     0.111 C
BRANCH  27  28
HETATM   28  C25 UNL     1      41.306  44.979  21.386  1.00  0.00     0.264 C
HETATM   29  O5  UNL     1      42.000  43.947  21.513  1.00  0.00    -0.265 OA
BRANCH  28  30
HETATM   30  O6  UNL     1      40.152  45.073  22.169  1.00  0.00    -0.277 OA
BRANCH  30  31
HETATM   31  C26 UNL     1      39.067  44.247  21.934  1.00  0.00     0.101 A
HETATM   32  C27 UNL     1      38.314  44.387  20.788  1.00  0.00     0.041 A
HETATM   33  C28 UNL     1      37.220  43.568  20.529  1.00  0.00     0.029 A
HETATM   34  C29 UNL     1      36.886  42.586  21.456  1.00  0.00     0.048 A
HETATM   35  N1  UNL     1      35.772  41.753  21.193  1.00  0.00    -0.102 NA
HETATM   36  C30 UNL     1      37.632  42.436  22.608  1.00  0.00     0.053 A
HETATM   37  C31 UNL     1      38.724  43.270  22.842  1.00  0.00     0.069 A
HETATM   38 CL1  UNL     1      39.700  43.117  24.286  1.00  0.00    -0.081 Cl
ENDBRANCH  30  31
ENDBRANCH  28  30
ENDBRANCH  27  28
ENDBRANCH  26  27
ENDBRANCH  25  26
ENDBRANCH  24  25
ENDBRANCH  22  24
ENDBRANCH  21  22
ENDBRANCH  19  21
BRANCH   7  39
HETATM   39  O1  UNL     1      34.670  41.687  18.206  1.00  0.00    -0.395 OA
ATOM     40  H1  UNL     1      34.742  41.883  19.133  1.00  0.00     0.210 HD
ENDBRANCH   7  39
BRANCH  11  41
HETATM   41  O2  UNL     1      28.174  40.965  17.856  1.00  0.00    -0.396 OA
ATOM     42  H2  UNL     1      28.052  41.856  17.547  1.00  0.00     0.210 HD
ENDBRANCH  11  41
TORSDOF 11
ENDMDL