MODEL 1
REMARK VINA RESULT: -8.502194311      0.000      0.000
REMARK  10 active torsions:
REMARK  status: ('A' for Active; 'I' for Inactive)
REMARK    1  A    between atoms: C3_3  and  C4_4
REMARK    2  A    between atoms: C5_5  and  C6_6
REMARK    3  A    between atoms: C7_7  and  C8_8
REMARK    4  A    between atoms: C8_8  and  C10_10
REMARK    5  A    between atoms: C10_10  and  C11_11
REMARK    6  A    between atoms: C17_17  and  O1_18
REMARK    7  A    between atoms: O1_18  and  C18_19
REMARK    8  A    between atoms: C18_19  and  O2_22
REMARK    9  A    between atoms: C24_29  and  O4_30
REMARK   10  A    between atoms: C32_40  and  O6_41
ROOT
HETATM    1  C1  UNL     1      37.520  44.558  27.420  1.00  0.00     0.102 C
HETATM    2  C2  UNL     1      38.167  45.659  26.842  1.00  0.00    -0.160 C
HETATM    3  C3  UNL     1      38.741  46.636  26.329  1.00  0.00     0.050 C
ENDROOT
BRANCH   3   4
HETATM    4  C4  UNL     1      38.284  47.131  24.968  1.00  0.00     0.008 C
HETATM    5  C5  UNL     1      39.052  47.790  24.159  1.00  0.00     0.001 C
BRANCH   5   6
HETATM    6  C6  UNL     1      40.435  48.142  24.415  1.00  0.00     0.001 C
HETATM    7  C7  UNL     1      41.489  47.392  24.263  1.00  0.00     0.006 C
BRANCH   7   8
HETATM    8  C8  UNL     1      41.676  46.020  23.812  1.00  0.00    -0.065 C
HETATM    9  C9  UNL     1      42.425  45.154  24.811  1.00  0.00     0.048 C
BRANCH   8  10
HETATM   10  C10 UNL     1      41.869  45.723  22.399  1.00  0.00    -0.009 C
BRANCH  10  11
HETATM   11  C11 UNL     1      40.924  44.945  21.554  1.00  0.00     0.065 C
HETATM   12  C12 UNL     1      41.446  44.753  20.177  1.00  0.00    -0.009 C
HETATM   13  C13 UNL     1      40.598  44.969  18.967  1.00  0.00    -0.065 C
HETATM   14  C14 UNL     1      40.381  43.670  18.221  1.00  0.00     0.048 C
HETATM   15  C15 UNL     1      39.444  45.860  19.105  1.00  0.00     0.011 C
HETATM   16  C16 UNL     1      38.334  45.994  18.470  1.00  0.00     0.064 C
HETATM   17  C17 UNL     1      37.750  45.289  17.314  1.00  0.00     0.183 C
HETATM   18  O3  UNL     1      37.174  44.074  17.502  1.00  0.00    -0.319 OA
HETATM   19  C22 UNL     1      36.097  43.905  18.191  1.00  0.00     0.178 C
HETATM   20  C23 UNL     1      35.212  45.107  18.474  1.00  0.00     0.148 C
HETATM   21  C25 UNL     1      36.015  43.355  19.624  1.00  0.00    -0.009 C
HETATM   22  N1  UNL     1      34.030  44.377  18.957  1.00  0.00    -0.193 NA
HETATM   23 CL1  UNL     1      33.080  44.039  17.521  1.00  0.00    -0.019 Cl
HETATM   24  C24 UNL     1      34.523  43.097  19.476  1.00  0.00     0.240 C
HETATM   25  C26 UNL     1      36.931  43.210  20.506  1.00  0.00    -0.005 C
HETATM   26  C27 UNL     1      37.181  42.735  21.925  1.00  0.00     0.079 C
HETATM   27  C28 UNL     1      37.901  41.394  21.841  1.00  0.00     0.022 C
HETATM   28  C29 UNL     1      37.903  43.777  22.690  1.00  0.00     0.161 C
HETATM   29  O5  UNL     1      37.159  44.744  22.956  1.00  0.00    -0.292 OA
HETATM   30  C30 UNL     1      39.286  43.851  23.162  1.00  0.00    -0.008 C
HETATM   31  C31 UNL     1      39.492  43.147  24.487  1.00  0.00     0.050 C
HETATM   32  C32 UNL     1      40.372  43.656  22.152  1.00  0.00     0.161 C
BRANCH  17  33
HETATM   33  O1  UNL     1      37.058  46.129  16.467  1.00  0.00    -0.293 OA
BRANCH  33  34
HETATM   34  C18 UNL     1      37.529  46.330  15.227  1.00  0.00     0.164 C
HETATM   35  C19 UNL     1      36.855  45.373  14.276  1.00  0.00     0.079 C
HETATM   36  C20 UNL     1      39.003  46.235  15.020  1.00  0.00     0.079 C
BRANCH  34  37
HETATM   37  O2  UNL     1      37.159  47.610  14.806  1.00  0.00    -0.360 OA
HETATM   38  C21 UNL     1      37.125  47.735  13.432  1.00  0.00     0.205 C
ENDBRANCH  34  37
ENDBRANCH  33  34
ENDBRANCH  17  33
BRANCH  24  39
HETATM   39  O4  UNL     1      34.322  42.080  18.531  1.00  0.00    -0.376 OA
ATOM     40  H4  UNL     1      33.477  42.185  18.108  1.00  0.00     0.212 HD
ENDBRANCH  24  39
BRANCH  32  41
HETATM   41  O6  UNL     1      41.351  42.753  22.495  1.00  0.00    -0.390 OA
ATOM     42  H6  UNL     1      41.261  41.916  22.054  1.00  0.00     0.210 HD
ENDBRANCH  32  41
ENDBRANCH  10  11
ENDBRANCH   8  10
ENDBRANCH   7   8
ENDBRANCH   5   6
ENDBRANCH   3   4
TORSDOF 10
ENDMDL