MODEL 4
REMARK VINA RESULT: -10.221220050      2.091      3.413
REMARK  11 active torsions:
REMARK  status: ('A' for Active; 'I' for Inactive)
REMARK    1  A    between atoms: C14_15  and  C15_16
REMARK    2  A    between atoms: C15_16  and  C16_18
REMARK    3  A    between atoms: N1_19  and  N2_21
REMARK    4  A    between atoms: C17_23  and  C18_24
REMARK    5  A    between atoms: C20_26  and  O2_27
REMARK    6  A    between atoms: N3_29  and  C21_30
REMARK    7  A    between atoms: C21_30  and  C22_31
REMARK    8  A    between atoms: C22_31  and  C23_32
REMARK    9  A    between atoms: C23_32  and  O3_33
REMARK   10  A    between atoms: C23_32  and  C24_35
REMARK   11  A    between atoms: C30_41  and  O4_42
ROOT
HETATM    1  N2  UNL     1      35.749  43.512  18.783  1.00  0.00    -0.311 N
ATOM      2  H2  UNL     1      36.659  43.909  18.547  1.00  0.00     0.186 HD
HETATM    3  C17 UNL     1      34.803  43.667  17.936  1.00  0.00     0.123 C
ENDROOT
BRANCH   1   4
HETATM    4  N1  UNL     1      35.643  42.853  19.983  1.00  0.00    -0.309 N
HETATM    5  C16 UNL     1      36.358  42.982  21.023  1.00  0.00     0.157 C
ATOM      6  H1  UNL     1      34.887  42.171  20.047  1.00  0.00     0.186 HD
BRANCH   5   7
HETATM    7  C15 UNL     1      37.482  43.866  21.201  1.00  0.00     0.170 C
HETATM    8  O1  UNL     1      38.088  44.305  20.189  1.00  0.00    -0.291 OA
BRANCH   7   9
HETATM    9  C14 UNL     1      37.962  44.289  22.560  1.00  0.00     0.066 C
HETATM   10  C7  UNL     1      39.187  45.121  22.432  1.00  0.00    -0.001 C
HETATM   11  C6  UNL     1      39.066  46.331  23.283  1.00  0.00     0.010 C
HETATM   12  C8  UNL     1      40.464  44.346  22.635  1.00  0.00     0.026 C
HETATM   13  C5  UNL     1      39.398  46.122  24.744  1.00  0.00    -0.012 C
HETATM   14  C4  UNL     1      38.279  45.548  25.514  1.00  0.00     0.013 C
HETATM   15  C10 UNL     1      40.723  45.475  24.866  1.00  0.00     0.025 C
HETATM   16  C2  UNL     1      38.116  44.125  25.664  1.00  0.00    -0.044 C
HETATM   17  C1  UNL     1      38.607  43.694  27.062  1.00  0.00     0.015 C
HETATM   18  C3  UNL     1      36.610  43.790  25.712  1.00  0.00     0.015 C
HETATM   19  C12 UNL     1      38.710  43.163  24.709  1.00  0.00    -0.005 C
HETATM   20  C11 UNL     1      40.221  43.106  24.727  1.00  0.00     0.026 C
HETATM   21  C13 UNL     1      38.097  43.066  23.372  1.00  0.00     0.018 C
HETATM   22  C9  UNL     1      40.896  44.226  24.048  1.00  0.00     0.019 C
HETATM   23 BR1  UNL     1      42.811  43.831  24.037  1.00  0.00    -0.086 Br
ENDBRANCH   7   9
ENDBRANCH   5   7
ENDBRANCH   1   4
BRANCH   3  24
HETATM   24  C18 UNL     1      35.056  44.383  16.708  1.00  0.00     0.036 A
HETATM   25  C19 UNL     1      34.191  45.128  15.963  1.00  0.00     0.073 A
HETATM   26  C20 UNL     1      34.885  45.624  14.869  1.00  0.00     0.144 A
HETATM   27  N3  UNL     1      36.136  45.206  14.928  1.00  0.00    -0.308 N
HETATM   28  C30 UNL     1      36.261  44.438  16.055  1.00  0.00     0.156 A
BRANCH  26  29
HETATM   29  O2  UNL     1      34.307  46.428  13.893  1.00  0.00    -0.346 OA
ATOM     30  H2  UNL     1      33.740  46.095  13.207  1.00  0.00     0.219 HD
ENDBRANCH  26  29
BRANCH  27  31
HETATM   31  C21 UNL     1      37.259  45.438  14.071  1.00  0.00     0.136 C
BRANCH  31  32
HETATM   32  C22 UNL     1      37.786  46.831  14.051  1.00  0.00     0.057 C
BRANCH  32  33
HETATM   33  C23 UNL     1      37.593  47.552  15.331  1.00  0.00     0.152 C
BRANCH  33  34
HETATM   34  O3  UNL     1      37.331  48.906  15.095  1.00  0.00    -0.391 OA
ATOM     35  H3  UNL     1      37.765  49.446  15.746  1.00  0.00     0.210 HD
ENDBRANCH  33  34
BRANCH  33  36
HETATM   36  C24 UNL     1      38.815  47.486  16.174  1.00  0.00    -0.030 A
HETATM   37  C25 UNL     1      38.862  46.581  17.211  1.00  0.00     0.010 A
HETATM   38  C26 UNL     1      39.996  46.500  18.014  1.00  0.00     0.001 A
HETATM   39  C27 UNL     1      41.086  47.310  17.799  1.00  0.00     0.000 A
HETATM   40  C28 UNL     1      41.038  48.213  16.764  1.00  0.00     0.001 A
HETATM   41  C29 UNL     1      39.898  48.289  15.963  1.00  0.00     0.010 A
ENDBRANCH  33  36
ENDBRANCH  32  33
ENDBRANCH  31  32
ENDBRANCH  27  31
BRANCH  28  42
HETATM   42  O4  UNL     1      37.411  43.808  16.490  1.00  0.00    -0.345 OA
ATOM     43  H4  UNL     1      37.865  44.022  17.296  1.00  0.00     0.219 HD
ENDBRANCH  28  42
ENDBRANCH   3  24
TORSDOF 11
ENDMDL