MODEL 5
REMARK VINA RESULT: -11.688663041      2.530      3.927
REMARK  8 active torsions:
REMARK  status: ('A' for Active; 'I' for Inactive)
REMARK    1  A    between atoms: O1_2  and  C2_3
REMARK    2  A    between atoms: C4_5  and  C5_6
REMARK    3  A    between atoms: C5_6  and  N1_7
REMARK    4  A    between atoms: C8_10  and  N2_11
REMARK    5  A    between atoms: C15_19  and  O3_20
REMARK    6  A    between atoms: C16_22  and  C17_23
REMARK    7  A    between atoms: C17_23  and  C18_24
REMARK    8  A    between atoms: C31_43  and  O4_44
ROOT
HETATM    1  N2  UNL     1      33.503  43.697  17.877  1.00  0.00     0.110 N
HETATM    2  C9  UNL     1      33.809  45.050  17.368  1.00  0.00     0.281 C
HETATM    3  C10 UNL     1      35.216  45.127  16.896  1.00  0.00     0.098 C
HETATM    4  C11 UNL     1      36.210  44.902  18.018  1.00  0.00     0.084 A
HETATM    5  O2  UNL     1      37.375  45.401  17.678  1.00  0.00    -0.311 OA
HETATM    6  C12 UNL     1      38.399  45.327  18.491  1.00  0.00     0.097 A
HETATM    7  C13 UNL     1      39.610  45.883  18.054  1.00  0.00     0.006 A
HETATM    8  C14 UNL     1      39.701  46.501  16.732  1.00  0.00     0.054 C
HETATM    9  C15 UNL     1      40.697  45.820  18.881  1.00  0.00     0.081 A
HETATM   10  C16 UNL     1      40.636  45.225  20.136  1.00  0.00    -0.017 A
HETATM   11  C21 UNL     1      39.428  44.657  20.600  1.00  0.00    -0.038 A
HETATM   12  C22 UNL     1      39.318  43.997  21.882  1.00  0.00     0.050 C
HETATM   13  C23 UNL     1      38.335  44.735  19.734  1.00  0.00     0.034 A
HETATM   14  C24 UNL     1      37.099  44.197  20.117  1.00  0.00     0.068 A
HETATM   15  N3  UNL     1      37.025  43.689  21.250  1.00  0.00    -0.396 N
ATOM     16  H31 UNL     1      36.126  43.297  21.528  1.00  0.00     0.156 HD
ATOM     17  H32 UNL     1      37.804  43.617  21.905  1.00  0.00     0.156 HD
HETATM   18  C25 UNL     1      36.044  44.293  19.231  1.00  0.00     0.087 A
HETATM   19  N4  UNL     1      34.894  43.646  19.788  1.00  0.00    -0.361 N
ATOM     20  H4  UNL     1      35.041  43.000  20.563  1.00  0.00     0.161 HD
HETATM   21  C26 UNL     1      33.513  43.851  19.314  1.00  0.00     0.396 C
ENDROOT
BRANCH   1  22
HETATM   22  C8  UNL     1      32.304  43.256  17.293  1.00  0.00     0.228 C
HETATM   23  C7  UNL     1      32.174  43.421  15.799  1.00  0.00     0.055 C
HETATM   24  C6  UNL     1      30.784  42.896  15.386  1.00  0.00     0.124 C
HETATM   25  N1  UNL     1      30.193  42.157  16.415  1.00  0.00    -0.389 N
HETATM   26  C28 UNL     1      29.934  42.866  17.635  1.00  0.00     0.124 C
HETATM   27  C27 UNL     1      31.056  43.848  17.944  1.00  0.00     0.055 C
BRANCH  25  28
HETATM   28  C5  UNL     1      29.895  40.809  16.346  1.00  0.00     0.097 C
BRANCH  28  29
HETATM   29  C4  UNL     1      29.232  40.108  17.449  1.00  0.00    -0.017 A
HETATM   30  C3  UNL     1      27.923  40.132  17.794  1.00  0.00     0.052 A
HETATM   31  C2  UNL     1      27.432  39.402  18.885  1.00  0.00     0.104 A
HETATM   32  C31 UNL     1      28.292  38.615  19.662  1.00  0.00     0.123 A
HETATM   33  C30 UNL     1      29.618  38.588  19.320  1.00  0.00     0.071 A
HETATM   34  C29 UNL     1      30.071  39.308  18.251  1.00  0.00     0.039 A
HETATM   35 CL1  UNL     1      30.690  37.593  20.315  1.00  0.00    -0.081 Cl
BRANCH  31  36
HETATM   36  O1  UNL     1      26.109  39.402  19.261  1.00  0.00    -0.353 OA
HETATM   37  C1  UNL     1      25.111  39.021  18.357  1.00  0.00     0.210 C
ENDBRANCH  31  36
BRANCH  32  38
HETATM   38  O4  UNL     1      27.793  37.897  20.737  1.00  0.00    -0.351 OA
HETATM   39  C32 UNL     1      27.323  36.576  20.454  1.00  0.00     0.210 C
ENDBRANCH  32  38
ENDBRANCH  28  29
ENDBRANCH  25  28
ENDBRANCH   1  22
BRANCH   9  40
HETATM   40  O3  UNL     1      41.874  46.362  18.428  1.00  0.00    -0.359 OA
ATOM     41  H3  UNL     1      42.309  45.927  17.704  1.00  0.00     0.217 HD
ENDBRANCH   9  40
BRANCH  10  42
HETATM   42  C17 UNL     1      41.807  45.227  20.982  1.00  0.00     0.046 C
BRANCH  42  43
HETATM   43  C18 UNL     1      42.193  46.440  21.727  1.00  0.00    -0.018 C
HETATM   44  C19 UNL     1      43.683  46.664  21.900  1.00  0.00     0.010 C
HETATM   45  C20 UNL     1      41.572  46.668  23.078  1.00  0.00     0.010 C
ENDBRANCH  42  43
ENDBRANCH  10  42
TORSDOF 8
ENDMDL