MODEL 1
REMARK VINA RESULT: -11.374799718      0.000      0.000
REMARK  10 active torsions:
REMARK  status: ('A' for Active; 'I' for Inactive)
REMARK    1  A    between atoms: O1_2  and  C2_3
REMARK    2  A    between atoms: C5_6  and  O2_7
REMARK    3  A    between atoms: C7_11  and  C8_12
REMARK    4  A    between atoms: C8_12  and  C9_13
REMARK    5  A    between atoms: C9_13  and  N2_14
REMARK       I    between atoms: N2_14  and  C10_16
REMARK    6  A    between atoms: C10_16  and  O4_18
REMARK    7  A    between atoms: O4_18  and  C11_19
REMARK    8  A    between atoms: C19_27  and  C20_28
REMARK    9  A    between atoms: C20_28  and  N3_30
REMARK   10  A    between atoms: C31_44  and  O5_45
ROOT
HETATM    1  C11 UNL     1      33.724  42.895  17.173  1.00  0.00     0.173 C
HETATM    2  C12 UNL     1      34.981  42.074  17.174  1.00  0.00     0.037 C
HETATM    3  C13 UNL     1      36.077  42.906  16.550  1.00  0.00     0.012 C
HETATM    4  C14 UNL     1      36.402  44.126  17.358  1.00  0.00    -0.033 C
HETATM    5  C15 UNL     1      36.846  43.647  18.729  1.00  0.00     0.016 C
HETATM    6  C16 UNL     1      37.608  44.786  16.733  1.00  0.00    -0.002 C
HETATM    7  C17 UNL     1      38.270  45.728  17.684  1.00  0.00     0.006 C
HETATM    8  C18 UNL     1      38.919  46.901  16.971  1.00  0.00     0.007 C
HETATM    9  C19 UNL     1      39.538  46.460  15.678  1.00  0.00     0.016 C
HETATM   10  C22 UNL     1      38.448  46.032  14.753  1.00  0.00     0.011 C
HETATM   11  C23 UNL     1      37.275  45.370  15.385  1.00  0.00    -0.009 C
HETATM   12  C24 UNL     1      36.063  46.227  15.386  1.00  0.00     0.005 C
HETATM   13  C25 UNL     1      35.319  46.290  16.673  1.00  0.00     0.009 C
HETATM   14  C26 UNL     1      35.181  44.984  17.421  1.00  0.00     0.036 C
HETATM   15  C27 UNL     1      33.886  44.362  17.089  1.00  0.00     0.130 C
HETATM   16  C28 UNL     1      32.829  44.967  18.035  1.00  0.00     0.055 C
HETATM   17  F1  UNL     1      33.497  44.863  15.831  1.00  0.00    -0.240 F
ENDROOT
BRANCH   1  18
HETATM   18  O4  UNL     1      32.788  42.460  18.140  1.00  0.00    -0.295 OA
BRANCH  18  19
HETATM   19  C10 UNL     1      31.881  41.464  17.980  1.00  0.00     0.364 C
HETATM   20  N2  UNL     1      30.576  41.679  17.386  1.00  0.00    -0.316 N
ATOM     21  H2  UNL     1      30.304  42.609  17.067  1.00  0.00     0.170 HD
HETATM   22  O3  UNL     1      32.162  40.327  18.349  1.00  0.00    -0.238 OA
BRANCH  20  23
HETATM   23  C9  UNL     1      29.688  40.599  17.255  1.00  0.00     0.072 C
BRANCH  23  24
HETATM   24  C8  UNL     1      28.334  40.825  16.713  1.00  0.00     0.102 C
BRANCH  24  25
HETATM   25  C7  UNL     1      27.462  41.661  17.556  1.00  0.00     0.029 A
HETATM   26  N1  UNL     1      27.123  42.967  17.244  1.00  0.00    -0.334 N
HETATM   27  C5  UNL     1      26.286  43.422  18.174  1.00  0.00     0.153 A
HETATM   28  C6  UNL     1      27.636  43.658  16.077  1.00  0.00     0.158 C
HETATM   29  C4  UNL     1      26.068  42.432  19.102  1.00  0.00     0.030 A
HETATM   30  C3  UNL     1      25.328  42.347  20.270  1.00  0.00     0.056 A
HETATM   31  C29 UNL     1      26.810  41.309  18.719  1.00  0.00     0.004 A
HETATM   32  C2  UNL     1      25.318  41.205  21.036  1.00  0.00     0.102 A
HETATM   33  C31 UNL     1      26.048  40.098  20.666  1.00  0.00     0.102 A
HETATM   34  C30 UNL     1      26.783  40.164  19.513  1.00  0.00     0.054 A
BRANCH  27  35
HETATM   35  O2  UNL     1      25.703  44.684  18.239  1.00  0.00    -0.345 OA
ATOM     36  H2  UNL     1      25.783  45.263  18.988  1.00  0.00     0.219 HD
ENDBRANCH  27  35
BRANCH  32  37
HETATM   37  O1  UNL     1      24.570  41.187  22.177  1.00  0.00    -0.353 OA
HETATM   38  C1  UNL     1      23.770  42.208  22.687  1.00  0.00     0.210 C
ENDBRANCH  32  37
BRANCH  33  39
HETATM   39  O5  UNL     1      26.038  38.927  21.451  1.00  0.00    -0.353 OA
HETATM   40  C32 UNL     1      26.705  37.784  20.942  1.00  0.00     0.210 C
ENDBRANCH  33  39
ENDBRANCH  24  25
ENDBRANCH  23  24
ENDBRANCH  20  23
ENDBRANCH  18  19
ENDBRANCH   1  18
BRANCH   9  41
HETATM   41  C20 UNL     1      40.210  47.692  15.071  1.00  0.00     0.183 C
HETATM   42  C21 UNL     1      40.894  48.534  16.098  1.00  0.00     0.040 C
BRANCH  41  43
HETATM   43  N3  UNL     1      39.279  48.464  14.287  1.00  0.00    -0.075 N
ATOM     44  H33 UNL     1      38.796  47.884  13.601  1.00  0.00     0.274 HD
ATOM     45  H32 UNL     1      38.473  48.754  14.842  1.00  0.00     0.274 HD
ATOM     46  H31 UNL     1      39.736  49.262  13.848  1.00  0.00     0.274 HD
ENDBRANCH  41  43
ENDBRANCH   9  41
TORSDOF 10
ENDMDL