MODEL 3
REMARK VINA RESULT: -10.713731741      2.979      9.556
REMARK  8 active torsions:
REMARK  status: ('A' for Active; 'I' for Inactive)
REMARK    1  A    between atoms: C3_5  and  N2_6
REMARK    2  A    between atoms: C6_9  and  C7_10
REMARK    3  A    between atoms: C7_10  and  C8_11
REMARK    4  A    between atoms: C7_10  and  C11_17
REMARK    5  A    between atoms: C11_17  and  N4_18
REMARK       I    between atoms: N4_18  and  C12_20
REMARK    6  A    between atoms: C12_20  and  O2_22
REMARK    7  A    between atoms: O2_22  and  C13_23
REMARK    8  A    between atoms: C29_41  and  N5_42
ROOT
HETATM    1  C7  UNL     1      37.386  45.061  16.278  1.00  0.00     0.007 C
ENDROOT
BRANCH   1   2
HETATM    2  C6  UNL     1      36.209  44.738  17.151  1.00  0.00     0.034 C
HETATM    3  C5  UNL     1      35.806  43.299  16.802  1.00  0.00     0.030 C
HETATM    4  C4  UNL     1      34.491  43.139  16.152  1.00  0.00     0.134 C
HETATM    5  N2  UNL     1      33.424  43.845  16.849  1.00  0.00    -0.301 N
HETATM    6  C27 UNL     1      33.853  44.940  17.634  1.00  0.00     0.226 C
HETATM    7  C26 UNL     1      35.082  45.659  17.212  1.00  0.00     0.113 C
HETATM    8  O3  UNL     1      33.159  45.231  18.645  1.00  0.00    -0.273 OA
BRANCH   5   9
HETATM    9  C3  UNL     1      32.073  43.435  16.726  1.00  0.00     0.154 A
HETATM   10  N1  UNL     1      31.671  42.232  17.184  1.00  0.00    -0.330 N
HETATM   11  C2  UNL     1      30.407  41.804  17.092  1.00  0.00     0.080 A
ATOM     12  H1  UNL     1      32.361  41.621  17.621  1.00  0.00     0.168 HD
HETATM   13  C1  UNL     1      29.987  40.470  17.601  1.00  0.00     0.089 C
HETATM   14  N6  UNL     1      29.461  42.572  16.525  1.00  0.00    -0.330 N
HETATM   15  C29 UNL     1      29.811  43.770  16.058  1.00  0.00     0.143 A
ATOM     16  H6  UNL     1      28.497  42.245  16.453  1.00  0.00     0.168 HD
HETATM   17  C28 UNL     1      31.123  44.236  16.145  1.00  0.00     0.203 A
HETATM   18  F1  UNL     1      31.409  45.466  15.649  1.00  0.00    -0.198 F
BRANCH  15  19
HETATM   19  N5  UNL     1      28.938  44.557  15.500  1.00  0.00    -0.383 N
ATOM     20  H52 UNL     1      29.211  45.465  15.123  1.00  0.00     0.157 HD
ATOM     21  H51 UNL     1      27.974  44.226  15.457  1.00  0.00     0.157 HD
ENDBRANCH  15  19
ENDBRANCH   5   9
ENDBRANCH   1   2
BRANCH   1  22
HETATM   22  C8  UNL     1      36.968  45.705  14.988  1.00  0.00     0.082 A
HETATM   23  N3  UNL     1      36.512  46.922  14.798  1.00  0.00    -0.359 N
HETATM   24  C9  UNL     1      36.185  47.364  13.632  1.00  0.00     0.096 A
ATOM     25  H3  UNL     1      36.413  47.541  15.603  1.00  0.00     0.166 HD
HETATM   26  C10 UNL     1      36.335  46.500  12.569  1.00  0.00     0.069 A
HETATM   27  S1  UNL     1      36.938  45.124  13.380  1.00  0.00    -0.082 SA
ENDBRANCH   1  22
BRANCH   1  28
HETATM   28  C11 UNL     1      38.681  45.376  16.838  1.00  0.00     0.048 C
HETATM   29  C20 UNL     1      39.654  46.375  16.455  1.00  0.00    -0.052 C
HETATM   30  C21 UNL     1      40.252  46.327  15.077  1.00  0.00     0.036 C
HETATM   31  C25 UNL     1      39.495  47.802  16.931  1.00  0.00     0.036 C
HETATM   32  C22 UNL     1      39.908  47.633  14.341  1.00  0.00     0.004 C
HETATM   33  C23 UNL     1      40.675  48.750  15.022  1.00  0.00     0.001 C
HETATM   34  C24 UNL     1      40.825  48.481  16.510  1.00  0.00     0.004 C
BRANCH  28  35
HETATM   35  N4  UNL     1      38.578  45.356  18.313  1.00  0.00    -0.302 N
HETATM   36  C12 UNL     1      39.544  44.785  19.166  1.00  0.00     0.365 C
HETATM   37  O1  UNL     1      40.599  44.233  18.754  1.00  0.00    -0.238 OA
ATOM     38  H4  UNL     1      37.756  45.781  18.740  1.00  0.00     0.171 HD
BRANCH  36  39
HETATM   39  O2  UNL     1      39.336  44.828  20.534  1.00  0.00    -0.298 OA
BRANCH  39  40
HETATM   40  C13 UNL     1      40.380  44.745  21.485  1.00  0.00     0.133 C
HETATM   41  C14 UNL     1      41.268  45.927  21.274  1.00  0.00     0.032 C
HETATM   42  C15 UNL     1      42.404  45.981  22.279  1.00  0.00     0.002 C
HETATM   43  C16 UNL     1      41.915  46.104  23.685  1.00  0.00     0.000 C
HETATM   44  C17 UNL     1      40.624  46.879  23.746  1.00  0.00     0.000 C
HETATM   45  C18 UNL     1      39.421  46.055  23.418  1.00  0.00     0.002 C
HETATM   46  C19 UNL     1      39.718  44.716  22.840  1.00  0.00     0.032 C
ENDBRANCH  39  40
ENDBRANCH  36  39
ENDBRANCH  28  35
ENDBRANCH   1  28
TORSDOF 8
ENDMDL