MODEL 2
REMARK VINA RESULT: -10.352672828      2.601      9.395
REMARK  9 active torsions:
REMARK  status: ('A' for Active; 'I' for Inactive)
REMARK    1  A    between atoms: C2_2  and  O1_3
REMARK    2  A    between atoms: O1_3  and  C3_4
REMARK       I    between atoms: C3_4  and  N1_6
REMARK    3  A    between atoms: N1_6  and  C4_8
REMARK    4  A    between atoms: C6_10  and  C7_11
REMARK    5  A    between atoms: C23_32  and  O5_33
REMARK    6  A    between atoms: O5_33  and  C24_34
REMARK    7  A    between atoms: C24_34  and  C25_35
REMARK    8  A    between atoms: C25_35  and  O6_36
REMARK    9  A    between atoms: C25_35  and  C26_38
ROOT
HETATM    1  C4  UNL     1      31.267  40.944  17.958  1.00  0.00     0.072 A
HETATM    2  C5  UNL     1      32.601  41.149  18.131  1.00  0.00     0.042 A
HETATM    3  C6  UNL     1      33.290  42.276  17.651  1.00  0.00    -0.028 A
HETATM    4  C21 UNL     1      32.567  43.212  16.971  1.00  0.00     0.031 A
HETATM    5  C22 UNL     1      31.215  43.066  16.760  1.00  0.00     0.047 A
HETATM    6 BR1  UNL     1      30.237  44.409  15.798  1.00  0.00    -0.048 Br
HETATM    7  C23 UNL     1      30.588  41.942  17.252  1.00  0.00     0.113 A
ENDROOT
BRANCH   3   8
HETATM    8  C7  UNL     1      34.756  42.403  17.898  1.00  0.00     0.144 C
HETATM    9  N2  UNL     1      34.955  42.354  19.308  1.00  0.00    -0.405 N
HETATM   10  C8  UNL     1      35.337  43.563  19.952  1.00  0.00     0.077 C
ATOM     11  H2  UNL     1      34.827  41.489  19.833  1.00  0.00     0.154 HD
HETATM   12  C9  UNL     1      36.848  43.619  20.049  1.00  0.00     0.032 C
HETATM   13  C10 UNL     1      34.777  44.812  19.309  1.00  0.00     0.063 C
HETATM   14  C11 UNL     1      35.307  44.836  17.922  1.00  0.00    -0.047 A
HETATM   15  C12 UNL     1      35.796  45.980  17.329  1.00  0.00     0.018 A
HETATM   16  C16 UNL     1      35.281  43.621  17.255  1.00  0.00    -0.022 A
HETATM   17  C13 UNL     1      36.279  45.960  16.047  1.00  0.00    -0.018 A
HETATM   18  C14 UNL     1      36.256  44.755  15.377  1.00  0.00     0.113 A
HETATM   19  C20 UNL     1      36.811  47.138  15.361  1.00  0.00     0.082 C
HETATM   20  C15 UNL     1      35.767  43.587  15.956  1.00  0.00     0.050 A
HETATM   21  O3  UNL     1      36.760  44.791  14.073  1.00  0.00    -0.196 OA
HETATM   22  O4  UNL     1      37.771  45.572  13.773  1.00  0.00    -0.224 OA
HETATM   23  C17 UNL     1      37.783  46.831  14.281  1.00  0.00     0.093 C
HETATM   24  C18 UNL     1      37.628  47.905  13.199  1.00  0.00     0.049 C
HETATM   25  C19 UNL     1      39.187  47.064  14.865  1.00  0.00     0.049 C
ENDBRANCH   3   8
BRANCH   1  26
HETATM   26  N1  UNL     1      30.541  39.842  18.433  1.00  0.00    -0.300 N
HETATM   27  C3  UNL     1      30.990  38.567  18.756  1.00  0.00     0.365 C
HETATM   28  O2  UNL     1      32.180  38.220  18.656  1.00  0.00    -0.238 OA
ATOM     29  H1  UNL     1      29.542  39.999  18.559  1.00  0.00     0.171 HD
BRANCH  27  30
HETATM   30  O1  UNL     1      30.130  37.556  19.227  1.00  0.00    -0.304 OA
BRANCH  30  31
HETATM   31  C2  UNL     1      29.573  37.604  20.527  1.00  0.00     0.176 C
HETATM   32  C1  UNL     1      30.554  37.264  21.599  1.00  0.00     0.034 C
ENDBRANCH  30  31
ENDBRANCH  27  30
ENDBRANCH   1  26
BRANCH   7  33
HETATM   33  O5  UNL     1      29.234  41.822  17.023  1.00  0.00    -0.345 OA
BRANCH  33  34
HETATM   34  C24 UNL     1      28.778  41.109  15.883  1.00  0.00     0.207 C
BRANCH  34  35
HETATM   35  C25 UNL     1      27.286  41.063  15.772  1.00  0.00     0.145 C
BRANCH  35  36
HETATM   36  O6  UNL     1      26.857  40.446  14.598  1.00  0.00    -0.393 OA
ATOM     37  H6  UNL     1      27.091  40.939  13.820  1.00  0.00     0.210 HD
ENDBRANCH  35  36
BRANCH  35  38
HETATM   38  C26 UNL     1      26.603  42.391  15.902  1.00  0.00     0.008 C
HETATM   39  C27 UNL     1      25.933  42.613  17.217  1.00  0.00     0.012 C
HETATM   40  C28 UNL     1      25.617  42.494  14.742  1.00  0.00     0.012 C
ENDBRANCH  35  38
ENDBRANCH  34  35
ENDBRANCH  33  34
ENDBRANCH   7  33
TORSDOF 9
ENDMDL