MODEL 5
REMARK VINA RESULT: -9.656872147      1.426      2.417
REMARK  12 active torsions:
REMARK  status: ('A' for Active; 'I' for Inactive)
REMARK    1  A    between atoms: C2_2  and  C3_3
REMARK    2  A    between atoms: C3_3  and  O1_4
REMARK    3  A    between atoms: O1_4  and  C4_5
REMARK    4  A    between atoms: C4_5  and  C5_7
REMARK    5  A    between atoms: C5_7  and  O3_8
REMARK    6  A    between atoms: C5_7  and  C6_10
REMARK    7  A    between atoms: C17_22  and  C19_24
REMARK    8  A    between atoms: C19_24  and  C20_25
REMARK    9  A    between atoms: C22_27  and  C23_28
REMARK   10  A    between atoms: C23_28  and  O5_30
REMARK   11  A    between atoms: O5_30  and  C24_31
REMARK   12  A    between atoms: C28_39  and  O6_40
ROOT
HETATM    1  C6  UNL     1      37.748  45.480  15.294  1.00  0.00     0.018 C
HETATM    2  C7  UNL     1      37.286  45.075  16.478  1.00  0.00    -0.069 C
HETATM    3  C8  UNL     1      38.004  45.445  17.684  1.00  0.00     0.035 C
HETATM    4  C9  UNL     1      37.695  44.730  18.942  1.00  0.00     0.008 C
HETATM    5  C10 UNL     1      36.442  43.905  18.931  1.00  0.00     0.046 C
HETATM    6  C11 UNL     1      35.463  44.437  17.906  1.00  0.00     0.122 C
HETATM    7  F1  UNL     1      35.495  45.837  18.109  1.00  0.00    -0.241 F
HETATM    8  C12 UNL     1      36.050  44.243  16.556  1.00  0.00     0.016 C
HETATM    9  C13 UNL     1      36.557  42.846  16.258  1.00  0.00     0.023 C
HETATM   10  C14 UNL     1      35.134  44.758  15.451  1.00  0.00     0.017 C
HETATM   11  C15 UNL     1      33.686  44.879  15.912  1.00  0.00     0.007 C
HETATM   12  C16 UNL     1      33.403  43.744  16.825  1.00  0.00     0.008 C
HETATM   13  C17 UNL     1      31.959  43.290  16.796  1.00  0.00    -0.008 C
HETATM   14  C18 UNL     1      31.753  42.680  15.421  1.00  0.00     0.018 C
HETATM   15  C28 UNL     1      31.697  42.235  17.810  1.00  0.00     0.127 C
HETATM   16  C29 UNL     1      32.541  42.245  19.052  1.00  0.00     0.033 C
HETATM   17  C30 UNL     1      33.951  42.679  18.909  1.00  0.00     0.015 C
HETATM   18  C31 UNL     1      34.052  43.966  18.121  1.00  0.00    -0.002 C
HETATM   19  C32 UNL     1      33.412  45.013  19.019  1.00  0.00     0.019 C
ENDROOT
BRANCH  13  20
HETATM   20  C19 UNL     1      31.013  44.452  16.844  1.00  0.00     0.070 C
BRANCH  20  21
HETATM   21  C20 UNL     1      29.629  44.207  16.455  1.00  0.00     0.029 A
HETATM   22  C21 UNL     1      28.710  43.465  17.233  1.00  0.00     0.063 A
HETATM   23  C22 UNL     1      27.520  43.475  16.571  1.00  0.00     0.125 A
HETATM   24  N1  UNL     1      27.670  44.174  15.448  1.00  0.00    -0.295 N
HETATM   25  N2  UNL     1      28.933  44.604  15.393  1.00  0.00    -0.304 N
ATOM     26  H1  UNL     1      26.947  44.351  14.751  1.00  0.00     0.187 HD
ATOM     27  H2  UNL     1      29.316  45.167  14.634  1.00  0.00     0.186 HD
BRANCH  23  28
HETATM   28  C23 UNL     1      26.253  42.833  16.976  1.00  0.00     0.312 C
HETATM   29  O4  UNL     1      25.188  43.242  16.494  1.00  0.00    -0.258 OA
BRANCH  28  30
HETATM   30  O5  UNL     1      26.204  41.789  17.873  1.00  0.00    -0.306 OA
BRANCH  30  31
HETATM   31  C24 UNL     1      26.400  40.436  17.542  1.00  0.00     0.060 C
HETATM   32  C25 UNL     1      25.989  40.082  16.146  1.00  0.00     0.046 C
HETATM   33  C26 UNL     1      27.859  40.035  17.696  1.00  0.00     0.046 C
HETATM   34  C27 UNL     1      25.585  39.609  18.511  1.00  0.00     0.046 C
ENDBRANCH  30  31
ENDBRANCH  28  30
ENDBRANCH  23  28
ENDBRANCH  20  21
ENDBRANCH  13  20
BRANCH  15  35
HETATM   35  O6  UNL     1      31.807  40.943  17.284  1.00  0.00    -0.395 OA
ATOM     36  H6  UNL     1      32.695  40.607  17.321  1.00  0.00     0.210 HD
ENDBRANCH  15  35
BRANCH   1  37
HETATM   37  C5  UNL     1      38.959  46.296  15.084  1.00  0.00     0.240 C
BRANCH  37  38
HETATM   38  C4  UNL     1      38.673  47.717  14.804  1.00  0.00     0.291 C
HETATM   39  O2  UNL     1      38.875  48.613  15.687  1.00  0.00    -0.262 OA
BRANCH  38  40
HETATM   40  O1  UNL     1      38.171  48.076  13.548  1.00  0.00    -0.316 OA
BRANCH  40  41
HETATM   41  C3  UNL     1      36.764  48.284  13.446  1.00  0.00     0.205 C
BRANCH  41  42
HETATM   42  C2  UNL     1      36.076  47.187  12.736  1.00  0.00    -0.011 C
HETATM   43  C1  UNL     1      36.754  46.360  11.960  1.00  0.00     0.009 C
ENDBRANCH  41  42
ENDBRANCH  40  41
ENDBRANCH  38  40
ENDBRANCH  37  38
BRANCH  37  44
HETATM   44  O3  UNL     1      39.768  46.255  16.245  1.00  0.00    -0.382 OA
ATOM     45  H3  UNL     1      39.755  45.360  16.563  1.00  0.00     0.211 HD
ENDBRANCH  37  44
ENDBRANCH   1  37
TORSDOF 12
ENDMDL