MODEL 1
REMARK VINA RESULT: -6.688439736      0.000      0.000
REMARK  4 active torsions:
REMARK  status: ('A' for Active; 'I' for Inactive)
REMARK    1  A    between atoms: N1_2  and  S1_4
REMARK    2  A    between atoms: S1_4  and  N2_7
REMARK       I    between atoms: N2_7  and  C2_9
REMARK    3  A    between atoms: C2_9  and  C3_11
REMARK    4  A    between atoms: C5_16  and  N4_17
ROOT
HETATM    1  C3  UNL     1      44.495  49.189  12.196  1.00  0.00     0.251 C
HETATM    2  N3  UNL     1      45.741  48.473  12.100  1.00  0.00    -0.336 N
ATOM      3  H3  UNL     1      46.415  48.771  11.394  1.00  0.00     0.164 HD
HETATM    4  C4  UNL     1      46.082  47.372  12.938  1.00  0.00     0.260 C
HETATM    5  O4  UNL     1      47.218  46.802  12.784  1.00  0.00    -0.270 OA
HETATM    6  C5  UNL     1      45.168  46.864  13.983  1.00  0.00     0.346 C
HETATM    7  S2  UNL     1      44.739  48.203  15.158  1.00  0.00    -0.052 SA
HETATM    8  S3  UNL     1      44.361  49.894  13.884  1.00  0.00    -0.060 SA
ENDROOT
BRANCH   1   9
HETATM    9  C2  UNL     1      44.514  50.319  11.243  1.00  0.00     0.266 C
HETATM   10  N2  UNL     1      43.335  51.004  10.850  1.00  0.00    -0.235 N
ATOM     11  H2  UNL     1      42.437  50.711  11.235  1.00  0.00     0.183 HD
HETATM   12  O3  UNL     1      45.616  50.685  10.766  1.00  0.00    -0.269 OA
BRANCH  10  13
HETATM   13  S1  UNL     1      43.383  52.306   9.746  1.00  0.00     0.321 S
HETATM   14  O1  UNL     1      44.146  53.469  10.356  1.00  0.00    -0.182 OA
HETATM   15  O2  UNL     1      41.973  52.783   9.515  1.00  0.00    -0.182 OA
BRANCH  13  16
HETATM   16  N1  UNL     1      44.092  51.953   8.248  1.00  0.00    -0.307 N
HETATM   17  C1  UNL     1      43.356  52.342   7.100  1.00  0.00     0.161 C
ATOM     18  H1  UNL     1      44.996  51.488   8.177  1.00  0.00     0.173 HD
ENDBRANCH  13  16
ENDBRANCH  10  13
ENDBRANCH   1   9
BRANCH   6  19
HETATM   19  N4  UNL     1      43.935  46.429  13.354  1.00  0.00    -0.057 N
ATOM     20  H43 UNL     1      44.030  45.523  12.896  1.00  0.00     0.276 HD
ATOM     21  H42 UNL     1      43.221  46.170  14.035  1.00  0.00     0.276 HD
ATOM     22  H41 UNL     1      43.617  47.157  12.714  1.00  0.00     0.276 HD
ENDBRANCH   6  19
TORSDOF 4
ENDMDL