MODEL 3
REMARK VINA RESULT: -4.444642238      8.819     10.990
REMARK  6 active torsions:
REMARK  status: ('A' for Active; 'I' for Inactive)
REMARK    1  A    between atoms: N1_1  and  C1_5
REMARK    2  A    between atoms: C1_5  and  N2_6
REMARK    3  A    between atoms: C1_5  and  C2_10
REMARK    4  A    between atoms: C2_10  and  O1_11
REMARK    5  A    between atoms: C2_10  and  C3_13
REMARK    6  A    between atoms: C5_21  and  N4_22
ROOT
HETATM    1  C3  UNL     1      49.582  55.812   8.231  1.00  0.00     0.097 C
HETATM    2  C4  UNL     1      50.674  55.781   9.253  1.00  0.00     0.203 C
HETATM    3  O2  UNL     1      51.656  56.774   8.992  1.00  0.00    -0.259 OA
HETATM    4  S1  UNL     1      50.850  58.245   9.305  1.00  0.00     0.359 S
HETATM    5  O3  UNL     1      51.756  59.409   9.207  1.00  0.00    -0.176 OA
HETATM    6  O4  UNL     1      50.209  58.123  10.653  1.00  0.00    -0.176 OA
HETATM    7  N3  UNL     1      49.564  58.281   8.120  1.00  0.00    -0.264 N
ATOM      8  H3  UNL     1      48.876  59.018   7.973  1.00  0.00     0.176 HD
HETATM    9  C5  UNL     1      49.690  57.040   7.398  1.00  0.00     0.342 C
ENDROOT
BRANCH   1  10
HETATM   10  C2  UNL     1      48.229  55.518   8.759  1.00  0.00     0.185 C
BRANCH  10  11
HETATM   11  C1  UNL     1      48.083  54.109   9.271  1.00  0.00     0.406 C
BRANCH  11  12
HETATM   12  N1  UNL     1      46.749  53.660   9.477  1.00  0.00    -0.048 N
ATOM     13  H13 UNL     1      46.179  53.748   8.636  1.00  0.00     0.276 HD
ATOM     14  H12 UNL     1      46.696  52.647   9.584  1.00  0.00     0.276 HD
ATOM     15  H11 UNL     1      46.341  54.154  10.272  1.00  0.00     0.276 HD
ENDBRANCH  11  12
BRANCH  11  16
HETATM   16  N2  UNL     1      48.761  53.212   8.350  1.00  0.00    -0.048 N
ATOM     17  H23 UNL     1      48.343  53.227   7.419  1.00  0.00     0.276 HD
ATOM     18  H22 UNL     1      49.690  53.550   8.098  1.00  0.00     0.276 HD
ATOM     19  H21 UNL     1      48.787  52.272   8.745  1.00  0.00     0.276 HD
ENDBRANCH  11  16
ENDBRANCH  10  11
BRANCH  10  20
HETATM   20  O1  UNL     1      47.198  55.790   7.892  1.00  0.00    -0.391 OA
ATOM     21  H1  UNL     1      46.509  56.244   8.361  1.00  0.00     0.210 HD
ENDBRANCH  10  20
ENDBRANCH   1  10
BRANCH   9  22
HETATM   22  N4  UNL     1      48.913  57.009   6.169  1.00  0.00     0.122 N
HETATM   23  C6  UNL     1      49.719  56.488   5.150  1.00  0.00     0.286 C
HETATM   24  C7  UNL     1      49.193  56.837   3.789  1.00  0.00     0.106 C
HETATM   25  S2  UNL     1      48.735  58.593   4.090  1.00  0.00    -0.138 SA
HETATM   26  C8  UNL     1      48.537  58.367   5.902  1.00  0.00     0.349 C
ENDBRANCH   9  22
TORSDOF 6
ENDMDL