MODEL 5
REMARK VINA RESULT: -6.617432186      1.232      1.549
REMARK  7 active torsions:
REMARK  status: ('A' for Active; 'I' for Inactive)
REMARK    1  A    between atoms: C2_3  and  O1_4
REMARK    2  A    between atoms: C2_3  and  C3_6
REMARK    3  A    between atoms: C2_3  and  C11_21
REMARK       I    between atoms: C3_6  and  N2_8
REMARK    4  A    between atoms: N3_11  and  C6_12
REMARK    5  A    between atoms: C11_21  and  O3_22
REMARK    6  A    between atoms: C11_21  and  C12_24
REMARK    7  A    between atoms: C12_24  and  O4_25
ROOT
HETATM    1  N1  UNL     1      42.777  46.276  12.547  1.00  0.00    -0.193 NA
HETATM    2  C1  UNL     1      43.761  46.751  12.923  1.00  0.00     0.111 C
HETATM    3  C2  UNL     1      45.024  47.376  13.384  1.00  0.00     0.256 C
ENDROOT
BRANCH   3   4
HETATM    4  O1  UNL     1      46.029  47.121  12.492  1.00  0.00    -0.366 OA
ATOM      5  H1  UNL     1      46.848  47.483  12.809  1.00  0.00     0.212 HD
ENDBRANCH   3   4
BRANCH   3   6
HETATM    6  C3  UNL     1      44.717  48.810  13.593  1.00  0.00     0.272 C
HETATM    7  O2  UNL     1      44.257  49.081  14.756  1.00  0.00    -0.269 OA
HETATM    8  N2  UNL     1      44.901  49.817  12.629  1.00  0.00    -0.345 N
HETATM    9  C4  UNL     1      44.553  51.186  12.983  1.00  0.00     0.146 C
HETATM   10  C10 UNL     1      45.414  49.565  11.311  1.00  0.00     0.146 C
HETATM   11  C5  UNL     1      43.579  51.679  11.934  1.00  0.00     0.145 C
HETATM   12  N3  UNL     1      44.221  51.545  10.641  1.00  0.00    -0.350 N
HETATM   13  C9  UNL     1      45.493  50.859  10.497  1.00  0.00     0.145 C
BRANCH  12  14
HETATM   14  C6  UNL     1      43.572  52.109   9.493  1.00  0.00     0.173 C
HETATM   15  N4  UNL     1      42.299  52.239   9.377  1.00  0.00    -0.361 N
HETATM   16  C7  UNL     1      41.964  52.838   8.109  1.00  0.00     0.142 C
ATOM     17  H4  UNL     1      41.619  51.958  10.084  1.00  0.00     0.162 HD
HETATM   18  C8  UNL     1      43.230  52.667   7.306  1.00  0.00     0.142 C
HETATM   19  N5  UNL     1      44.232  52.588   8.341  1.00  0.00    -0.361 N
ATOM     20  H5  UNL     1      45.219  52.829   8.258  1.00  0.00     0.162 HD
ENDBRANCH  12  14
ENDBRANCH   3   6
BRANCH   3  21
HETATM   21  C11 UNL     1      45.370  46.687  14.687  1.00  0.00     0.200 C
BRANCH  21  22
HETATM   22  O3  UNL     1      45.217  45.313  14.482  1.00  0.00    -0.389 OA
ATOM     23  H3  UNL     1      45.725  45.085  13.713  1.00  0.00     0.210 HD
ENDBRANCH  21  22
BRANCH  21  24
HETATM   24  C12 UNL     1      46.794  46.944  15.103  1.00  0.00     0.200 C
BRANCH  24  25
HETATM   25  O4  UNL     1      46.765  47.745  16.235  1.00  0.00    -0.398 OA
ATOM     26  H4  UNL     1      46.612  48.639  15.952  1.00  0.00     0.209 HD
ENDBRANCH  24  25
ENDBRANCH  21  24
ENDBRANCH   3  21
TORSDOF 7
ENDMDL