MODEL 5
REMARK VINA RESULT: -7.205910401      0.997      1.308
REMARK  6 active torsions:
REMARK  status: ('A' for Active; 'I' for Inactive)
REMARK       I    between atoms: N1_2  and  C2_4
REMARK    1  A    between atoms: C2_4  and  O2_6
REMARK    2  A    between atoms: O2_6  and  C3_7
REMARK    3  A    between atoms: C4_8  and  N2_9
REMARK    4  A    between atoms: C5_14  and  N4_15
REMARK       I    between atoms: N4_15  and  C6_17
REMARK    5  A    between atoms: C6_17  and  C7_19
REMARK    6  A    between atoms: C7_19  and  O6_20
ROOT
HETATM    1  C3  UNL     1      44.133  51.915  11.709  1.00  0.00     0.199 A
HETATM    2  C4  UNL     1      45.115  51.077  11.237  1.00  0.00     0.228 A
HETATM    3  N3  UNL     1      45.482  50.074  12.082  1.00  0.00    -0.167 N
ATOM      4  H3  UNL     1      46.208  49.425  11.777  1.00  0.00     0.186 HD
HETATM    5  C5  UNL     1      44.938  49.895  13.295  1.00  0.00     0.689 A
HETATM    6  N5  UNL     1      43.975  50.713  13.769  1.00  0.00    -0.153 N
ATOM      7  H5  UNL     1      43.561  50.579  14.692  1.00  0.00     0.187 HD
HETATM    8  C8  UNL     1      43.586  51.723  12.950  1.00  0.00     0.297 A
HETATM    9  O7  UNL     1      42.691  52.496  13.368  1.00  0.00    -0.264 OA
ENDROOT
BRANCH   5  10
HETATM   10  N4  UNL     1      45.319  48.930  14.062  1.00  0.00    -0.158 N
HETATM   11  C6  UNL     1      44.366  48.058  14.607  1.00  0.00     0.259 C
HETATM   12  O5  UNL     1      43.565  48.375  15.527  1.00  0.00    -0.270 OA
ATOM     13  H4  UNL     1      46.309  48.802  14.270  1.00  0.00     0.187 HD
BRANCH  11  14
HETATM   14  C7  UNL     1      44.257  46.653  14.096  1.00  0.00     0.267 C
BRANCH  14  15
HETATM   15  O6  UNL     1      43.276  46.588  13.094  1.00  0.00    -0.392 OA
ATOM     16  H6  UNL     1      43.476  45.879  12.494  1.00  0.00     0.210 HD
ENDBRANCH  14  15
ENDBRANCH  11  14
ENDBRANCH   5  10
BRANCH   2  17
HETATM   17  N2  UNL     1      45.746  51.197   9.979  1.00  0.00    -0.094 N
HETATM   18  O3  UNL     1      45.485  50.408   9.063  1.00  0.00    -0.530 OA
HETATM   19  O4  UNL     1      46.650  52.188   9.764  1.00  0.00    -0.530 OA
ENDBRANCH   2  17
BRANCH   1  20
HETATM   20  O2  UNL     1      43.695  52.960  10.922  1.00  0.00    -0.252 OA
BRANCH  20  21
HETATM   21  C2  UNL     1      43.079  52.678   9.712  1.00  0.00     0.365 C
HETATM   22  N1  UNL     1      43.687  52.972   8.484  1.00  0.00    -0.341 N
HETATM   23  C1  UNL     1      43.019  52.666   7.236  1.00  0.00     0.151 C
ATOM     24  H1  UNL     1      44.610  53.407   8.468  1.00  0.00     0.164 HD
HETATM   25  O1  UNL     1      41.943  52.143   9.747  1.00  0.00    -0.238 OA
ENDBRANCH  20  21
ENDBRANCH   1  20
TORSDOF 6
ENDMDL