MODEL 2
REMARK VINA RESULT: -8.802433238      1.265      1.620
REMARK  5 active torsions:
REMARK  status: ('A' for Active; 'I' for Inactive)
REMARK    1  A    between atoms: C1_2  and  C2_3
REMARK       I    between atoms: C1_2  and  N5_19
REMARK    2  A    between atoms: C2_3  and  C3_4
REMARK    3  A    between atoms: C5_7  and  N1_8
REMARK       I    between atoms: N1_8  and  C6_10
REMARK       I    between atoms: C6_10  and  N2_12
REMARK    4  A    between atoms: N2_12  and  N3_14
REMARK    5  A    between atoms: N5_19  and  C7_21
ROOT
HETATM    1  C3  UNL     1      43.916  51.284  11.328  1.00  0.00     0.026 A
HETATM    2  C4  UNL     1      44.610  50.332  10.635  1.00  0.00     0.078 A
HETATM    3  S1  UNL     1      45.063  49.243  11.860  1.00  0.00    -0.064 SA
HETATM    4  C5  UNL     1      44.353  50.046  13.184  1.00  0.00     0.152 A
HETATM    5  N4  UNL     1      43.794  51.124  12.630  1.00  0.00    -0.339 N
ATOM      6  H4  UNL     1      43.287  51.803  13.198  1.00  0.00     0.168 HD
ENDROOT
BRANCH   1   7
HETATM    7  C2  UNL     1      43.295  52.497  10.637  1.00  0.00     0.161 C
BRANCH   7   8
HETATM    8  C1  UNL     1      44.162  52.983   9.567  1.00  0.00     0.241 C
HETATM    9  O1  UNL     1      45.310  53.480   9.876  1.00  0.00    -0.272 OA
HETATM   10  N5  UNL     1      43.922  52.992   8.193  1.00  0.00    -0.157 N
ATOM     11  H5  UNL     1      44.601  53.531   7.656  1.00  0.00     0.187 HD
BRANCH  10  12
HETATM   12  C7  UNL     1      43.023  52.458   7.493  1.00  0.00     0.716 A
HETATM   13  N6  UNL     1      43.364  51.588   6.483  1.00  0.00    -0.115 N
HETATM   14  N7  UNL     1      42.256  51.169   5.908  1.00  0.00    -0.213 N
ATOM     15  H6  UNL     1      44.312  51.316   6.223  1.00  0.00     0.207 HD
HETATM   16  N8  UNL     1      41.231  51.730   6.505  1.00  0.00    -0.213 N
ATOM     17  H7  UNL     1      42.204  50.515   5.127  1.00  0.00     0.210 HD
HETATM   18  N9  UNL     1      41.700  52.513   7.468  1.00  0.00    -0.115 N
ATOM     19  H8  UNL     1      40.248  51.589   6.270  1.00  0.00     0.210 HD
ATOM     20  H9  UNL     1      41.126  53.076   8.096  1.00  0.00     0.207 HD
ENDBRANCH  10  12
ENDBRANCH   7   8
ENDBRANCH   1   7
BRANCH   4  21
HETATM   21  N1  UNL     1      44.348  49.702  14.458  1.00  0.00    -0.287 N
HETATM   22  C6  UNL     1      44.739  48.414  14.854  1.00  0.00     0.345 C
HETATM   23  O2  UNL     1      43.929  47.454  14.666  1.00  0.00    -0.245 OA
HETATM   24  N2  UNL     1      45.982  48.096  15.456  1.00  0.00    -0.191 N
ATOM     25  H2  UNL     1      46.651  48.848  15.618  1.00  0.00     0.198 HD
ATOM     26  H1  UNL     1      44.057  50.380  15.163  1.00  0.00     0.172 HD
BRANCH  24  27
HETATM   27  N3  UNL     1      46.332  46.803  15.837  1.00  0.00    -0.035 N
HETATM   28  O3  UNL     1      46.659  45.910  15.049  1.00  0.00    -0.516 OA
HETATM   29  O4  UNL     1      46.312  46.505  17.172  1.00  0.00    -0.516 OA
ENDBRANCH  24  27
ENDBRANCH   4  21
TORSDOF 5
ENDMDL