MODEL 3
REMARK VINA RESULT: -5.021116235     12.557     14.476
REMARK  4 active torsions:
REMARK  status: ('A' for Active; 'I' for Inactive)
REMARK    1  A    between atoms: C2_5  and  C3_6
REMARK    2  A    between atoms: C2_5  and  C4_9
REMARK    3  A    between atoms: C4_9  and  C5_14
REMARK    4  A    between atoms: N2_10  and  O4_12
ROOT
HETATM    1  O1  UNL     1      43.609  43.200  13.498  1.00  0.00    -0.246 OA
HETATM    2  C1  UNL     1      44.660  43.882  13.821  1.00  0.00     0.331 C
HETATM    3  N1  UNL     1      44.543  45.258  14.101  1.00  0.00    -0.311 N
ATOM      4  H1  UNL     1      43.624  45.572  14.412  1.00  0.00     0.166 HD
HETATM    5  C2  UNL     1      45.553  46.275  14.006  1.00  0.00     0.242 C
HETATM    6  C8  UNL     1      46.924  45.738  13.797  1.00  0.00     0.307 C
HETATM    7  O5  UNL     1      47.795  46.347  13.261  1.00  0.00    -0.275 OA
HETATM    8  S1  UNL     1      47.261  44.125  14.377  1.00  0.00     0.303 S
HETATM    9  O6  UNL     1      47.281  44.091  15.879  1.00  0.00    -0.197 OA
HETATM   10  O7  UNL     1      48.529  43.563  13.776  1.00  0.00    -0.197 OA
HETATM   11  N3  UNL     1      45.894  43.205  13.881  1.00  0.00    -0.229 N
ATOM     12  H3  UNL     1      45.972  42.217  13.642  1.00  0.00     0.183 HD
ENDROOT
BRANCH   5  13
HETATM   13  C3  UNL     1      45.155  47.145  12.871  1.00  0.00     0.218 C
HETATM   14  O2  UNL     1      44.099  46.889  12.195  1.00  0.00    -0.645 OA
HETATM   15  O3  UNL     1      45.880  48.233  12.508  1.00  0.00    -0.645 OA
ENDBRANCH   5  13
BRANCH   5  16
HETATM   16  C4  UNL     1      45.646  47.057  15.299  1.00  0.00     0.061 C
HETATM   17  N2  UNL     1      46.822  47.189  15.842  1.00  0.00    -0.274 N
ATOM     18  H2  UNL     1      47.625  46.764  15.378  1.00  0.00     0.193 HD
BRANCH  17  19
HETATM   19  O4  UNL     1      47.022  47.861  16.985  1.00  0.00    -0.290 OA
ATOM     20  H4  UNL     1      46.408  47.838  17.710  1.00  0.00     0.244 HD
ENDBRANCH  17  19
BRANCH  16  21
HETATM   21  C5  UNL     1      44.385  47.608  15.834  1.00  0.00     0.037 A
HETATM   22  C6  UNL     1      44.237  48.430  17.024  1.00  0.00     0.011 A
HETATM   23  C7  UNL     1      44.187  49.104  15.652  1.00  0.00     0.011 A
ENDBRANCH  16  21
ENDBRANCH   5  16
TORSDOF 4
ENDMDL