MODEL 1
REMARK VINA RESULT: -5.241275801      0.000      0.000
REMARK  5 active torsions:
REMARK  status: ('A' for Active; 'I' for Inactive)
REMARK    1  A    between atoms: C3_3  and  O1_4
REMARK    2  A    between atoms: C3_3  and  C4_6
REMARK    3  A    between atoms: C4_6  and  C5_7
REMARK    4  A    between atoms: C6_10  and  C8_13
REMARK       I    between atoms: C8_13  and  N3_15
REMARK    5  A    between atoms: N3_15  and  N4_17
ROOT
HETATM    1  C1  UNL     1      49.122  55.935   4.337  1.00  0.00     0.029 C
HETATM    2  C2  UNL     1      49.112  57.420   4.507  1.00  0.00     0.141 C
HETATM    3  C3  UNL     1      49.404  57.889   5.894  1.00  0.00     0.113 C
HETATM    4  C6  UNL     1      48.328  57.435   6.813  1.00  0.00     0.176 C
HETATM    5  C7  UNL     1      48.588  56.061   7.309  1.00  0.00     0.083 C
HETATM    6  N2  UNL     1      48.779  54.986   7.700  1.00  0.00    -0.196 NA
HETATM    7  C9  UNL     1      46.998  57.513   6.113  1.00  0.00     0.178 C
HETATM    8  S1  UNL     1      47.383  57.929   4.433  1.00  0.00     0.153 S
HETATM    9  O4  UNL     1      47.345  59.409   4.240  1.00  0.00    -0.227 OA
HETATM   10  O5  UNL     1      46.622  57.161   3.441  1.00  0.00    -0.227 OA
ENDROOT
BRANCH   4  11
HETATM   11  C8  UNL     1      48.215  58.274   8.027  1.00  0.00     0.262 C
HETATM   12  O3  UNL     1      47.690  59.408   8.012  1.00  0.00    -0.270 OA
HETATM   13  N3  UNL     1      48.715  57.788   9.251  1.00  0.00    -0.275 N
ATOM     14  H3  UNL     1      49.148  56.864   9.279  1.00  0.00     0.189 HD
BRANCH  13  15
HETATM   15  N4  UNL     1      48.634  58.549  10.445  1.00  0.00    -0.343 N
ATOM     16  H42 UNL     1      47.988  59.338  10.469  1.00  0.00     0.176 HD
ATOM     17  H41 UNL     1      49.199  58.325  11.264  1.00  0.00     0.176 HD
ENDBRANCH  13  15
ENDBRANCH   4  11
BRANCH   3  18
HETATM   18  O1  UNL     1      49.335  59.302   5.840  1.00  0.00    -0.386 OA
ATOM     19  H1  UNL     1      50.155  59.613   6.206  1.00  0.00     0.210 HD
ENDBRANCH   3  18
BRANCH   3  20
HETATM   20  C4  UNL     1      50.730  57.432   6.425  1.00  0.00     0.141 C
BRANCH  20  21
HETATM   21  C5  UNL     1      51.604  58.519   6.880  1.00  0.00     0.234 C
HETATM   22  N1  UNL     1      51.601  59.038   8.203  1.00  0.00    -0.062 NA
HETATM   23  O2  UNL     1      52.409  59.034   6.066  1.00  0.00    -0.277 OA
ENDBRANCH  20  21
ENDBRANCH   3  20
TORSDOF 5
ENDMDL