MODEL 3
REMARK VINA RESULT: -6.211124677      3.160      6.932
REMARK  4 active torsions:
REMARK  status: ('A' for Active; 'I' for Inactive)
REMARK    1  A    between atoms: C1_2  and  C2_4
REMARK       I    between atoms: C2_4  and  N1_6
REMARK    2  A    between atoms: N1_6  and  O4_8
REMARK    3  A    between atoms: O4_8  and  C3_9
REMARK    4  A    between atoms: C4_11  and  C5_12
ROOT
HETATM    1  C3  UNL     1      43.219  52.652  10.876  1.00  0.00     0.372 C
HETATM    2  O5  UNL     1      44.519  53.085  10.645  1.00  0.00    -0.314 OA
HETATM    3  C4  UNL     1      45.433  52.077  10.419  1.00  0.00     0.337 C
HETATM    4  N2  UNL     1      45.956  51.527  11.687  1.00  0.00    -0.273 N
ATOM      5  H2  UNL     1      46.773  51.825  12.220  1.00  0.00     0.176 HD
HETATM    6  S1  UNL     1      44.825  50.236  12.049  1.00  0.00     0.290 S
HETATM    7  O8  UNL     1      44.446  50.246  13.498  1.00  0.00    -0.194 OA
HETATM    8  O9  UNL     1      45.336  48.929  11.583  1.00  0.00    -0.194 OA
HETATM    9  S2  UNL     1      43.104  50.827  10.958  1.00  0.00     0.047 SA
ENDROOT
BRANCH   1  10
HETATM   10  O4  UNL     1      42.384  53.180   9.922  1.00  0.00    -0.232 OA
BRANCH  10  11
HETATM   11  N1  UNL     1      42.934  52.993   8.705  1.00  0.00    -0.222 N
HETATM   12  C2  UNL     1      42.095  53.059   7.566  1.00  0.00     0.341 C
HETATM   13  O3  UNL     1      40.858  53.293   7.755  1.00  0.00    -0.259 OA
ATOM     14  H1  UNL     1      43.932  52.808   8.607  1.00  0.00     0.198 HD
BRANCH  12  15
HETATM   15  C1  UNL     1      42.550  52.880   6.218  1.00  0.00     0.272 C
HETATM   16  O1  UNL     1      43.069  53.833   5.595  1.00  0.00    -0.640 OA
HETATM   17  O2  UNL     1      42.425  51.663   5.589  1.00  0.00    -0.640 OA
ENDBRANCH  12  15
ENDBRANCH  10  11
ENDBRANCH   1  10
BRANCH   3  18
HETATM   18  C5  UNL     1      46.551  52.570   9.595  1.00  0.00     0.225 C
HETATM   19  O6  UNL     1      46.330  53.327   8.636  1.00  0.00    -0.645 OA
HETATM   20  O7  UNL     1      47.838  52.192   9.889  1.00  0.00    -0.645 OA
ENDBRANCH   3  18
TORSDOF 4
ENDMDL