MODEL 5
REMARK VINA RESULT: -7.935849050      2.716      4.209
REMARK  5 active torsions:
REMARK  status: ('A' for Active; 'I' for Inactive)
REMARK    1  A    between atoms: C3_3  and  O1_4
REMARK    2  A    between atoms: C5_7  and  N1_8
REMARK    3  A    between atoms: N4_18  and  O4_19
REMARK    4  A    between atoms: O4_19  and  C9_20
REMARK    5  A    between atoms: C9_20  and  C10_22
ROOT
HETATM    1  C1  UNL     1      42.770  52.192  13.523  1.00  0.00     0.016 C
HETATM    2  C2  UNL     1      43.703  51.487  13.195  1.00  0.00    -0.060 C
HETATM    3  C3  UNL     1      44.837  50.651  12.785  1.00  0.00     0.203 C
HETATM    4  C4  UNL     1      45.028  49.482  13.725  1.00  0.00     0.100 C
HETATM    5  C5  UNL     1      44.216  48.405  13.097  1.00  0.00     0.134 C
HETATM    6  C8  UNL     1      44.326  48.687  11.624  1.00  0.00     0.153 C
HETATM    7  N4  UNL     1      44.484  50.099  11.506  1.00  0.00    -0.139 NA
ENDROOT
BRANCH   3   8
HETATM    8  O1  UNL     1      45.976  51.433  12.648  1.00  0.00    -0.363 OA
ATOM      9  H1  UNL     1      46.735  50.878  12.507  1.00  0.00     0.213 HD
ENDBRANCH   3   8
BRANCH   7  10
HETATM   10  O4  UNL     1      45.503  50.347  10.601  1.00  0.00    -0.220 OA
BRANCH  10  11
HETATM   11  C9  UNL     1      45.258  50.782   9.308  1.00  0.00     0.289 C
HETATM   12  O5  UNL     1      45.287  49.939   8.379  1.00  0.00    -0.263 OA
BRANCH  11  13
HETATM   13  C10 UNL     1      44.963  52.224   9.042  1.00  0.00     0.236 C
HETATM   14  C11 UNL     1      43.976  52.361   7.970  1.00  0.00     0.069 C
HETATM   15  N5  UNL     1      43.191  52.475   7.129  1.00  0.00    -0.197 NA
ENDBRANCH  11  13
ENDBRANCH  10  11
ENDBRANCH   7  10
BRANCH   5  16
HETATM   16  N1  UNL     1      44.581  47.059  13.446  1.00  0.00    -0.232 N
HETATM   17  N2  UNL     1      45.717  46.774  14.100  1.00  0.00    -0.245 N
HETATM   18  C6  UNL     1      45.767  45.441  14.300  1.00  0.00     0.343 A
ATOM     19  H2  UNL     1      46.422  47.449  14.395  1.00  0.00     0.192 HD
HETATM   20  O2  UNL     1      46.699  44.811  14.888  1.00  0.00    -0.245 OA
HETATM   21  N3  UNL     1      44.670  44.863  13.778  1.00  0.00    -0.258 N
HETATM   22  C7  UNL     1      43.951  45.905  13.252  1.00  0.00     0.345 A
ATOM     23  H3  UNL     1      44.427  43.873  13.774  1.00  0.00     0.175 HD
HETATM   24  O3  UNL     1      42.857  45.759  12.675  1.00  0.00    -0.245 OA
ENDBRANCH   5  16
TORSDOF 5
ENDMDL