MODEL 1
REMARK VINA RESULT: -7.752751080      0.000      0.000
REMARK  6 active torsions:
REMARK  status: ('A' for Active; 'I' for Inactive)
REMARK       I    between atoms: C3_3  and  N1_5
REMARK    1  A    between atoms: N1_5  and  C4_6
REMARK    2  A    between atoms: C4_6  and  C5_10
REMARK    3  A    between atoms: C5_10  and  O2_11
REMARK    4  A    between atoms: C6_14  and  C7_15
REMARK    5  A    between atoms: C7_15  and  C8_16
REMARK    6  A    between atoms: C8_16  and  O4_17
ROOT
HETATM    1  C1  UNL     1      47.596  46.376  13.176  1.00  0.00     0.024 C
HETATM    2  C2  UNL     1      46.568  46.937  12.892  1.00  0.00    -0.001 C
HETATM    3  C3  UNL     1      45.307  47.645  12.570  1.00  0.00     0.372 C
HETATM    4  O1  UNL     1      44.314  46.898  12.649  1.00  0.00    -0.241 OA
HETATM    5  N1  UNL     1      45.364  49.012  12.228  1.00  0.00    -0.339 NA
ENDROOT
BRANCH   5   6
HETATM    6  C4  UNL     1      45.414  50.275  11.912  1.00  0.00     0.236 C
HETATM    7  N2  UNL     1      45.850  51.129  12.875  1.00  0.00    -0.372 N
ATOM      8  H22 UNL     1      46.082  50.635  13.737  1.00  0.00     0.158 HD
ATOM      9  H21 UNL     1      45.890  52.118  12.628  1.00  0.00     0.158 HD
BRANCH   6  10
HETATM   10  C5  UNL     1      45.071  51.005  10.638  1.00  0.00     0.370 C
HETATM   11  O3  UNL     1      46.141  51.828  10.326  1.00  0.00    -0.327 OA
HETATM   12  C6  UNL     1      46.069  52.453   9.128  1.00  0.00     0.153 C
HETATM   13  C9  UNL     1      44.725  52.841   8.637  1.00  0.00     0.222 C
HETATM   14  O5  UNL     1      43.800  53.212   9.587  1.00  0.00    -0.269 OA
HETATM   15  S1  UNL     1      43.644  52.042  10.815  1.00  0.00     0.335 S
HETATM   16  O6  UNL     1      43.573  52.787  12.090  1.00  0.00    -0.192 OA
HETATM   17  O7  UNL     1      42.427  51.193  10.586  1.00  0.00    -0.192 OA
BRANCH  10  18
HETATM   18  O2  UNL     1      44.786  50.088   9.653  1.00  0.00    -0.345 OA
ATOM     19  H2  UNL     1      45.190  50.366   8.841  1.00  0.00     0.214 HD
ENDBRANCH  10  18
BRANCH  12  20
HETATM   20  C7  UNL     1      46.980  53.671   9.139  1.00  0.00     0.060 C
BRANCH  20  21
HETATM   21  C8  UNL     1      48.425  53.244   9.372  1.00  0.00     0.166 C
BRANCH  21  22
HETATM   22  O4  UNL     1      49.137  53.127   8.182  1.00  0.00    -0.401 OA
ATOM     23  H4  UNL     1      50.032  53.434   8.268  1.00  0.00     0.209 HD
ENDBRANCH  21  22
ENDBRANCH  20  21
ENDBRANCH  12  20
ENDBRANCH   6  10
ENDBRANCH   5   6
TORSDOF 6
ENDMDL