MODEL 5
REMARK VINA RESULT: -7.099443136      3.660      6.287
REMARK  12 active torsions:
REMARK  status: ('A' for Active; 'I' for Inactive)
REMARK    1  A    between atoms: C2_2  and  C3_3
REMARK    2  A    between atoms: C4_4  and  C5_5
REMARK    3  A    between atoms: N2_11  and  C9_12
REMARK    4  A    between atoms: C9_12  and  C10_13
REMARK    5  A    between atoms: C10_13  and  C11_14
REMARK    6  A    between atoms: C11_14  and  C12_15
REMARK    7  A    between atoms: C12_15  and  C13_16
REMARK       I    between atoms: C13_16  and  N3_18
REMARK    8  A    between atoms: N3_18  and  N4_20
REMARK    9  A    between atoms: N4_20  and  N5_21
REMARK   10  A    between atoms: C15_25  and  O2_26
REMARK   11  A    between atoms: C21_34  and  O3_35
REMARK   12  A    between atoms: C21_34  and  C22_37
ROOT
HETATM    1  C10 UNL     1      18.599 -25.236   1.895  1.00  0.00     0.004 C
HETATM    2  C14 UNL     1      18.033 -23.794   2.147  1.00  0.00     0.048 C
HETATM    3  C15 UNL     1      19.219 -22.925   2.511  1.00  0.00     0.134 C
HETATM    4  C16 UNL     1      19.944 -23.851   3.429  1.00  0.00     0.059 C
HETATM    5  C17 UNL     1      19.312 -23.863   4.743  1.00  0.00     0.025 C
HETATM    6  C18 UNL     1      19.914 -25.049   2.543  1.00  0.00     0.059 C
HETATM    7  C19 UNL     1      20.758 -25.972   3.215  1.00  0.00     0.152 C
HETATM    8  C20 UNL     1      21.336 -27.114   2.407  1.00  0.00     0.056 C
HETATM    9  F1  UNL     1      20.449 -26.465   4.453  1.00  0.00    -0.239 F
HETATM   10  C21 UNL     1      21.999 -25.027   3.393  1.00  0.00     0.249 C
HETATM   11  C23 UNL     1      21.405 -23.648   3.562  1.00  0.00     0.297 C
HETATM   12  F2  UNL     1      21.928 -22.752   2.638  1.00  0.00    -0.201 F
HETATM   13  F3  UNL     1      21.661 -23.168   4.856  1.00  0.00    -0.201 F
ENDROOT
BRANCH   1  14
HETATM   14  C9  UNL     1      18.835 -25.333   0.444  1.00  0.00     0.103 C
BRANCH  14  15
HETATM   15  N2  UNL     1      18.136 -26.148  -0.463  1.00  0.00    -0.235 N
HETATM   16  N1  UNL     1      18.509 -27.388  -0.785  1.00  0.00    -0.303 N
HETATM   17  C8  UNL     1      17.883 -28.153  -1.654  1.00  0.00     0.116 A
ATOM     18  H1  UNL     1      19.336 -27.770  -0.325  1.00  0.00     0.186 HD
HETATM   19  C4  UNL     1      16.743 -27.738  -2.341  1.00  0.00    -0.026 A
HETATM   20  C3  UNL     1      16.324 -26.478  -2.042  1.00  0.00     0.019 A
HETATM   21  C24 UNL     1      17.045 -25.711  -1.096  1.00  0.00     0.272 A
HETATM   22  O6  UNL     1      16.550 -24.549  -0.891  1.00  0.00    -0.266 OA
BRANCH  19  23
HETATM   23  C5  UNL     1      16.058 -28.568  -3.324  1.00  0.00     0.012 C
HETATM   24  C6  UNL     1      15.902 -30.014  -2.838  1.00  0.00     0.015 C
HETATM   25  C7  UNL     1      16.717 -28.557  -4.687  1.00  0.00     0.015 C
ENDBRANCH  19  23
BRANCH  20  26
HETATM   26  C2  UNL     1      15.137 -25.899  -2.648  1.00  0.00     0.040 C
HETATM   27  C1  UNL     1      13.894 -26.067  -1.757  1.00  0.00     0.010 C
ENDBRANCH  20  26
ENDBRANCH  14  15
ENDBRANCH   1  14
BRANCH   1  28
HETATM   28  C11 UNL     1      17.631 -26.150   2.490  1.00  0.00     0.025 C
BRANCH  28  29
HETATM   29  C12 UNL     1      16.569 -25.800   3.419  1.00  0.00     0.106 C
BRANCH  29  30
HETATM   30  C13 UNL     1      16.723 -26.698   4.650  1.00  0.00     0.247 C
HETATM   31  O1  UNL     1      17.706 -27.462   4.752  1.00  0.00    -0.271 OA
HETATM   32  N3  UNL     1      15.762 -26.680   5.690  1.00  0.00    -0.183 N
ATOM     33  H3  UNL     1      14.789 -26.924   5.504  1.00  0.00     0.207 HD
BRANCH  32  34
HETATM   34  N4  UNL     1      16.124 -26.366   6.823  1.00  0.00    -0.241 NA
BRANCH  34  35
HETATM   35  N5  UNL     1      16.394 -25.969   7.969  1.00  0.00    -0.260 N
ATOM     36  H52 UNL     1      16.582 -25.101   7.466  1.00  0.00     0.193 HD
ATOM     37  H51 UNL     1      16.592 -25.737   8.942  1.00  0.00     0.193 HD
ENDBRANCH  34  35
ENDBRANCH  32  34
ENDBRANCH  29  30
ENDBRANCH  28  29
ENDBRANCH   1  28
BRANCH   3  38
HETATM   38  O2  UNL     1      19.909 -22.490   1.415  1.00  0.00    -0.395 OA
ATOM     39  H2  UNL     1      19.346 -22.089   0.764  1.00  0.00     0.210 HD
ENDBRANCH   3  38
BRANCH  10  40
HETATM   40  O3  UNL     1      22.716 -25.011   2.200  1.00  0.00    -0.371 OA
ATOM     41  H3  UNL     1      23.626 -24.825   2.399  1.00  0.00     0.211 HD
ENDBRANCH  10  40
BRANCH  10  42
HETATM   42  C22 UNL     1      22.850 -25.472   4.475  1.00  0.00     0.219 C
HETATM   43  O4  UNL     1      22.519 -25.545   5.690  1.00  0.00    -0.645 OA
HETATM   44  O5  UNL     1      24.151 -25.861   4.193  1.00  0.00    -0.645 OA
ENDBRANCH  10  42
TORSDOF 12
ENDMDL