MODEL 1
REMARK VINA RESULT: -8.538202548      0.000      0.000
REMARK  11 active torsions:
REMARK  status: ('A' for Active; 'I' for Inactive)
REMARK       I    between atoms: C2_2  and  N1_4
REMARK    1  A    between atoms: N1_4  and  C3_6
REMARK    2  A    between atoms: C3_6  and  C4_7
REMARK    3  A    between atoms: N2_8  and  C5_10
REMARK    4  A    between atoms: C5_10  and  C6_11
REMARK    5  A    between atoms: C6_11  and  C7_13
REMARK    6  A    between atoms: C7_13  and  O3_14
REMARK    7  A    between atoms: O3_14  and  C8_15
REMARK    8  A    between atoms: C8_15  and  C9_17
REMARK    9  A    between atoms: C15_23  and  O5_24
REMARK   10  A    between atoms: C22_33  and  C23_34
REMARK   11  A    between atoms: C23_34  and  C26_37
ROOT
HETATM    1  C9  UNL     1      17.826 -28.921  -2.852  1.00  0.00     0.051 C
HETATM    2  C10 UNL     1      17.908 -27.739  -1.843  1.00  0.00     0.026 C
HETATM    3  C11 UNL     1      17.682 -28.317  -4.200  1.00  0.00     0.020 C
HETATM    4  C12 UNL     1      16.184 -27.990  -4.330  1.00  0.00     0.007 C
HETATM    5  C13 UNL     1      15.582 -28.401  -3.019  1.00  0.00    -0.001 C
HETATM    6  C14 UNL     1      16.461 -29.553  -2.621  1.00  0.00     0.037 C
HETATM    7  C15 UNL     1      16.191 -30.806  -3.347  1.00  0.00     0.125 C
HETATM    8  C16 UNL     1      14.736 -31.107  -3.192  1.00  0.00     0.049 C
HETATM    9  C17 UNL     1      13.759 -30.053  -3.516  1.00  0.00     0.023 C
HETATM   10  C18 UNL     1      12.440 -30.571  -2.899  1.00  0.00     0.024 C
HETATM   11  C19 UNL     1      13.531 -30.110  -4.999  1.00  0.00     0.135 C
HETATM   12  O6  UNL     1      13.975 -31.017  -5.692  1.00  0.00    -0.297 OA
HETATM   13  C20 UNL     1      12.760 -29.052  -5.634  1.00  0.00     0.079 C
HETATM   14  C21 UNL     1      12.319 -27.976  -4.691  1.00  0.00     0.013 C
HETATM   15  C22 UNL     1      13.362 -27.569  -3.685  1.00  0.00     0.008 C
HETATM   16  C27 UNL     1      14.103 -28.681  -3.033  1.00  0.00     0.011 C
ENDROOT
BRANCH   1  17
HETATM   17  C8  UNL     1      18.952 -29.793  -2.613  1.00  0.00     0.272 C
HETATM   18  O4  UNL     1      19.061 -30.953  -2.996  1.00  0.00    -0.264 OA
BRANCH  17  19
HETATM   19  O3  UNL     1      20.033 -29.268  -1.859  1.00  0.00    -0.287 OA
BRANCH  19  20
HETATM   20  C7  UNL     1      21.306 -29.270  -2.427  1.00  0.00     0.197 C
BRANCH  20  21
HETATM   21  C6  UNL     1      22.328 -30.174  -1.959  1.00  0.00     0.189 C
HETATM   22  O2  UNL     1      22.476 -31.297  -2.336  1.00  0.00    -0.289 OA
BRANCH  21  23
HETATM   23  C5  UNL     1      23.313 -29.633  -0.894  1.00  0.00     0.203 C
BRANCH  23  24
HETATM   24  N2  UNL     1      24.435 -30.442  -0.872  1.00  0.00    -0.393 N
HETATM   25  C4  UNL     1      25.672 -30.303  -1.381  1.00  0.00     0.075 C
ATOM     26  H2  UNL     1      24.296 -31.318  -0.369  1.00  0.00     0.159 HD
BRANCH  25  27
HETATM   27  C3  UNL     1      26.115 -30.384  -2.773  1.00  0.00     0.166 C
BRANCH  27  28
HETATM   28  N1  UNL     1      25.165 -30.733  -3.771  1.00  0.00    -0.357 N
HETATM   29  C2  UNL     1      25.379 -31.305  -5.022  1.00  0.00     0.213 C
HETATM   30  C1  UNL     1      24.199 -31.571  -5.919  1.00  0.00     0.117 C
HETATM   31  O1  UNL     1      26.495 -31.622  -5.472  1.00  0.00    -0.274 OA
ATOM     32  H1  UNL     1      24.192 -30.537  -3.538  1.00  0.00     0.162 HD
ENDBRANCH  27  28
ENDBRANCH  25  27
ENDBRANCH  23  24
ENDBRANCH  21  23
ENDBRANCH  20  21
ENDBRANCH  19  20
ENDBRANCH  17  19
ENDBRANCH   1  17
BRANCH   7  33
HETATM   33  O5  UNL     1      16.669 -30.877  -4.648  1.00  0.00    -0.395 OA
ATOM     34  H5  UNL     1      16.299 -30.257  -5.266  1.00  0.00     0.210 HD
ENDBRANCH   7  33
BRANCH  15  35
HETATM   35  C23 UNL     1      13.001 -26.357  -2.940  1.00  0.00     0.054 C
HETATM   36  C24 UNL     1      12.496 -26.804  -1.541  1.00  0.00     0.024 C
HETATM   37  C25 UNL     1      11.894 -25.511  -3.481  1.00  0.00     0.024 C
BRANCH  35  38
HETATM   38  C26 UNL     1      14.113 -25.412  -2.546  1.00  0.00     0.395 C
HETATM   39  F1  UNL     1      13.466 -24.206  -2.192  1.00  0.00    -0.170 F
HETATM   40  F2  UNL     1      14.986 -25.083  -3.511  1.00  0.00    -0.170 F
HETATM   41  F3  UNL     1      14.697 -25.754  -1.316  1.00  0.00    -0.170 F
ENDBRANCH  35  38
ENDBRANCH  15  35
TORSDOF 11
ENDMDL