MODEL 5
REMARK VINA RESULT: -8.585766108      3.801      8.194
REMARK  11 active torsions:
REMARK  status: ('A' for Active; 'I' for Inactive)
REMARK    1  A    between atoms: C4_5  and  N2_6
REMARK    2  A    between atoms: N2_6  and  C6_8
REMARK    3  A    between atoms: C9_12  and  C10_13
REMARK       I    between atoms: C10_13  and  N3_15
REMARK    4  A    between atoms: N3_15  and  C11_17
REMARK    5  A    between atoms: C11_17  and  C12_18
REMARK    6  A    between atoms: C12_18  and  C13_20
REMARK    7  A    between atoms: C13_20  and  O3_21
REMARK    8  A    between atoms: C13_20  and  O4_23
REMARK    9  A    between atoms: C15_26  and  O5_27
REMARK   10  A    between atoms: O5_27  and  C16_28
REMARK   11  A    between atoms: C16_28  and  C17_29
ROOT
HETATM    1  C6  UNL     1      19.305 -28.449  -2.162  1.00  0.00     0.065 A
HETATM    2  C7  UNL     1      18.051 -27.894  -2.221  1.00  0.00     0.057 A
HETATM    3  C8  UNL     1      16.929 -28.584  -2.689  1.00  0.00     0.052 A
HETATM    4 CL1  UNL     1      15.372 -27.759  -2.719  1.00  0.00    -0.083 Cl
HETATM    5  C9  UNL     1      17.108 -29.854  -3.096  1.00  0.00     0.056 A
HETATM    6  C14 UNL     1      18.374 -30.427  -3.041  1.00  0.00     0.057 A
HETATM    7  C15 UNL     1      19.501 -29.778  -2.587  1.00  0.00     0.096 A
ENDROOT
BRANCH   5   8
HETATM    8  C10 UNL     1      15.971 -30.649  -3.600  1.00  0.00     0.253 C
HETATM    9  O1  UNL     1      15.467 -31.470  -2.804  1.00  0.00    -0.268 OA
HETATM   10  N3  UNL     1      15.524 -30.435  -4.920  1.00  0.00    -0.350 N
ATOM     11  H3  UNL     1      16.013 -29.755  -5.503  1.00  0.00     0.163 HD
BRANCH  10  12
HETATM   12  C11 UNL     1      14.410 -31.139  -5.467  1.00  0.00     0.206 C
BRANCH  12  13
HETATM   13  C12 UNL     1      13.126 -30.654  -4.924  1.00  0.00     0.198 C
HETATM   14  O2  UNL     1      12.438 -31.345  -4.229  1.00  0.00    -0.291 OA
BRANCH  13  15
HETATM   15  C13 UNL     1      12.684 -29.253  -5.260  1.00  0.00     0.327 C
BRANCH  15  16
HETATM   16  O3  UNL     1      12.337 -28.625  -4.092  1.00  0.00    -0.365 OA
ATOM     17  H3  UNL     1      13.084 -28.663  -3.505  1.00  0.00     0.213 HD
ENDBRANCH  15  16
BRANCH  15  18
HETATM   18  O4  UNL     1      13.613 -28.586  -6.028  1.00  0.00    -0.365 OA
ATOM     19  H4  UNL     1      13.457 -28.701  -6.958  1.00  0.00     0.213 HD
ENDBRANCH  15  18
ENDBRANCH  13  15
ENDBRANCH  12  13
ENDBRANCH  10  12
ENDBRANCH   5   8
BRANCH   7  20
HETATM   20  O5  UNL     1      20.679 -30.334  -2.544  1.00  0.00    -0.348 OA
BRANCH  20  21
HETATM   21  C16 UNL     1      21.734 -31.023  -2.864  1.00  0.00     0.186 C
BRANCH  21  22
HETATM   22  C17 UNL     1      22.888 -30.941  -1.889  1.00  0.00     0.082 C
HETATM   23  C18 UNL     1      22.915 -29.775  -1.002  1.00  0.00     0.013 C
HETATM   24  C19 UNL     1      24.290 -29.284  -0.638  1.00  0.00     0.009 C
HETATM   25  C20 UNL     1      25.309 -30.389  -0.550  1.00  0.00    -0.042 C
HETATM   26  C21 UNL     1      25.110 -31.231   0.703  1.00  0.00     0.015 C
HETATM   27  C22 UNL     1      26.668 -29.728  -0.416  1.00  0.00     0.015 C
HETATM   28  C23 UNL     1      25.351 -31.254  -1.776  1.00  0.00     0.088 C
HETATM   29  C24 UNL     1      24.172 -31.043  -2.692  1.00  0.00     0.250 C
HETATM   30  F1  UNL     1      24.095 -32.148  -3.522  1.00  0.00    -0.206 F
HETATM   31  F2  UNL     1      24.338 -29.906  -3.427  1.00  0.00    -0.206 F
ENDBRANCH  21  22
ENDBRANCH  20  21
ENDBRANCH   7  20
BRANCH   1  32
HETATM   32  N2  UNL     1      20.334 -27.625  -1.661  1.00  0.00    -0.378 N
HETATM   33  C5  UNL     1      21.376 -27.181  -2.550  1.00  0.00     0.150 C
BRANCH  32  34
HETATM   34  C4  UNL     1      20.363 -27.199  -0.286  1.00  0.00     0.087 C
HETATM   35  C3  UNL     1      19.232 -27.879   0.507  1.00  0.00     0.055 C
HETATM   36  C2  UNL     1      19.053 -27.038   1.761  1.00  0.00     0.274 C
HETATM   37  N1  UNL     1      18.276 -25.886   1.355  1.00  0.00     0.084 N
HETATM   38  C1  UNL     1      17.900 -25.029   2.436  1.00  0.00     0.309 C
HETATM   39  C26 UNL     1      18.874 -25.223   0.243  1.00  0.00     0.274 C
HETATM   40  C25 UNL     1      20.225 -25.696  -0.153  1.00  0.00     0.055 C
ENDBRANCH  32  34
ENDBRANCH   1  32
TORSDOF 11
ENDMDL