MODEL 3
REMARK VINA RESULT: -8.169991076      5.851     10.540
REMARK  10 active torsions:
REMARK  status: ('A' for Active; 'I' for Inactive)
REMARK    1  A    between atoms: S1_2  and  C2_3
REMARK    2  A    between atoms: C4_5  and  C5_7
REMARK    3  A    between atoms: C5_7  and  C6_8
REMARK    4  A    between atoms: C6_8  and  N4_31
REMARK    5  A    between atoms: N1_9  and  O1_11
REMARK    6  A    between atoms: O1_11  and  C7_12
REMARK    7  A    between atoms: C7_12  and  C8_13
REMARK       I    between atoms: C8_13  and  N2_15
REMARK    8  A    between atoms: N2_15  and  N3_17
REMARK       I    between atoms: N3_17  and  C9_19
REMARK    9  A    between atoms: C9_19  and  C10_21
REMARK   10  A    between atoms: C11_22  and  O4_23
ROOT
HETATM    1  C8  UNL     1      20.270 -27.963  -1.073  1.00  0.00     0.262 C
HETATM    2  O2  UNL     1      20.909 -26.858  -1.014  1.00  0.00    -0.269 OA
HETATM    3  N2  UNL     1      20.879 -29.118  -1.607  1.00  0.00    -0.265 N
ATOM      4  H2  UNL     1      20.376 -30.005  -1.643  1.00  0.00     0.190 HD
ENDROOT
BRANCH   1   5
HETATM    5  C7  UNL     1      18.884 -27.981  -0.570  1.00  0.00     0.305 C
BRANCH   5   6
HETATM    6  O1  UNL     1      17.961 -28.135  -1.574  1.00  0.00    -0.270 OA
BRANCH   6   7
HETATM    7  N1  UNL     1      17.455 -29.104  -2.265  1.00  0.00    -0.254 N
HETATM    8  C6  UNL     1      16.697 -29.333  -3.243  1.00  0.00     0.104 C
ATOM      9  H1  UNL     1      17.785 -29.990  -1.885  1.00  0.00     0.195 HD
BRANCH   8  10
HETATM   10  C5  UNL     1      16.096 -28.188  -3.959  1.00  0.00     0.130 C
BRANCH  10  11
HETATM   11  C4  UNL     1      14.827 -27.695  -3.448  1.00  0.00     0.031 C
HETATM   12  C2  UNL     1      14.757 -26.549  -2.807  1.00  0.00    -0.008 C
HETATM   13  C3  UNL     1      15.952 -25.692  -2.620  1.00  0.00     0.057 C
HETATM   14 CL1  UNL     1      13.336 -28.616  -3.644  1.00  0.00    -0.087 Cl
BRANCH  12  15
HETATM   15  S1  UNL     1      13.193 -25.980  -2.174  1.00  0.00    -0.138 SA
HETATM   16  C1  UNL     1      12.629 -24.449  -2.933  1.00  0.00     0.095 C
ENDBRANCH  12  15
ENDBRANCH  10  11
ENDBRANCH   8  10
BRANCH   8  17
HETATM   17  N4  UNL     1      16.440 -30.695  -3.677  1.00  0.00    -0.369 N
HETATM   18  C16 UNL     1      17.076 -31.822  -3.027  1.00  0.00     0.124 C
HETATM   19  C17 UNL     1      16.595 -33.055  -3.716  1.00  0.00     0.021 C
HETATM   20  C18 UNL     1      16.247 -32.523  -5.092  1.00  0.00     0.021 C
HETATM   21  C19 UNL     1      15.598 -31.186  -4.715  1.00  0.00     0.124 C
ENDBRANCH   8  17
ENDBRANCH   6   7
ENDBRANCH   5   6
ENDBRANCH   1   5
BRANCH   3  22
HETATM   22  N3  UNL     1      22.224 -29.011  -2.101  1.00  0.00    -0.263 N
HETATM   23  C9  UNL     1      22.946 -30.167  -2.356  1.00  0.00     0.276 C
HETATM   24  O3  UNL     1      22.355 -31.276  -2.121  1.00  0.00    -0.266 OA
ATOM     25  H3  UNL     1      22.643 -28.095  -2.263  1.00  0.00     0.190 HD
BRANCH  23  26
HETATM   26  C10 UNL     1      24.306 -30.265  -2.858  1.00  0.00     0.105 A
HETATM   27  C11 UNL     1      25.363 -29.688  -2.136  1.00  0.00     0.085 A
HETATM   28  C12 UNL     1      26.678 -29.751  -2.537  1.00  0.00     0.056 A
HETATM   29  C13 UNL     1      26.997 -30.400  -3.691  1.00  0.00     0.016 A
HETATM   30 BR1  UNL     1      28.818 -30.482  -4.241  1.00  0.00    -0.051 Br
HETATM   31  C14 UNL     1      25.995 -30.978  -4.430  1.00  0.00     0.062 A
HETATM   32  C15 UNL     1      24.665 -30.910  -4.014  1.00  0.00     0.136 A
HETATM   33  F1  UNL     1      23.746 -31.505  -4.801  1.00  0.00    -0.205 F
BRANCH  27  34
HETATM   34  O4  UNL     1      25.018 -29.022  -0.948  1.00  0.00    -0.360 OA
ATOM     35  H4  UNL     1      25.738 -28.668  -0.438  1.00  0.00     0.217 HD
ENDBRANCH  27  34
ENDBRANCH  23  26
ENDBRANCH   3  22
TORSDOF 10
ENDMDL