MODEL 2
REMARK VINA RESULT: -10.216149256      0.534      1.212
REMARK  8 active torsions:
REMARK  status: ('A' for Active; 'I' for Inactive)
REMARK    1  A    between atoms: C2_2  and  C18_30
REMARK    2  A    between atoms: C3_3  and  C4_5
REMARK       I    between atoms: C4_5  and  N1_7
REMARK    3  A    between atoms: N1_7  and  C5_9
REMARK    4  A    between atoms: N2_12  and  C8_13
REMARK    5  A    between atoms: C8_13  and  C9_14
REMARK    6  A    between atoms: C9_14  and  N3_15
REMARK       I    between atoms: N3_15  and  C10_17
REMARK    7  A    between atoms: C10_17  and  C11_19
REMARK    8  A    between atoms: C12_21  and  O4_22
ROOT
HETATM    1  C5  UNL     1      16.122 -30.162  -3.415  1.00  0.00     0.091 C
HETATM    2  C6  UNL     1      16.192 -30.587  -4.864  1.00  0.00     0.045 C
HETATM    3  C7  UNL     1      14.908 -31.289  -5.236  1.00  0.00     0.124 C
HETATM    4  N2  UNL     1      13.847 -30.886  -4.390  1.00  0.00    -0.392 N
HETATM    5  C16 UNL     1      13.930 -31.193  -3.018  1.00  0.00     0.060 C
HETATM    6  C17 UNL     1      15.399 -31.198  -2.594  1.00  0.00     0.069 C
ENDROOT
BRANCH   1   7
HETATM    7  N1  UNL     1      17.497 -29.979  -2.926  1.00  0.00    -0.350 N
HETATM    8  C4  UNL     1      18.031 -28.700  -2.818  1.00  0.00     0.281 C
HETATM    9  O1  UNL     1      17.222 -27.746  -3.158  1.00  0.00    -0.265 OA
ATOM     10  H1  UNL     1      18.058 -30.791  -2.667  1.00  0.00     0.163 HD
BRANCH   8  11
HETATM   11  C3  UNL     1      19.331 -28.347  -2.380  1.00  0.00     0.190 C
HETATM   12  C2  UNL     1      19.765 -27.565  -1.459  1.00  0.00    -0.007 C
HETATM   13  C1  UNL     1      21.266 -27.275  -1.368  1.00  0.00     0.052 C
HETATM   14  F1  UNL     1      20.363 -28.860  -3.206  1.00  0.00    -0.200 F
BRANCH  12  15
HETATM   15  C18 UNL     1      19.030 -26.987  -0.355  1.00  0.00    -0.025 A
HETATM   16  C19 UNL     1      18.268 -25.825  -0.508  1.00  0.00     0.014 A
HETATM   17  C20 UNL     1      17.570 -25.269   0.534  1.00  0.00     0.026 A
HETATM   18  C21 UNL     1      17.615 -25.873   1.784  1.00  0.00     0.055 A
HETATM   19 CL1  UNL     1      16.752 -25.221   3.156  1.00  0.00    -0.083 Cl
HETATM   20  C22 UNL     1      18.370 -27.024   1.937  1.00  0.00     0.056 A
HETATM   21 CL2  UNL     1      18.429 -27.789   3.520  1.00  0.00    -0.083 Cl
HETATM   22  C23 UNL     1      19.067 -27.575   0.888  1.00  0.00     0.037 A
ENDBRANCH  12  15
ENDBRANCH   8  11
ENDBRANCH   1   7
BRANCH   4  23
HETATM   23  C8  UNL     1      13.047 -29.798  -4.809  1.00  0.00     0.141 C
BRANCH  23  24
HETATM   24  C9  UNL     1      13.154 -28.556  -3.991  1.00  0.00     0.142 C
BRANCH  24  25
HETATM   25  N3  UNL     1      12.036 -27.696  -4.242  1.00  0.00    -0.357 N
HETATM   26  C10 UNL     1      11.964 -26.353  -3.800  1.00  0.00     0.257 C
HETATM   27  O2  UNL     1      12.890 -25.837  -3.149  1.00  0.00    -0.270 OA
ATOM     28  H3  UNL     1      11.248 -28.072  -4.769  1.00  0.00     0.162 HD
BRANCH  26  29
HETATM   29  C11 UNL     1      10.773 -25.519  -4.103  1.00  0.00     0.278 C
HETATM   30  O3  UNL     1      10.379 -25.715  -5.425  1.00  0.00    -0.335 OA
HETATM   31  C12 UNL     1       9.491 -24.736  -5.780  1.00  0.00     0.276 C
HETATM   32  C13 UNL     1      10.237 -23.393  -5.718  1.00  0.00     0.053 C
HETATM   33  C14 UNL     1       9.283 -22.272  -5.468  1.00  0.00     0.032 C
HETATM   34  C15 UNL     1      11.135 -23.193  -6.896  1.00  0.00     0.032 C
HETATM   35  S1  UNL     1      11.220 -23.733  -4.196  1.00  0.00    -0.114 SA
BRANCH  31  36
HETATM   36  O4  UNL     1       9.079 -24.957  -7.069  1.00  0.00    -0.370 OA
ATOM     37  H4  UNL     1       8.313 -24.423  -7.243  1.00  0.00     0.212 HD
ENDBRANCH  31  36
ENDBRANCH  26  29
ENDBRANCH  24  25
ENDBRANCH  23  24
ENDBRANCH   4  23
TORSDOF 8
ENDMDL