MODEL 2
REMARK VINA RESULT: -9.137331781      0.949      1.334
REMARK  10 active torsions:
REMARK  status: ('A' for Active; 'I' for Inactive)
REMARK    1  A    between atoms: N1_2  and  C2_5
REMARK    2  A    between atoms: C2_5  and  C3_6
REMARK    3  A    between atoms: C4_9  and  C5_10
REMARK    4  A    between atoms: C5_10  and  N3_11
REMARK    5  A    between atoms: C5_10  and  C17_29
REMARK       I    between atoms: N3_11  and  C6_13
REMARK    6  A    between atoms: C6_13  and  C7_15
REMARK    7  A    between atoms: C7_15  and  O2_16
REMARK    8  A    between atoms: O2_16  and  C8_17
REMARK    9  A    between atoms: C8_17  and  C9_19
REMARK       I    between atoms: C17_29  and  N4_31
REMARK   10  A    between atoms: N4_31  and  C18_33
ROOT
HETATM    1  C5  UNL     1      12.800 -26.209  -2.691  1.00  0.00     0.246 C
ENDROOT
BRANCH   1   2
HETATM    2  C4  UNL     1      11.927 -25.305  -3.465  1.00  0.00     0.136 A
HETATM    3  N2  UNL     1      11.716 -25.089  -4.764  1.00  0.00    -0.323 N
HETATM    4  C3  UNL     1      10.840 -24.104  -4.875  1.00  0.00     0.184 A
ATOM      5  H2  UNL     1      12.154 -25.595  -5.535  1.00  0.00     0.169 HD
HETATM    6  O5  UNL     1      10.502 -23.705  -3.652  1.00  0.00    -0.220 OA
HETATM    7  N5  UNL     1      11.142 -24.411  -2.823  1.00  0.00    -0.244 N
ATOM      8  H5  UNL     1      11.075 -24.320  -1.810  1.00  0.00     0.196 HD
BRANCH   4   9
HETATM    9  C2  UNL     1      10.207 -23.402  -6.040  1.00  0.00     0.191 A
HETATM   10  C22 UNL     1       9.004 -24.229  -6.574  1.00  0.00     0.050 A
HETATM   11  C23 UNL     1       8.858 -22.854  -6.031  1.00  0.00     0.050 A
BRANCH   9  12
HETATM   12  N1  UNL     1      11.184 -23.146  -7.086  1.00  0.00    -0.062 N
HETATM   13  C1  UNL     1      10.680 -22.295  -8.133  1.00  0.00     0.268 C
ATOM     14  H12 UNL     1      11.545 -24.019  -7.469  1.00  0.00     0.278 HD
ATOM     15  H11 UNL     1      12.047 -22.766  -6.693  1.00  0.00     0.278 HD
ENDBRANCH   9  12
ENDBRANCH   4   9
ENDBRANCH   1   2
BRANCH   1  16
HETATM   16  N3  UNL     1      13.087 -27.502  -3.142  1.00  0.00    -0.339 N
HETATM   17  C6  UNL     1      12.829 -28.293  -4.256  1.00  0.00     0.254 C
HETATM   18  O1  UNL     1      12.166 -27.888  -5.223  1.00  0.00    -0.270 OA
ATOM     19  H3  UNL     1      13.647 -28.011  -2.457  1.00  0.00     0.163 HD
BRANCH  17  20
HETATM   20  C7  UNL     1      13.358 -29.709  -4.334  1.00  0.00     0.151 A
HETATM   21  C15 UNL     1      13.272 -30.586  -3.121  1.00  0.00     0.052 A
HETATM   22  C16 UNL     1      12.240 -30.712  -4.146  1.00  0.00     0.052 A
BRANCH  20  23
HETATM   23  O2  UNL     1      14.438 -29.950  -5.134  1.00  0.00    -0.296 OA
BRANCH  23  24
HETATM   24  C8  UNL     1      15.608 -30.643  -5.027  1.00  0.00     0.296 C
HETATM   25  O3  UNL     1      15.679 -31.697  -5.698  1.00  0.00    -0.259 OA
BRANCH  24  26
HETATM   26  C9  UNL     1      16.676 -30.133  -4.156  1.00  0.00     0.061 A
HETATM   27  C10 UNL     1      17.027 -28.800  -4.169  1.00  0.00     0.021 A
HETATM   28  C11 UNL     1      17.999 -28.254  -3.372  1.00  0.00     0.025 A
HETATM   29  C12 UNL     1      18.663 -29.099  -2.503  1.00  0.00     0.035 A
HETATM   30 CL1  UNL     1      19.914 -28.383  -1.493  1.00  0.00    -0.084 Cl
HETATM   31  C13 UNL     1      18.344 -30.438  -2.455  1.00  0.00     0.048 A
HETATM   32  C14 UNL     1      17.332 -30.959  -3.297  1.00  0.00     0.051 A
HETATM   33 CL2  UNL     1      16.980 -32.668  -3.168  1.00  0.00    -0.083 Cl
ENDBRANCH  24  26
ENDBRANCH  23  24
ENDBRANCH  20  23
ENDBRANCH  17  20
ENDBRANCH   1  16
BRANCH   1  34
HETATM   34  C17 UNL     1      14.079 -25.405  -2.513  1.00  0.00     0.248 C
HETATM   35  O4  UNL     1      14.358 -24.616  -3.432  1.00  0.00    -0.271 OA
HETATM   36  N4  UNL     1      14.834 -25.595  -1.372  1.00  0.00    -0.354 N
ATOM     37  H4  UNL     1      14.460 -26.289  -0.724  1.00  0.00     0.162 HD
BRANCH  36  38
HETATM   38  C18 UNL     1      16.055 -24.979  -0.950  1.00  0.00     0.084 C
HETATM   39  C19 UNL     1      17.287 -25.786  -0.953  1.00  0.00     0.025 C
HETATM   40  C20 UNL     1      17.588 -25.324   0.444  1.00  0.00     0.004 C
HETATM   41  C21 UNL     1      16.180 -24.801   0.547  1.00  0.00     0.025 C
ENDBRANCH  36  38
ENDBRANCH   1  34
TORSDOF 10
ENDMDL