MODEL 4
REMARK VINA RESULT: -8.283376536      3.329      5.393
REMARK  11 active torsions:
REMARK  status: ('A' for Active; 'I' for Inactive)
REMARK    1  A    between atoms: C2_2  and  S1_4
REMARK    2  A    between atoms: S1_4  and  N1_7
REMARK    3  A    between atoms: N2_10  and  C6_11
REMARK    4  A    between atoms: C6_11  and  O3_12
REMARK    5  A    between atoms: C6_11  and  C7_14
REMARK    6  A    between atoms: C7_14  and  N3_15
REMARK    7  A    between atoms: N3_15  and  C8_17
REMARK    8  A    between atoms: C8_17  and  O4_18
REMARK    9  A    between atoms: C8_17  and  C9_20
REMARK   10  A    between atoms: C11_22  and  O5_23
REMARK   11  A    between atoms: N4_25  and  C12_26
ROOT
HETATM    1  N3  UNL     1      17.574 -29.164  -3.223  1.00  0.00    -0.389 N
ATOM      2  H3  UNL     1      18.148 -29.867  -3.689  1.00  0.00     0.156 HD
ENDROOT
BRANCH   1   3
HETATM    3  C7  UNL     1      16.166 -29.316  -3.069  1.00  0.00     0.180 C
BRANCH   3   4
HETATM    4  C6  UNL     1      15.420 -28.964  -4.299  1.00  0.00     0.374 C
BRANCH   4   5
HETATM    5  N2  UNL     1      14.303 -28.082  -4.072  1.00  0.00     0.128 N
HETATM    6  C5  UNL     1      13.053 -28.534  -4.597  1.00  0.00     0.321 C
HETATM    7  C4  UNL     1      11.997 -27.479  -4.465  1.00  0.00     0.109 C
HETATM    8  N1  UNL     1      12.241 -26.442  -3.578  1.00  0.00    -0.248 N
HETATM    9  C20 UNL     1      13.328 -26.432  -2.704  1.00  0.00     0.213 C
HETATM   10  C19 UNL     1      14.084 -27.765  -2.674  1.00  0.00     0.343 C
HETATM   11  C21 UNL     1      14.393 -25.392  -3.032  1.00  0.00     0.080 C
HETATM   12  F1  UNL     1      12.908 -26.200  -1.408  1.00  0.00    -0.217 F
BRANCH   8  13
HETATM   13  S1  UNL     1      11.276 -25.093  -3.740  1.00  0.00     0.238 S
HETATM   14  O1  UNL     1       9.870 -25.370  -4.186  1.00  0.00    -0.205 OA
HETATM   15  O2  UNL     1      11.273 -24.288  -2.448  1.00  0.00    -0.205 OA
BRANCH  13  16
HETATM   16  C2  UNL     1      11.980 -23.990  -4.974  1.00  0.00     0.121 C
HETATM   17  C1  UNL     1      10.858 -23.787  -5.999  1.00  0.00     0.027 C
HETATM   18  C3  UNL     1      12.177 -22.658  -4.289  1.00  0.00     0.027 C
ENDBRANCH  13  16
ENDBRANCH   8  13
ENDBRANCH   4   5
BRANCH   4  19
HETATM   19  O3  UNL     1      16.155 -28.438  -5.341  1.00  0.00    -0.366 OA
ATOM     20  H3  UNL     1      16.581 -29.164  -5.782  1.00  0.00     0.212 HD
ENDBRANCH   4  19
ENDBRANCH   3   4
ENDBRANCH   1   3
BRANCH   1  21
HETATM   21  C8  UNL     1      18.130 -27.970  -2.683  1.00  0.00     0.249 C
BRANCH  21  22
HETATM   22  O4  UNL     1      17.487 -27.733  -1.449  1.00  0.00    -0.373 OA
ATOM     23  H4  UNL     1      17.988 -27.065  -0.996  1.00  0.00     0.212 HD
ENDBRANCH  21  22
BRANCH  21  24
HETATM   24  C9  UNL     1      19.574 -28.192  -2.319  1.00  0.00     0.010 A
HETATM   25  C10 UNL     1      20.320 -27.362  -1.528  1.00  0.00     0.069 A
HETATM   26  C11 UNL     1      21.586 -27.932  -1.459  1.00  0.00     0.147 A
HETATM   27  N4  UNL     1      21.630 -29.059  -2.170  1.00  0.00    -0.302 N
HETATM   28  C18 UNL     1      20.395 -29.227  -2.703  1.00  0.00     0.111 A
BRANCH  26  29
HETATM   29  O5  UNL     1      22.637 -27.361  -0.729  1.00  0.00    -0.346 OA
ATOM     30  H5  UNL     1      23.360 -27.870  -0.384  1.00  0.00     0.219 HD
ENDBRANCH  26  29
BRANCH  27  31
HETATM   31  C12 UNL     1      22.757 -29.917  -2.339  1.00  0.00     0.044 A
HETATM   32  C13 UNL     1      23.019 -30.426  -3.590  1.00  0.00     0.054 A
HETATM   33  C14 UNL     1      24.099 -31.258  -3.815  1.00  0.00     0.037 A
HETATM   34 CL1  UNL     1      24.425 -31.900  -5.412  1.00  0.00    -0.084 Cl
HETATM   35  C15 UNL     1      24.939 -31.596  -2.779  1.00  0.00     0.048 A
HETATM   36  C16 UNL     1      24.678 -31.086  -1.521  1.00  0.00     0.037 A
HETATM   37 CL2  UNL     1      25.757 -31.522  -0.202  1.00  0.00    -0.084 Cl
HETATM   38  C17 UNL     1      23.602 -30.259  -1.308  1.00  0.00     0.054 A
ENDBRANCH  27  31
ENDBRANCH  21  24
ENDBRANCH   1  21
TORSDOF 11
ENDMDL