MODEL 1
REMARK VINA RESULT: -8.118660044      0.000      0.000
REMARK  11 active torsions:
REMARK  status: ('A' for Active; 'I' for Inactive)
REMARK    1  A    between atoms: C2_2  and  C4_4
REMARK    2  A    between atoms: C4_4  and  C5_5
REMARK    3  A    between atoms: C5_5  and  N1_6
REMARK    4  A    between atoms: C5_5  and  C10_14
REMARK       I    between atoms: N1_6  and  C6_8
REMARK    5  A    between atoms: C6_8  and  O2_10
REMARK    6  A    between atoms: O2_10  and  C7_11
REMARK    7  A    between atoms: C10_14  and  O3_15
REMARK    8  A    between atoms: C10_14  and  C11_17
REMARK    9  A    between atoms: C13_20  and  O5_22
REMARK   10  A    between atoms: N2_25  and  S1_26
REMARK   11  A    between atoms: S1_26  and  C16_29
ROOT
HETATM    1  C11 UNL     1      15.417 -28.691  -3.007  1.00  0.00     0.241 C
HETATM    2  O4  UNL     1      14.401 -28.305  -3.900  1.00  0.00    -0.364 OA
HETATM    3  C12 UNL     1      13.353 -29.181  -3.774  1.00  0.00     0.208 C
HETATM    4  C13 UNL     1      13.793 -30.497  -4.327  1.00  0.00     0.088 C
HETATM    5  C14 UNL     1      13.183 -30.615  -5.732  1.00  0.00     0.049 C
HETATM    6  C15 UNL     1      15.272 -30.626  -4.473  1.00  0.00     0.150 C
HETATM    7  N2  UNL     1      16.073 -29.815  -3.633  1.00  0.00    -0.173 NA
ENDROOT
BRANCH   1   8
HETATM    8  C10 UNL     1      16.332 -27.544  -2.891  1.00  0.00     0.185 C
BRANCH   8   9
HETATM    9  C5  UNL     1      15.974 -26.394  -2.019  1.00  0.00     0.119 C
BRANCH   9  10
HETATM   10  C4  UNL     1      16.957 -25.398  -1.622  1.00  0.00     0.032 C
BRANCH  10  11
HETATM   11  C2  UNL     1      17.203 -25.032  -0.222  1.00  0.00    -0.021 C
HETATM   12  C1  UNL     1      17.368 -26.190   0.732  1.00  0.00     0.009 C
HETATM   13  C3  UNL     1      15.946 -24.300   0.336  1.00  0.00     0.009 C
ENDBRANCH  10  11
ENDBRANCH   9  10
BRANCH   9  14
HETATM   14  N1  UNL     1      14.981 -25.633  -2.854  1.00  0.00    -0.330 N
HETATM   15  C6  UNL     1      13.642 -25.486  -2.463  1.00  0.00     0.361 C
HETATM   16  O1  UNL     1      13.258 -26.000  -1.392  1.00  0.00    -0.238 OA
ATOM     17  H1  UNL     1      15.291 -25.212  -3.730  1.00  0.00     0.165 HD
BRANCH  15  18
HETATM   18  O2  UNL     1      12.732 -24.788  -3.228  1.00  0.00    -0.299 OA
BRANCH  18  19
HETATM   19  C7  UNL     1      11.360 -25.040  -3.274  1.00  0.00     0.125 C
HETATM   20  C8  UNL     1      11.062 -26.105  -4.318  1.00  0.00     0.040 C
HETATM   21  C9  UNL     1      10.549 -23.808  -3.618  1.00  0.00     0.040 C
ENDBRANCH  18  19
ENDBRANCH  15  18
ENDBRANCH   9  14
ENDBRANCH   8   9
BRANCH   8  22
HETATM   22  O3  UNL     1      16.420 -27.029  -4.232  1.00  0.00    -0.390 OA
ATOM     23  H3  UNL     1      16.148 -27.733  -4.810  1.00  0.00     0.210 HD
ENDBRANCH   8  22
ENDBRANCH   1   8
BRANCH   7  24
HETATM   24  S1  UNL     1      17.052 -30.773  -2.647  1.00  0.00     0.246 S
HETATM   25  O6  UNL     1      16.540 -30.961  -1.250  1.00  0.00    -0.206 OA
HETATM   26  O7  UNL     1      17.274 -32.167  -3.196  1.00  0.00    -0.206 OA
BRANCH  24  27
HETATM   27  C16 UNL     1      18.642 -30.016  -2.513  1.00  0.00     0.078 A
HETATM   28  C17 UNL     1      18.761 -28.772  -1.903  1.00  0.00     0.051 A
HETATM   29  C18 UNL     1      19.996 -28.196  -1.821  1.00  0.00     0.075 A
HETATM   30 CL1  UNL     1      20.215 -26.621  -1.064  1.00  0.00    -0.081 Cl
HETATM   31  C19 UNL     1      21.082 -28.866  -2.347  1.00  0.00     0.159 A
HETATM   32  F1  UNL     1      22.322 -28.297  -2.268  1.00  0.00    -0.203 F
HETATM   33  C20 UNL     1      20.986 -30.091  -2.951  1.00  0.00     0.075 A
HETATM   34 CL2  UNL     1      22.394 -30.921  -3.610  1.00  0.00    -0.081 Cl
HETATM   35  C21 UNL     1      19.735 -30.661  -3.026  1.00  0.00     0.051 A
ENDBRANCH  24  27
ENDBRANCH   7  24
BRANCH   4  36
HETATM   36  O5  UNL     1      13.204 -31.511  -3.563  1.00  0.00    -0.387 OA
ATOM     37  H5  UNL     1      13.407 -32.345  -3.969  1.00  0.00     0.210 HD
ENDBRANCH   4  36
TORSDOF 11
ENDMDL