MODEL 4
REMARK VINA RESULT: -8.440654264      1.988      2.399
REMARK  10 active torsions:
REMARK  status: ('A' for Active; 'I' for Inactive)
REMARK    1  A    between atoms: C2_2  and  C4_4
REMARK    2  A    between atoms: C6_6  and  N1_7
REMARK    3  A    between atoms: N1_7  and  C7_9
REMARK    4  A    between atoms: C9_15  and  N4_16
REMARK    5  A    between atoms: C12_19  and  N5_20
REMARK    6  A    between atoms: N6_23  and  C15_24
REMARK    7  A    between atoms: C15_24  and  C16_25
REMARK    8  A    between atoms: C16_25  and  O1_26
REMARK    9  A    between atoms: C16_25  and  C17_28
REMARK   10  A    between atoms: C17_28  and  O2_29
ROOT
HETATM    1  C7  UNL     1      23.861 -29.637   0.055  1.00  0.00     0.150 A
HETATM    2  N2  UNL     1      24.075 -29.156   1.274  1.00  0.00    -0.336 N
ATOM      3  H2  UNL     1      24.774 -29.592   1.875  1.00  0.00     0.168 HD
HETATM    4  C8  UNL     1      23.362 -28.079   1.730  1.00  0.00     0.183 A
HETATM    5  N3  UNL     1      22.450 -27.495   0.974  1.00  0.00    -0.336 N
ATOM      6  H3  UNL     1      21.936 -26.696   1.348  1.00  0.00     0.168 HD
HETATM    7  C9  UNL     1      22.171 -27.929  -0.298  1.00  0.00     0.147 A
HETATM    8  C22 UNL     1      22.889 -28.999  -0.742  1.00  0.00     0.204 A
HETATM    9  F1  UNL     1      22.694 -29.493  -1.973  1.00  0.00    -0.198 F
ENDROOT
BRANCH   7  10
HETATM   10  N4  UNL     1      21.202 -27.242  -1.056  1.00  0.00    -0.364 N
HETATM   11  C10 UNL     1      20.536 -27.675  -2.239  1.00  0.00     0.126 C
HETATM   12  C11 UNL     1      19.056 -27.816  -2.023  1.00  0.00     0.055 C
HETATM   13  C12 UNL     1      18.550 -27.139  -0.793  1.00  0.00     0.226 C
HETATM   14  C20 UNL     1      19.278 -25.909  -0.365  1.00  0.00     0.055 C
HETATM   15  C21 UNL     1      20.755 -25.913  -0.564  1.00  0.00     0.126 C
BRANCH  13  16
HETATM   16  N5  UNL     1      17.151 -26.842  -1.013  1.00  0.00     0.096 N
HETATM   17  C13 UNL     1      16.581 -27.522  -2.132  1.00  0.00     0.292 C
HETATM   18  C14 UNL     1      15.642 -26.719  -2.950  1.00  0.00     0.147 C
HETATM   19  N6  UNL     1      14.859 -25.735  -2.270  1.00  0.00    -0.407 N
HETATM   20  C18 UNL     1      15.330 -25.319  -1.016  1.00  0.00     0.147 C
HETATM   21  C19 UNL     1      16.866 -25.426  -1.050  1.00  0.00     0.292 C
BRANCH  19  22
HETATM   22  C15 UNL     1      13.462 -25.874  -2.476  1.00  0.00     0.150 C
BRANCH  22  23
HETATM   23  C16 UNL     1      12.761 -24.589  -2.816  1.00  0.00     0.159 C
BRANCH  23  24
HETATM   24  O1  UNL     1      13.186 -23.990  -3.982  1.00  0.00    -0.392 OA
ATOM     25  H1  UNL     1      12.873 -23.102  -4.112  1.00  0.00     0.210 HD
ENDBRANCH  23  24
BRANCH  23  26
HETATM   26  C17 UNL     1      11.278 -24.831  -2.865  1.00  0.00     0.197 C
BRANCH  26  27
HETATM   27  O2  UNL     1      10.965 -25.994  -3.580  1.00  0.00    -0.398 OA
ATOM     28  H2  UNL     1      10.259 -26.480  -3.172  1.00  0.00     0.209 HD
ENDBRANCH  26  27
ENDBRANCH  23  26
ENDBRANCH  22  23
ENDBRANCH  19  22
ENDBRANCH  13  16
ENDBRANCH   7  10
BRANCH   1  29
HETATM   29  N1  UNL     1      24.484 -30.680  -0.437  1.00  0.00    -0.340 N
ATOM     30  H1  UNL     1      24.143 -31.619  -0.229  1.00  0.00     0.167 HD
BRANCH  29  31
HETATM   31  C6  UNL     1      25.639 -30.507  -1.262  1.00  0.00     0.036 A
HETATM   32  C5  UNL     1      26.843 -30.175  -0.689  1.00  0.00     0.043 A
HETATM   33  C4  UNL     1      28.020 -30.099  -1.437  1.00  0.00    -0.009 A
HETATM   34  C25 UNL     1      27.955 -30.364  -2.811  1.00  0.00     0.066 A
HETATM   35  C24 UNL     1      26.740 -30.684  -3.359  1.00  0.00     0.058 A
HETATM   36 CL2  UNL     1      29.377 -30.262  -3.818  1.00  0.00    -0.082 Cl
HETATM   37  C23 UNL     1      25.592 -30.759  -2.617  1.00  0.00     0.055 A
HETATM   38 CL1  UNL     1      26.663 -31.004  -5.097  1.00  0.00    -0.082 Cl
BRANCH  33  39
HETATM   39  C2  UNL     1      29.360 -29.898  -0.830  1.00  0.00    -0.076 C
HETATM   40  C1  UNL     1      29.655 -30.739   0.370  1.00  0.00     0.044 C
HETATM   41  C3  UNL     1      29.875 -28.513  -0.880  1.00  0.00     0.044 C
ENDBRANCH  33  39
ENDBRANCH  29  31
ENDBRANCH   1  29
TORSDOF 10
ENDMDL