MODEL 2
REMARK VINA RESULT: -9.176701153      1.383      1.616
REMARK  9 active torsions:
REMARK  status: ('A' for Active; 'I' for Inactive)
REMARK    1  A    between atoms: C1_2  and  C2_3
REMARK       I    between atoms: C1_2  and  N2_20
REMARK    2  A    between atoms: C2_3  and  O2_4
REMARK    3  A    between atoms: O2_4  and  C3_5
REMARK    4  A    between atoms: C3_5  and  C4_7
REMARK    5  A    between atoms: C4_7  and  N1_8
REMARK       I    between atoms: N1_8  and  C5_10
REMARK    6  A    between atoms: C5_10  and  C6_12
REMARK    7  A    between atoms: N2_20  and  C12_22
REMARK    8  A    between atoms: C14_24  and  C15_25
REMARK    9  A    between atoms: C18_31  and  N3_32
ROOT
HETATM    1  O1  UNL     1      13.122 -28.449  -5.583  1.00  0.00    -0.271 OA
HETATM    2  C1  UNL     1      12.757 -28.690  -4.406  1.00  0.00     0.246 C
HETATM    3  N2  UNL     1      12.176 -27.692  -3.621  1.00  0.00    -0.323 N
ATOM      4  H2  UNL     1      11.925 -27.923  -2.659  1.00  0.00     0.169 HD
ENDROOT
BRANCH   2   5
HETATM    5  C2  UNL     1      12.980 -30.081  -3.933  1.00  0.00     0.281 C
BRANCH   5   6
HETATM    6  O2  UNL     1      13.699 -30.935  -4.677  1.00  0.00    -0.311 OA
BRANCH   6   7
HETATM    7  C3  UNL     1      14.991 -31.410  -4.604  1.00  0.00     0.277 C
HETATM    8  O3  UNL     1      15.134 -32.556  -4.149  1.00  0.00    -0.263 OA
BRANCH   7   9
HETATM    9  C4  UNL     1      16.108 -30.553  -5.059  1.00  0.00     0.233 C
BRANCH   9  10
HETATM   10  N1  UNL     1      16.967 -30.073  -4.025  1.00  0.00    -0.348 N
HETATM   11  C5  UNL     1      16.915 -28.697  -3.709  1.00  0.00     0.252 C
HETATM   12  O4  UNL     1      16.112 -27.936  -4.348  1.00  0.00    -0.268 OA
ATOM     13  H1  UNL     1      17.598 -30.703  -3.530  1.00  0.00     0.163 HD
BRANCH  11  14
HETATM   14  C6  UNL     1      17.737 -28.081  -2.679  1.00  0.00     0.035 A
HETATM   15  C7  UNL     1      19.092 -28.412  -2.621  1.00  0.00     0.041 A
HETATM   16  C8  UNL     1      19.907 -27.846  -1.644  1.00  0.00     0.036 A
HETATM   17 CL1  UNL     1      21.611 -28.276  -1.575  1.00  0.00    -0.084 Cl
HETATM   18  C9  UNL     1      19.408 -26.958  -0.727  1.00  0.00     0.043 A
HETATM   19  C10 UNL     1      18.078 -26.631  -0.783  1.00  0.00     0.013 A
HETATM   20 BR1  UNL     1      17.364 -25.417   0.473  1.00  0.00    -0.051 Br
HETATM   21  C11 UNL     1      17.266 -27.189  -1.747  1.00  0.00     0.036 A
ENDBRANCH  11  14
ENDBRANCH   9  10
ENDBRANCH   7   9
ENDBRANCH   6   7
ENDBRANCH   5   6
ENDBRANCH   2   5
BRANCH   3  22
HETATM   22  C12 UNL     1      11.916 -26.379  -4.078  1.00  0.00     0.069 A
HETATM   23  C13 UNL     1      10.917 -26.130  -5.011  1.00  0.00     0.052 A
HETATM   24  C14 UNL     1      10.612 -24.813  -5.356  1.00  0.00     0.064 A
HETATM   25  C16 UNL     1      11.248 -23.719  -4.824  1.00  0.00     0.053 A
HETATM   26 CL2  UNL     1      10.822 -22.081  -5.300  1.00  0.00    -0.083 Cl
HETATM   27  C17 UNL     1      12.235 -23.970  -3.903  1.00  0.00     0.063 A
HETATM   28  C18 UNL     1      12.558 -25.298  -3.540  1.00  0.00     0.131 A
BRANCH  24  29
HETATM   29  C15 UNL     1       9.539 -24.569  -6.339  1.00  0.00     0.211 C
HETATM   30  O5  UNL     1       9.328 -23.456  -6.866  1.00  0.00    -0.644 OA
HETATM   31  O6  UNL     1       8.723 -25.625  -6.691  1.00  0.00    -0.644 OA
ENDBRANCH  24  29
BRANCH  28  32
HETATM   32  N3  UNL     1      13.602 -25.412  -2.592  1.00  0.00    -0.113 N
HETATM   33  O7  UNL     1      13.346 -25.802  -1.450  1.00  0.00    -0.532 OA
HETATM   34  O8  UNL     1      14.894 -25.132  -2.950  1.00  0.00    -0.532 OA
ENDBRANCH  28  32
ENDBRANCH   3  22
TORSDOF 9
ENDMDL