MODEL 3
REMARK VINA RESULT: -8.563135781      3.311      6.578
REMARK  10 active torsions:
REMARK  status: ('A' for Active; 'I' for Inactive)
REMARK    1  A    between atoms: C2_2  and  N1_3
REMARK    2  A    between atoms: N1_3  and  C3_4
REMARK       I    between atoms: N1_3  and  C5_6
REMARK    3  A    between atoms: C5_6  and  C6_8
REMARK    4  A    between atoms: N2_10  and  C8_11
REMARK    5  A    between atoms: C8_11  and  C9_12
REMARK    6  A    between atoms: C22_25  and  C23_26
REMARK    7  A    between atoms: N3_29  and  C24_30
REMARK    8  A    between atoms: C24_30  and  C25_31
REMARK    9  A    between atoms: C25_31  and  O4_32
REMARK   10  A    between atoms: N4_34  and  O5_36
ROOT
HETATM    1  C6  UNL     1      16.233 -29.859  -2.312  1.00  0.00     0.056 A
HETATM    2  C7  UNL     1      17.303 -29.118  -1.826  1.00  0.00     0.108 A
HETATM    3  N2  UNL     1      17.115 -27.816  -2.130  1.00  0.00    -0.357 N
HETATM    4  C19 UNL     1      15.965 -27.716  -2.790  1.00  0.00     0.032 A
HETATM    5  C20 UNL     1      15.407 -28.966  -2.912  1.00  0.00    -0.015 A
HETATM    6  C21 UNL     1      14.126 -29.082  -3.619  1.00  0.00     0.072 C
HETATM    7  C22 UNL     1      13.216 -27.896  -3.471  1.00  0.00     0.168 C
HETATM    8  N3  UNL     1      13.845 -26.648  -3.341  1.00  0.00    -0.268 NA
HETATM    9  C27 UNL     1      15.258 -26.577  -3.358  1.00  0.00     0.153 C
ENDROOT
BRANCH   3  10
HETATM   10  C8  UNL     1      18.066 -26.790  -1.757  1.00  0.00     0.138 C
BRANCH  10  11
HETATM   11  C9  UNL     1      18.052 -26.424  -0.315  1.00  0.00    -0.023 C
HETATM   12  C10 UNL     1      18.409 -27.519   0.629  1.00  0.00     0.015 C
HETATM   13  C11 UNL     1      18.421 -26.974   2.039  1.00  0.00    -0.013 C
HETATM   14  C12 UNL     1      19.466 -25.884   2.207  1.00  0.00     0.009 C
HETATM   15  C16 UNL     1      17.100 -26.387   2.447  1.00  0.00     0.009 C
HETATM   16  C13 UNL     1      19.113 -24.768   1.255  1.00  0.00    -0.013 C
HETATM   17  C14 UNL     1      17.753 -24.172   1.552  1.00  0.00     0.009 C
HETATM   18  C18 UNL     1      19.081 -25.298  -0.147  1.00  0.00     0.015 C
HETATM   19  C15 UNL     1      16.744 -25.282   1.478  1.00  0.00    -0.013 C
HETATM   20  C17 UNL     1      16.700 -25.875   0.096  1.00  0.00     0.015 C
ENDBRANCH  10  11
ENDBRANCH   3  10
BRANCH   1  21
HETATM   21  C5  UNL     1      16.066 -31.309  -2.176  1.00  0.00     0.255 C
HETATM   22  N1  UNL     1      16.093 -32.216  -3.249  1.00  0.00    -0.349 N
HETATM   23  O1  UNL     1      15.883 -31.778  -1.000  1.00  0.00    -0.267 OA
BRANCH  22  24
HETATM   24  C2  UNL     1      15.924 -33.623  -3.015  1.00  0.00     0.121 C
HETATM   25  C1  UNL     1      16.270 -34.470  -4.210  1.00  0.00     0.026 C
ENDBRANCH  22  24
BRANCH  22  26
HETATM   26  C3  UNL     1      16.285 -31.732  -4.595  1.00  0.00     0.121 C
HETATM   27  C4  UNL     1      15.051 -31.697  -5.429  1.00  0.00     0.026 C
ENDBRANCH  22  26
ENDBRANCH   1  21
BRANCH   8  28
HETATM   28  C24 UNL     1      13.381 -25.844  -2.259  1.00  0.00     0.118 C
BRANCH  28  29
HETATM   29  C25 UNL     1      12.384 -24.831  -2.544  1.00  0.00     0.170 C
HETATM   30  N4  UNL     1      12.534 -23.966  -3.516  1.00  0.00    -0.245 N
ATOM     31  H4  UNL     1      13.369 -23.987  -4.102  1.00  0.00     0.196 HD
BRANCH  29  32
HETATM   32  O4  UNL     1      11.228 -24.769  -1.767  1.00  0.00    -0.344 OA
ATOM     33  H4  UNL     1      10.816 -23.927  -1.609  1.00  0.00     0.219 HD
ENDBRANCH  29  32
BRANCH  30  34
HETATM   34  O5  UNL     1      11.541 -23.020  -3.738  1.00  0.00    -0.283 OA
HETATM   35  C26 UNL     1      11.356 -22.463  -5.024  1.00  0.00     0.237 C
ENDBRANCH  30  34
ENDBRANCH  28  29
ENDBRANCH   8  28
BRANCH   7  36
HETATM   36  C23 UNL     1      12.340 -27.916  -4.668  1.00  0.00     0.192 C
HETATM   37  O2  UNL     1      11.206 -27.399  -4.599  1.00  0.00    -0.647 OA
HETATM   38  O3  UNL     1      12.749 -28.489  -5.851  1.00  0.00    -0.647 OA
ENDBRANCH   7  36
TORSDOF 10
ENDMDL