MODEL 3
REMARK VINA RESULT: -9.496747038      0.967      1.274
REMARK  8 active torsions:
REMARK  status: ('A' for Active; 'I' for Inactive)
REMARK    1  A    between atoms: C3_8  and  C4_9
REMARK    2  A    between atoms: C4_9  and  N3_10
REMARK    3  A    between atoms: C7_13  and  C8_14
REMARK    4  A    between atoms: C8_14  and  C9_15
REMARK    5  A    between atoms: C9_15  and  N4_16
REMARK    6  A    between atoms: N4_16  and  C10_18
REMARK    7  A    between atoms: C15_23  and  C16_24
REMARK    8  A    between atoms: C16_24  and  C19_27
ROOT
HETATM    1  C9  UNL     1      18.007 -29.322  -2.511  1.00  0.00     0.116 C
ENDROOT
BRANCH   1   2
HETATM    2  C8  UNL     1      16.481 -29.406  -2.665  1.00  0.00     0.026 C
BRANCH   2   3
HETATM    3  C7  UNL     1      16.104 -29.935  -4.014  1.00  0.00     0.018 C
HETATM    4  C6  UNL     1      15.387 -28.892  -4.829  1.00  0.00     0.037 C
HETATM    5  C5  UNL     1      14.038 -28.514  -4.324  1.00  0.00     0.273 C
HETATM    6  N3  UNL     1      12.934 -29.243  -4.848  1.00  0.00     0.096 N
HETATM    7  C26 UNL     1      12.478 -30.202  -3.854  1.00  0.00     0.304 C
HETATM    8  C25 UNL     1      13.365 -31.395  -3.825  1.00  0.00     0.152 A
HETATM    9  C24 UNL     1      14.359 -31.497  -4.930  1.00  0.00     0.066 A
HETATM   10  O5  UNL     1      14.382 -31.162  -2.870  1.00  0.00    -0.378 OA
HETATM   11  C23 UNL     1      15.353 -31.211  -3.856  1.00  0.00     0.128 A
BRANCH   6  12
HETATM   12  C4  UNL     1      11.806 -28.447  -5.199  1.00  0.00     0.333 C
BRANCH  12  13
HETATM   13  C3  UNL     1      11.711 -27.244  -4.364  1.00  0.00     0.086 A
HETATM   14  C2  UNL     1      10.910 -26.128  -4.609  1.00  0.00     0.057 A
HETATM   15  C1  UNL     1       9.987 -25.959  -5.775  1.00  0.00     0.072 C
HETATM   16  N1  UNL     1      11.138 -25.272  -3.612  1.00  0.00    -0.244 N
HETATM   17  O1  UNL     1      12.011 -25.813  -2.812  1.00  0.00    -0.157 OA
ATOM     18  H1  UNL     1      10.705 -24.356  -3.497  1.00  0.00     0.196 HD
HETATM   19  N2  UNL     1      12.354 -26.970  -3.243  1.00  0.00    -0.242 N
ATOM     20  H2  UNL     1      13.024 -27.589  -2.788  1.00  0.00     0.196 HD
ENDBRANCH  12  13
ENDBRANCH   6  12
ENDBRANCH   2   3
ENDBRANCH   1   2
BRANCH   1  21
HETATM   21  N4  UNL     1      18.312 -27.921  -2.433  1.00  0.00    -0.401 N
ATOM     22  H4  UNL     1      18.369 -27.326  -3.260  1.00  0.00     0.155 HD
BRANCH  21  23
HETATM   23  C10 UNL     1      18.528 -27.422  -1.115  1.00  0.00     0.180 C
HETATM   24  C11 UNL     1      17.400 -26.552  -0.591  1.00  0.00     0.065 C
HETATM   25  C12 UNL     1      18.066 -25.983   0.656  1.00  0.00     0.044 C
HETATM   26  C13 UNL     1      18.197 -27.034   1.731  1.00  0.00     0.020 C
HETATM   27  C21 UNL     1      17.365 -24.778   1.179  1.00  0.00     0.020 C
HETATM   28  C22 UNL     1      19.429 -25.674   0.106  1.00  0.00     0.228 C
HETATM   29  C14 UNL     1      18.510 -26.362   3.076  1.00  0.00     0.007 C
HETATM   30  C15 UNL     1      17.254 -25.697   3.526  1.00  0.00     0.004 C
HETATM   31  C20 UNL     1      16.517 -25.044   2.404  1.00  0.00     0.007 C
HETATM   32  O4  UNL     1      20.201 -24.797   0.535  1.00  0.00    -0.273 OA
HETATM   33  N5  UNL     1      19.659 -26.563  -0.979  1.00  0.00    -0.340 N
ATOM     34  H5  UNL     1      20.494 -26.583  -1.564  1.00  0.00     0.164 HD
BRANCH  30  35
HETATM   35  C16 UNL     1      17.407 -24.782   4.709  1.00  0.00     0.045 C
HETATM   36  C17 UNL     1      17.601 -25.538   6.004  1.00  0.00     0.027 C
HETATM   37  C18 UNL     1      18.668 -23.955   4.485  1.00  0.00     0.027 C
BRANCH  35  38
HETATM   38  C19 UNL     1      16.302 -23.840   4.880  1.00  0.00     0.181 C
HETATM   39  O2  UNL     1      16.471 -22.625   4.666  1.00  0.00    -0.647 OA
HETATM   40  O3  UNL     1      15.066 -24.295   5.278  1.00  0.00    -0.647 OA
ENDBRANCH  35  38
ENDBRANCH  30  35
ENDBRANCH  21  23
ENDBRANCH   1  21
TORSDOF 8
ENDMDL