MODEL 1
REMARK VINA RESULT: -8.814833224      0.000      0.000
REMARK  8 active torsions:
REMARK  status: ('A' for Active; 'I' for Inactive)
REMARK    1  A    between atoms: C4_4  and  C5_5
REMARK    2  A    between atoms: C5_5  and  C6_6
REMARK    3  A    between atoms: C6_6  and  N1_7
REMARK    4  A    between atoms: C9_10  and  O1_11
REMARK    5  A    between atoms: C9_10  and  C10_13
REMARK    6  A    between atoms: C10_13  and  N2_14
REMARK    7  A    between atoms: N2_14  and  S1_16
REMARK    8  A    between atoms: S1_16  and  C11_19
ROOT
HETATM    1  C1  UNL     1      13.872 -25.048  -1.659  1.00  0.00     0.046 C
HETATM    2  C2  UNL     1      14.091 -26.366  -2.276  1.00  0.00    -0.058 C
HETATM    3  C3  UNL     1      15.358 -26.822  -2.410  1.00  0.00     0.028 C
HETATM    4  C4  UNL     1      16.385 -25.935  -1.919  1.00  0.00     0.004 C
HETATM    5  N3  UNL     1      15.720 -28.045  -3.029  1.00  0.00    -0.375 N
HETATM    6  C15 UNL     1      17.127 -28.276  -3.050  1.00  0.00     0.123 C
HETATM    7  C16 UNL     1      17.419 -29.488  -2.194  1.00  0.00     0.020 C
HETATM    8  C17 UNL     1      16.746 -30.661  -2.755  1.00  0.00     0.009 C
HETATM    9  C18 UNL     1      15.282 -30.460  -3.078  1.00  0.00     0.019 C
HETATM   10  C19 UNL     1      14.913 -31.671  -3.874  1.00  0.00     0.087 C
HETATM   11  S2  UNL     1      13.639 -31.445  -5.109  1.00  0.00    -0.116 SA
HETATM   12  C20 UNL     1      13.115 -29.743  -5.110  1.00  0.00     0.046 C
HETATM   13  N4  UNL     1      12.429 -29.286  -6.063  1.00  0.00    -0.397 N
ATOM     14  H41 UNL     1      12.129 -28.311  -6.064  1.00  0.00     0.156 HD
ATOM     15  H42 UNL     1      12.126 -29.819  -6.878  1.00  0.00     0.156 HD
HETATM   16  C21 UNL     1      13.561 -28.958  -3.910  1.00  0.00     0.065 C
HETATM   17  C22 UNL     1      13.035 -27.569  -4.135  1.00  0.00     0.018 C
HETATM   18  C23 UNL     1      12.836 -27.044  -2.700  1.00  0.00     0.037 C
HETATM   19  C24 UNL     1      14.983 -29.132  -3.683  1.00  0.00     0.099 C
ENDROOT
BRANCH   4  20
HETATM   20  C5  UNL     1      17.122 -26.198  -0.675  1.00  0.00     0.059 C
BRANCH  20  21
HETATM   21  C6  UNL     1      17.233 -24.832   0.045  1.00  0.00     0.276 C
BRANCH  21  22
HETATM   22  N1  UNL     1      18.065 -24.880   1.202  1.00  0.00     0.091 N
HETATM   23  C7  UNL     1      17.924 -23.746   2.080  1.00  0.00     0.275 C
HETATM   24  C8  UNL     1      17.650 -24.307   3.484  1.00  0.00     0.071 C
HETATM   25  C9  UNL     1      16.819 -25.521   3.106  1.00  0.00     0.102 C
HETATM   26  C14 UNL     1      17.634 -26.063   1.954  1.00  0.00     0.311 C
BRANCH  25  27
HETATM   27  O1  UNL     1      15.576 -25.039   2.720  1.00  0.00    -0.386 OA
ATOM     28  H1  UNL     1      15.489 -25.235   1.795  1.00  0.00     0.210 HD
ENDBRANCH  25  27
BRANCH  25  29
HETATM   29  C10 UNL     1      16.722 -26.511   4.235  1.00  0.00     0.171 C
BRANCH  29  30
HETATM   30  N2  UNL     1      15.438 -26.527   4.862  1.00  0.00    -0.316 N
ATOM     31  H2  UNL     1      14.558 -26.782   4.414  1.00  0.00     0.172 HD
BRANCH  30  32
HETATM   32  S1  UNL     1      15.629 -26.040   6.507  1.00  0.00     0.230 S
HETATM   33  O2  UNL     1      14.550 -26.644   7.341  1.00  0.00    -0.206 OA
HETATM   34  O3  UNL     1      16.996 -26.487   6.988  1.00  0.00    -0.206 OA
BRANCH  32  35
HETATM   35  C11 UNL     1      15.609 -24.254   6.626  1.00  0.00     0.129 A
HETATM   36  C12 UNL     1      14.533 -23.520   5.831  1.00  0.00     0.023 A
HETATM   37  C13 UNL     1      14.437 -23.637   7.328  1.00  0.00     0.023 A
ENDBRANCH  32  35
ENDBRANCH  30  32
ENDBRANCH  29  30
ENDBRANCH  25  29
ENDBRANCH  21  22
ENDBRANCH  20  21
ENDBRANCH   4  20
TORSDOF 8
ENDMDL