MODEL 1
REMARK VINA RESULT: -7.416222593      0.000      0.000
REMARK  11 active torsions:
REMARK  status: ('A' for Active; 'I' for Inactive)
REMARK    1  A    between atoms: C2_2  and  O2_4
REMARK    2  A    between atoms: O2_4  and  C3_5
REMARK    3  A    between atoms: C3_5  and  C4_6
REMARK    4  A    between atoms: C4_6  and  C6_8
REMARK    5  A    between atoms: C4_6  and  O4_12
REMARK    6  A    between atoms: C6_8  and  C7_9
REMARK    7  A    between atoms: O4_12  and  C8_13
REMARK    8  A    between atoms: C20_25  and  C21_26
REMARK    9  A    between atoms: C21_26  and  C22_28
REMARK   10  A    between atoms: C22_28  and  O6_29
REMARK   11  A    between atoms: C26_34  and  O7_35
ROOT
HETATM    1  C8  UNL     1      17.164 -26.823  -1.829  1.00  0.00     0.123 C
HETATM    2  C9  UNL     1      18.232 -27.855  -1.558  1.00  0.00     0.033 C
HETATM    3  C10 UNL     1      18.459 -28.037  -0.041  1.00  0.00     0.012 C
HETATM    4  C11 UNL     1      19.302 -26.858   0.411  1.00  0.00    -0.034 C
HETATM    5  C12 UNL     1      20.635 -27.077  -0.336  1.00  0.00     0.016 C
HETATM    6  C13 UNL     1      18.677 -25.646  -0.206  1.00  0.00    -0.004 C
HETATM    7  C14 UNL     1      18.710 -24.390   0.588  1.00  0.00     0.006 C
HETATM    8  C15 UNL     1      19.936 -24.418   1.510  1.00  0.00     0.006 C
HETATM    9  C16 UNL     1      19.598 -25.485   2.498  1.00  0.00    -0.003 C
HETATM   10  C17 UNL     1      20.467 -25.526   3.694  1.00  0.00    -0.001 C
HETATM   11  C18 UNL     1      21.931 -25.460   3.369  1.00  0.00     0.006 C
HETATM   12  C19 UNL     1      22.608 -26.569   4.100  1.00  0.00     0.013 C
HETATM   13  C20 UNL     1      21.527 -27.452   4.705  1.00  0.00     0.066 C
HETATM   14  C23 UNL     1      20.238 -26.726   4.575  1.00  0.00    -0.027 C
HETATM   15  C24 UNL     1      19.810 -26.141   5.908  1.00  0.00     0.016 C
HETATM   16  C25 UNL     1      19.159 -27.658   4.154  1.00  0.00     0.042 C
HETATM   17  C26 UNL     1      18.693 -27.647   2.748  1.00  0.00     0.124 C
HETATM   18  C27 UNL     1      19.591 -26.832   1.843  1.00  0.00     0.027 C
HETATM   19  C28 UNL     1      17.234 -25.870  -0.606  1.00  0.00     0.037 C
ENDROOT
BRANCH   1  20
HETATM   20  O4  UNL     1      15.935 -27.434  -1.855  1.00  0.00    -0.373 OA
BRANCH  20  21
HETATM   21  C4  UNL     1      15.201 -27.212  -3.022  1.00  0.00     0.087 C
HETATM   22  C5  UNL     1      15.811 -26.024  -3.712  1.00  0.00     0.049 C
BRANCH  21  23
HETATM   23  C3  UNL     1      15.352 -28.407  -3.953  1.00  0.00     0.216 C
BRANCH  23  24
HETATM   24  O2  UNL     1      14.323 -29.345  -3.703  1.00  0.00    -0.319 OA
BRANCH  24  25
HETATM   25  C2  UNL     1      14.624 -30.609  -3.210  1.00  0.00     0.254 C
HETATM   26  C1  UNL     1      15.804 -30.969  -2.419  1.00  0.00     0.126 C
HETATM   27  O1  UNL     1      13.783 -31.520  -3.486  1.00  0.00    -0.266 OA
ENDBRANCH  24  25
ENDBRANCH  23  24
ENDBRANCH  21  23
BRANCH  21  28
HETATM   28  C6  UNL     1      13.745 -27.008  -2.803  1.00  0.00     0.139 C
BRANCH  28  29
HETATM   29  C7  UNL     1      13.400 -25.748  -2.119  1.00  0.00     0.234 C
HETATM   30  N1  UNL     1      12.463 -24.874  -2.720  1.00  0.00    -0.062 NA
HETATM   31  O3  UNL     1      13.907 -25.402  -1.000  1.00  0.00    -0.277 OA
ENDBRANCH  28  29
ENDBRANCH  21  28
ENDBRANCH  20  21
ENDBRANCH   1  20
BRANCH  17  32
HETATM   32  O7  UNL     1      17.404 -27.066   2.759  1.00  0.00    -0.395 OA
ATOM     33  H7  UNL     1      17.422 -26.361   2.123  1.00  0.00     0.210 HD
ENDBRANCH  17  32
BRANCH  13  34
HETATM   34  C21 UNL     1      21.993 -27.863   6.019  1.00  0.00     0.154 C
HETATM   35  O5  UNL     1      22.544 -27.139   6.801  1.00  0.00    -0.295 OA
BRANCH  34  36
HETATM   36  C22 UNL     1      21.812 -29.277   6.506  1.00  0.00     0.242 C
BRANCH  36  37
HETATM   37  O6  UNL     1      21.226 -30.008   5.486  1.00  0.00    -0.394 OA
ATOM     38  H6  UNL     1      20.370 -30.293   5.784  1.00  0.00     0.209 HD
ENDBRANCH  36  37
ENDBRANCH  34  36
ENDBRANCH  13  34
TORSDOF 11
ENDMDL