MODEL 5
REMARK VINA RESULT: -7.209386862      3.192      8.457
REMARK  11 active torsions:
REMARK  status: ('A' for Active; 'I' for Inactive)
REMARK    1  A    between atoms: C2_2  and  C3_3
REMARK    2  A    between atoms: C11_11  and  C12_12
REMARK    3  A    between atoms: C11_11  and  C15_17
REMARK    4  A    between atoms: C12_12  and  O1_13
REMARK    5  A    between atoms: O1_13  and  C13_14
REMARK    6  A    between atoms: C24_28  and  O5_29
REMARK    7  A    between atoms: O5_29  and  C25_30
REMARK    8  A    between atoms: C25_30  and  C26_32
REMARK    9  A    between atoms: C26_32  and  O7_33
REMARK   10  A    between atoms: C26_32  and  N1_35
REMARK   11  A    between atoms: N1_35  and  C27_37
ROOT
HETATM    1  C3  UNL     1      17.872 -25.956   0.791  1.00  0.00     0.000 C
HETATM    2  C4  UNL     1      17.424 -26.369   2.191  1.00  0.00     0.022 C
HETATM    3  C5  UNL     1      16.710 -26.115  -0.116  1.00  0.00     0.022 C
HETATM    4  C6  UNL     1      17.032 -26.690  -1.506  1.00  0.00     0.003 C
HETATM    5  C7  UNL     1      17.886 -27.879  -1.448  1.00  0.00    -0.037 C
HETATM    6  C8  UNL     1      19.055 -27.918  -2.412  1.00  0.00     0.015 C
HETATM    7  C9  UNL     1      17.123 -29.213  -1.535  1.00  0.00     0.011 C
HETATM    8  C10 UNL     1      16.923 -29.454  -2.963  1.00  0.00     0.024 C
HETATM    9  C11 UNL     1      15.473 -29.075  -3.257  1.00  0.00     0.074 C
HETATM   10  C16 UNL     1      15.015 -27.848  -2.608  1.00  0.00     0.015 C
HETATM   11  C17 UNL     1      13.705 -27.486  -3.273  1.00  0.00     0.007 C
HETATM   12  C18 UNL     1      12.900 -26.534  -2.363  1.00  0.00     0.000 C
HETATM   13  C19 UNL     1      13.713 -25.251  -2.550  1.00  0.00     0.001 C
HETATM   14  C20 UNL     1      15.012 -25.533  -1.873  1.00  0.00     0.010 C
HETATM   15  C21 UNL     1      15.857 -26.672  -2.438  1.00  0.00    -0.035 C
HETATM   16  C22 UNL     1      16.285 -26.085  -3.798  1.00  0.00     0.016 C
HETATM   17  C23 UNL     1      18.578 -28.043  -0.079  1.00  0.00     0.043 C
HETATM   18  C24 UNL     1      19.084 -26.730   0.342  1.00  0.00     0.144 C
ENDROOT
BRANCH  18  19
HETATM   19  O5  UNL     1      20.119 -26.749   1.287  1.00  0.00    -0.311 OA
BRANCH  19  20
HETATM   20  C25 UNL     1      21.436 -26.988   0.971  1.00  0.00     0.308 C
HETATM   21  O6  UNL     1      21.714 -27.032  -0.245  1.00  0.00    -0.260 OA
BRANCH  20  22
HETATM   22  C26 UNL     1      22.507 -27.190   1.975  1.00  0.00     0.315 C
BRANCH  22  23
HETATM   23  O7  UNL     1      23.308 -28.266   1.610  1.00  0.00    -0.368 OA
ATOM     24  H7  UNL     1      22.864 -28.798   0.960  1.00  0.00     0.212 HD
ENDBRANCH  22  23
BRANCH  22  25
HETATM   25  N1  UNL     1      21.884 -27.477   3.229  1.00  0.00    -0.389 N
ATOM     26  H1  UNL     1      21.450 -28.379   3.425  1.00  0.00     0.156 HD
BRANCH  25  27
HETATM   27  C27 UNL     1      21.907 -26.421   4.190  1.00  0.00     0.112 C
HETATM   28  C28 UNL     1      20.566 -25.961   4.655  1.00  0.00     0.026 C
ENDBRANCH  25  27
ENDBRANCH  22  25
ENDBRANCH  20  22
ENDBRANCH  19  20
ENDBRANCH  18  19
BRANCH   1  29
HETATM   29  C2  UNL     1      18.358 -24.555   0.950  1.00  0.00    -0.025 C
HETATM   30  C1  UNL     1      18.160 -23.815   2.033  1.00  0.00     0.008 C
ENDBRANCH   1  29
BRANCH   9  31
HETATM   31  C12 UNL     1      15.349 -29.278  -4.719  1.00  0.00     0.199 C
BRANCH  31  32
HETATM   32  O1  UNL     1      15.934 -30.419  -5.280  1.00  0.00    -0.320 OA
BRANCH  32  33
HETATM   33  C13 UNL     1      15.212 -31.576  -5.360  1.00  0.00     0.254 C
HETATM   34  C14 UNL     1      15.842 -32.841  -4.923  1.00  0.00     0.126 C
HETATM   35  O2  UNL     1      14.030 -31.531  -5.806  1.00  0.00    -0.266 OA
ENDBRANCH  32  33
ENDBRANCH  31  32
ENDBRANCH   9  31
BRANCH   9  36
HETATM   36  C15 UNL     1      14.689 -30.222  -2.640  1.00  0.00     0.184 C
HETATM   37  O3  UNL     1      15.191 -31.097  -1.926  1.00  0.00    -0.647 OA
HETATM   38  O4  UNL     1      13.314 -30.317  -2.874  1.00  0.00    -0.647 OA
ENDBRANCH   9  36
TORSDOF 11
ENDMDL