MODEL 4
REMARK VINA RESULT: -7.070939660      1.240      1.483
REMARK  10 active torsions:
REMARK  status: ('A' for Active; 'I' for Inactive)
REMARK    1  A    between atoms: C2_2  and  C4_4
REMARK    2  A    between atoms: C4_4  and  C5_6
REMARK    3  A    between atoms: C5_6  and  C6_7
REMARK    4  A    between atoms: C8_10  and  C9_11
REMARK    5  A    between atoms: C9_11  and  N1_12
REMARK    6  A    between atoms: N1_12  and  C10_14
REMARK    7  A    between atoms: C10_14  and  C11_15
REMARK    8  A    between atoms: C11_15  and  O3_16
REMARK    9  A    between atoms: C17_22  and  O4_23
REMARK   10  A    between atoms: C25_33  and  O6_34
ROOT
HETATM    1  C6  UNL     1      17.560 -27.069  -1.620  1.00  0.00     0.075 C
HETATM    2  C7  UNL     1      18.719 -27.888  -1.317  1.00  0.00     0.142 C
HETATM    3  O2  UNL     1      18.953 -29.058  -1.203  1.00  0.00    -0.297 OA
HETATM    4  C8  UNL     1      19.767 -26.800  -1.139  1.00  0.00     0.103 C
HETATM    5  C13 UNL     1      19.043 -25.875  -0.250  1.00  0.00    -0.053 C
HETATM    6  C14 UNL     1      19.515 -25.691   1.145  1.00  0.00    -0.041 C
HETATM    7  C15 UNL     1      19.646 -26.843   2.051  1.00  0.00     0.040 C
HETATM    8  C16 UNL     1      19.223 -26.657   3.482  1.00  0.00     0.044 C
HETATM    9  C17 UNL     1      19.325 -25.307   4.060  1.00  0.00     0.078 C
HETATM   10  C18 UNL     1      20.326 -25.197   5.224  1.00  0.00     0.086 C
HETATM   11  C19 UNL     1      19.937 -26.203   6.286  1.00  0.00     0.021 C
HETATM   12  C20 UNL     1      20.045 -23.843   5.835  1.00  0.00     0.133 C
HETATM   13  O5  UNL     1      20.471 -23.698   6.972  1.00  0.00    -0.297 OA
HETATM   14  C21 UNL     1      19.320 -22.773   5.131  1.00  0.00     0.080 C
HETATM   15  C22 UNL     1      19.411 -22.829   3.642  1.00  0.00     0.023 C
HETATM   16  C23 UNL     1      19.675 -24.224   3.096  1.00  0.00     0.023 C
HETATM   17  C24 UNL     1      21.180 -24.255   2.893  1.00  0.00     0.022 C
HETATM   18  C25 UNL     1      18.945 -24.432   1.755  1.00  0.00     0.092 C
HETATM   19  C26 UNL     1      17.512 -24.258   1.792  1.00  0.00     0.043 C
HETATM   20  C27 UNL     1      16.525 -25.338   1.633  1.00  0.00     0.004 C
HETATM   21  C28 UNL     1      16.719 -26.400   0.639  1.00  0.00     0.014 C
HETATM   22  C29 UNL     1      17.576 -26.038  -0.524  1.00  0.00    -0.009 C
HETATM   23  C30 UNL     1      16.926 -24.788  -1.136  1.00  0.00     0.021 C
ENDROOT
BRANCH   4  24
HETATM   24  C9  UNL     1      21.092 -27.301  -0.865  1.00  0.00     0.130 C
BRANCH  24  25
HETATM   25  N1  UNL     1      21.632 -28.100  -1.950  1.00  0.00    -0.418 N
ATOM     26  H1  UNL     1      21.456 -27.881  -2.931  1.00  0.00     0.153 HD
BRANCH  25  27
HETATM   27  C10 UNL     1      22.427 -29.212  -1.545  1.00  0.00     0.140 C
BRANCH  27  28
HETATM   28  C11 UNL     1      22.029 -30.479  -2.314  1.00  0.00     0.186 C
BRANCH  28  29
HETATM   29  O3  UNL     1      23.159 -31.247  -2.485  1.00  0.00    -0.394 OA
HETATM   30  C12 UNL     1      23.565 -31.365  -3.790  1.00  0.00     0.201 C
ENDBRANCH  28  29
ENDBRANCH  27  28
ENDBRANCH  25  27
ENDBRANCH  24  25
ENDBRANCH   4  24
BRANCH   1  31
HETATM   31  C5  UNL     1      16.282 -27.733  -1.908  1.00  0.00     0.096 C
BRANCH  31  32
HETATM   32  C4  UNL     1      15.522 -27.159  -3.037  1.00  0.00     0.155 C
HETATM   33  O1  UNL     1      16.067 -26.793  -4.087  1.00  0.00    -0.293 OA
BRANCH  32  34
HETATM   34  C2  UNL     1      14.090 -27.010  -2.938  1.00  0.00    -0.025 C
HETATM   35  C1  UNL     1      13.231 -27.811  -3.541  1.00  0.00     0.022 C
HETATM   36  C3  UNL     1      13.542 -25.886  -2.106  1.00  0.00     0.051 C
ENDBRANCH  32  34
ENDBRANCH  31  32
ENDBRANCH   1  31
BRANCH  18  37
HETATM   37  O6  UNL     1      19.492 -23.329   1.031  1.00  0.00    -0.384 OA
ATOM     38  H6  UNL     1      20.192 -23.670   0.486  1.00  0.00     0.211 HD
ENDBRANCH  18  37
BRANCH   9  39
HETATM   39  O4  UNL     1      18.103 -25.041   4.732  1.00  0.00    -0.388 OA
ATOM     40  H4  UNL     1      18.124 -25.516   5.555  1.00  0.00     0.210 HD
ENDBRANCH   9  39
TORSDOF 10
ENDMDL