MODEL 3
REMARK VINA RESULT: -8.164927261      1.379      3.780
REMARK  13 active torsions:
REMARK  status: ('A' for Active; 'I' for Inactive)
REMARK    1  A    between atoms: C2_2  and  C4_4
REMARK    2  A    between atoms: C4_4  and  O1_5
REMARK    3  A    between atoms: C4_4  and  C10_14
REMARK    4  A    between atoms: O1_5  and  C5_6
REMARK       I    between atoms: C5_6  and  N1_8
REMARK    5  A    between atoms: N1_8  and  C6_10
REMARK       I    between atoms: C10_14  and  N2_16
REMARK    6  A    between atoms: N2_16  and  C11_18
REMARK    7  A    between atoms: C11_18  and  C12_19
REMARK    8  A    between atoms: C11_18  and  C22_34
REMARK    9  A    between atoms: C12_19  and  N3_20
REMARK   10  A    between atoms: C15_23  and  N4_24
REMARK       I    between atoms: N4_24  and  C16_26
REMARK   11  A    between atoms: C16_26  and  O5_28
REMARK   12  A    between atoms: O5_28  and  C17_29
REMARK   13  A    between atoms: C22_34  and  C23_36
ROOT
HETATM    1  C11 UNL     1      17.050 -29.214  -2.845  1.00  0.00     0.183 C
ENDROOT
BRANCH   1   2
HETATM    2  N2  UNL     1      18.247 -29.075  -1.988  1.00  0.00    -0.346 N
HETATM    3  C10 UNL     1      19.388 -28.387  -2.385  1.00  0.00     0.248 C
HETATM    4  O3  UNL     1      19.432 -27.853  -3.512  1.00  0.00    -0.271 OA
ATOM      5  H2  UNL     1      18.236 -29.505  -1.063  1.00  0.00     0.163 HD
BRANCH   3   6
HETATM    6  C4  UNL     1      20.587 -28.244  -1.557  1.00  0.00     0.228 C
BRANCH   6   7
HETATM    7  C2  UNL     1      21.535 -29.414  -1.568  1.00  0.00     0.016 C
HETATM    8  C1  UNL     1      22.919 -29.041  -1.106  1.00  0.00     0.012 C
HETATM    9  C3  UNL     1      21.585 -30.277  -2.746  1.00  0.00     0.012 C
ENDBRANCH   6   7
BRANCH   6  10
HETATM   10  O1  UNL     1      20.265 -27.921  -0.195  1.00  0.00    -0.289 OA
BRANCH  10  11
HETATM   11  C5  UNL     1      19.590 -26.754   0.114  1.00  0.00     0.362 C
HETATM   12  O2  UNL     1      20.178 -25.677  -0.220  1.00  0.00    -0.238 OA
HETATM   13  N1  UNL     1      18.344 -26.713   0.754  1.00  0.00    -0.329 N
ATOM     14  H1  UNL     1      17.885 -27.586   1.013  1.00  0.00     0.165 HD
BRANCH  13  15
HETATM   15  C6  UNL     1      17.700 -25.455   1.052  1.00  0.00     0.024 C
HETATM   16  C7  UNL     1      17.031 -24.832  -0.154  1.00  0.00     0.037 C
HETATM   17  C8  UNL     1      18.705 -24.512   1.700  1.00  0.00     0.037 C
HETATM   18  C9  UNL     1      16.581 -25.649   2.082  1.00  0.00     0.037 C
ENDBRANCH  13  15
ENDBRANCH  10  11
ENDBRANCH   6  10
ENDBRANCH   3   6
ENDBRANCH   1   2
BRANCH   1  19
HETATM   19  C12 UNL     1      16.199 -28.027  -2.526  1.00  0.00     0.305 C
BRANCH  19  20
HETATM   20  N3  UNL     1      15.513 -27.439  -3.639  1.00  0.00     0.092 N
HETATM   21  C13 UNL     1      15.364 -26.013  -3.374  1.00  0.00     0.274 C
HETATM   22  C14 UNL     1      14.256 -25.962  -2.380  1.00  0.00     0.057 C
HETATM   23  C15 UNL     1      13.277 -27.010  -2.926  1.00  0.00     0.116 C
HETATM   24  C21 UNL     1      14.139 -27.860  -3.789  1.00  0.00     0.297 C
BRANCH  23  25
HETATM   25  N4  UNL     1      12.205 -26.329  -3.633  1.00  0.00    -0.331 N
HETATM   26  C16 UNL     1      11.397 -25.326  -3.009  1.00  0.00     0.361 C
HETATM   27  O4  UNL     1      11.613 -25.015  -1.785  1.00  0.00    -0.238 OA
ATOM     28  H4  UNL     1      12.023 -26.574  -4.606  1.00  0.00     0.165 HD
BRANCH  26  29
HETATM   29  O5  UNL     1      10.396 -24.669  -3.661  1.00  0.00    -0.294 OA
BRANCH  29  30
HETATM   30  C17 UNL     1      10.518 -23.645  -4.606  1.00  0.00     0.061 C
HETATM   31  C18 UNL     1       9.291 -22.755  -4.495  1.00  0.00     0.046 C
HETATM   32  C19 UNL     1      11.746 -22.776  -4.420  1.00  0.00     0.046 C
HETATM   33  C20 UNL     1      10.573 -24.171  -6.022  1.00  0.00     0.046 C
ENDBRANCH  29  30
ENDBRANCH  26  29
ENDBRANCH  23  25
ENDBRANCH  19  20
ENDBRANCH   1  19
BRANCH   1  34
HETATM   34  C22 UNL     1      16.409 -30.521  -2.560  1.00  0.00     0.158 C
HETATM   35  O6  UNL     1      16.473 -30.957  -1.426  1.00  0.00    -0.295 OA
BRANCH  34  36
HETATM   36  C23 UNL     1      15.714 -31.317  -3.551  1.00  0.00     0.012 C
HETATM   37  C24 UNL     1      15.772 -30.771  -4.950  1.00  0.00     0.022 C
HETATM   38  C25 UNL     1      16.235 -32.760  -3.603  1.00  0.00     0.022 C
HETATM   39  C26 UNL     1      14.215 -31.364  -3.203  1.00  0.00     0.022 C
ENDBRANCH  34  36
ENDBRANCH   1  34
TORSDOF 13
ENDMDL