MODEL 3
REMARK VINA RESULT: -8.934855614      1.535      1.975
REMARK  13 active torsions:
REMARK  status: ('A' for Active; 'I' for Inactive)
REMARK    1  A    between atoms: C2_2  and  C3_3
REMARK    2  A    between atoms: C4_4  and  O1_5
REMARK    3  A    between atoms: C5_7  and  N1_8
REMARK    4  A    between atoms: N1_8  and  C6_9
REMARK    5  A    between atoms: C6_9  and  O2_10
REMARK    6  A    between atoms: C6_9  and  N2_12
REMARK    7  A    between atoms: N2_12  and  N3_14
REMARK    8  A    between atoms: N4_19  and  C10_20
REMARK    9  A    between atoms: N6_32  and  C20_33
REMARK   10  A    between atoms: C20_33  and  C21_34
REMARK   11  A    between atoms: C21_34  and  N7_35
REMARK   12  A    between atoms: N7_35  and  C22_36
REMARK   13  A    between atoms: N7_35  and  C24_38
ROOT
HETATM    1  C6  UNL     1      17.855 -25.557  -0.088  1.00  0.00     0.315 C
ENDROOT
BRANCH   1   2
HETATM    2  N1  UNL     1      16.917 -25.896  -0.872  1.00  0.00    -0.341 NA
BRANCH   2   3
HETATM    3  C5  UNL     1      16.036 -26.289  -1.592  1.00  0.00     0.232 A
HETATM    4  C4  UNL     1      16.313 -27.253  -2.606  1.00  0.00     0.137 A
HETATM    5  C3  UNL     1      15.354 -27.780  -3.412  1.00  0.00     0.049 A
HETATM    6  C26 UNL     1      14.054 -27.333  -3.212  1.00  0.00     0.271 A
HETATM    7  N6  UNL     1      13.777 -26.425  -2.266  1.00  0.00    -0.253 N
HETATM    8  O3  UNL     1      13.160 -27.818  -3.957  1.00  0.00    -0.266 OA
HETATM    9  N5  UNL     1      14.715 -25.926  -1.494  1.00  0.00    -0.267 N
ATOM     10  H5  UNL     1      14.450 -25.238  -0.790  1.00  0.00     0.190 HD
BRANCH   4  11
HETATM   11  O1  UNL     1      17.628 -27.648  -2.751  1.00  0.00    -0.356 OA
ATOM     12  H1  UNL     1      18.025 -27.665  -3.614  1.00  0.00     0.218 HD
ENDBRANCH   4  11
BRANCH   5  13
HETATM   13  C2  UNL     1      15.703 -28.779  -4.464  1.00  0.00     0.043 C
HETATM   14  C1  UNL     1      15.707 -30.184  -3.892  1.00  0.00     0.010 C
ENDBRANCH   5  13
BRANCH   7  15
HETATM   15  C20 UNL     1      12.407 -26.006  -2.069  1.00  0.00     0.183 C
BRANCH  15  16
HETATM   16  C21 UNL     1      12.254 -24.729  -2.893  1.00  0.00     0.294 C
BRANCH  16  17
HETATM   17  N7  UNL     1      10.946 -24.561  -3.427  1.00  0.00     0.089 N
BRANCH  17  18
HETATM   18  C22 UNL     1      10.427 -25.799  -4.002  1.00  0.00     0.268 C
HETATM   19  C23 UNL     1      10.066 -25.592  -5.432  1.00  0.00     0.037 C
ENDBRANCH  17  18
BRANCH  17  20
HETATM   20  C24 UNL     1      10.899 -23.518  -4.459  1.00  0.00     0.268 C
HETATM   21  C25 UNL     1      11.999 -22.513  -4.338  1.00  0.00     0.037 C
ENDBRANCH  17  20
ENDBRANCH  16  17
ENDBRANCH  15  16
ENDBRANCH   7  15
ENDBRANCH   2   3
ENDBRANCH   1   2
BRANCH   1  22
HETATM   22  O2  UNL     1      17.874 -24.293   0.346  1.00  0.00    -0.320 OA
ATOM     23  H2  UNL     1      18.436 -24.089   1.085  1.00  0.00     0.222 HD
ENDBRANCH   1  22
BRANCH   1  24
HETATM   24  N2  UNL     1      18.952 -26.364   0.437  1.00  0.00    -0.253 N
ATOM     25  H2  UNL     1      19.014 -26.630   1.419  1.00  0.00     0.191 HD
BRANCH  24  26
HETATM   26  N3  UNL     1      19.899 -26.741  -0.492  1.00  0.00    -0.303 N
HETATM   27  C7  UNL     1      21.016 -27.204  -0.272  1.00  0.00     0.033 C
HETATM   28  C8  UNL     1      21.755 -27.520   0.967  1.00  0.00     0.086 C
HETATM   29  C19 UNL     1      21.947 -27.658  -1.380  1.00  0.00     0.327 C
HETATM   30  C9  UNL     1      22.933 -28.414   0.488  1.00  0.00     0.279 C
HETATM   31  N4  UNL     1      22.359 -28.947  -0.719  1.00  0.00     0.098 N
ATOM     32  H3  UNL     1      19.644 -26.622  -1.472  1.00  0.00     0.186 HD
BRANCH  31  33
HETATM   33  C10 UNL     1      23.271 -29.588  -1.647  1.00  0.00     0.223 C
HETATM   34  C11 UNL     1      24.007 -30.737  -1.049  1.00  0.00     0.036 C
HETATM   35  C12 UNL     1      25.369 -31.001  -1.581  1.00  0.00     0.002 C
HETATM   36  C13 UNL     1      25.936 -30.094  -2.609  1.00  0.00     0.000 C
HETATM   37  C14 UNL     1      25.471 -30.153  -3.990  1.00  0.00     0.000 C
HETATM   38  C15 UNL     1      24.798 -31.384  -4.464  1.00  0.00     0.000 C
HETATM   39  C16 UNL     1      23.345 -31.088  -4.783  1.00  0.00     0.000 C
HETATM   40  C17 UNL     1      22.579 -31.261  -3.466  1.00  0.00     0.002 C
HETATM   41  C18 UNL     1      22.334 -29.999  -2.773  1.00  0.00     0.036 C
ENDBRANCH  31  33
ENDBRANCH  24  26
ENDBRANCH   1  24
TORSDOF 13
ENDMDL