MODEL 2
REMARK VINA RESULT: -8.423244910      1.200      1.411
REMARK  8 active torsions:
REMARK  status: ('A' for Active; 'I' for Inactive)
REMARK    1  A    between atoms: O1_2  and  C2_3
REMARK    2  A    between atoms: C2_3  and  C3_5
REMARK    3  A    between atoms: C6_8  and  N1_9
REMARK    4  A    between atoms: C7_11  and  C8_12
REMARK    5  A    between atoms: C8_12  and  C9_13
REMARK    6  A    between atoms: C9_13  and  C10_14
REMARK    7  A    between atoms: C10_14  and  C11_15
REMARK    8  A    between atoms: C23_31  and  O5_32
ROOT
HETATM    1  C3  UNL     1      19.200 -26.441   2.467  1.00  0.00     0.090 C
HETATM    2  C4  UNL     1      18.870 -27.511   1.494  1.00  0.00     0.026 C
HETATM    3  C5  UNL     1      19.256 -27.558   0.086  1.00  0.00     0.027 C
HETATM    4  C6  UNL     1      18.260 -27.074  -0.990  1.00  0.00     0.085 C
HETATM    5  C14 UNL     1      17.487 -25.994  -0.370  1.00  0.00     0.008 C
HETATM    6  C15 UNL     1      16.172 -25.504  -0.853  1.00  0.00     0.009 C
HETATM    7  C16 UNL     1      15.759 -24.529   0.270  1.00  0.00     0.027 C
HETATM    8  C17 UNL     1      16.227 -24.873   1.638  1.00  0.00     0.169 C
HETATM    9  O4  UNL     1      17.359 -24.841   2.154  1.00  0.00    -0.375 OA
HETATM   10  C18 UNL     1      18.607 -25.058   2.215  1.00  0.00     0.096 C
HETATM   11  C19 UNL     1      19.221 -24.653   0.857  1.00  0.00     0.044 C
HETATM   12  C20 UNL     1      18.321 -24.780  -0.288  1.00  0.00     0.010 C
HETATM   13  C21 UNL     1      19.210 -24.005   3.143  1.00  0.00     0.011 C
HETATM   14  C22 UNL     1      19.346 -24.114   4.548  1.00  0.00     0.017 C
HETATM   15  C23 UNL     1      19.127 -25.313   5.348  1.00  0.00     0.136 C
HETATM   16  C24 UNL     1      18.038 -26.134   4.739  1.00  0.00     0.061 C
HETATM   17  C25 UNL     1      18.784 -27.019   3.808  1.00  0.00    -0.014 C
HETATM   18  C26 UNL     1      17.871 -28.242   3.709  1.00  0.00     0.017 C
HETATM   19  C27 UNL     1      19.908 -27.429   4.695  1.00  0.00     0.092 C
HETATM   20  C28 UNL     1      20.234 -26.265   5.521  1.00  0.00     0.165 C
HETATM   21  O6  UNL     1      21.235 -26.151   6.203  1.00  0.00    -0.294 OA
ENDROOT
BRANCH   4  22
HETATM   22  N1  UNL     1      17.629 -28.092  -1.705  1.00  0.00    -0.394 N
HETATM   23  C7  UNL     1      17.286 -28.049  -3.025  1.00  0.00     0.083 C
ATOM     24  H1  UNL     1      17.404 -28.946  -1.195  1.00  0.00     0.159 HD
BRANCH  23  25
HETATM   25  C8  UNL     1      16.521 -29.199  -3.555  1.00  0.00     0.016 C
BRANCH  25  26
HETATM   26  C9  UNL     1      15.269 -29.134  -4.264  1.00  0.00    -0.002 C
BRANCH  26  27
HETATM   27  C10 UNL     1      13.980 -28.664  -3.817  1.00  0.00    -0.011 C
BRANCH  27  28
HETATM   28  C11 UNL     1      12.688 -29.283  -4.140  1.00  0.00     0.118 C
HETATM   29  C12 UNL     1      12.429 -29.188  -5.681  1.00  0.00     0.140 C
HETATM   30  N2  UNL     1      11.844 -30.505  -5.525  1.00  0.00    -0.359 N
HETATM   31  C13 UNL     1      12.792 -30.759  -4.503  1.00  0.00     0.227 C
ATOM     32  H2  UNL     1      11.083 -31.024  -5.961  1.00  0.00     0.162 HD
HETATM   33  O3  UNL     1      13.405 -31.769  -4.121  1.00  0.00    -0.273 OA
ENDBRANCH  27  28
ENDBRANCH  26  27
ENDBRANCH  25  26
ENDBRANCH  23  25
ENDBRANCH   4  22
BRANCH   1  34
HETATM   34  C2  UNL     1      20.704 -26.409   2.445  1.00  0.00     0.271 C
HETATM   35  O2  UNL     1      21.397 -27.502   2.404  1.00  0.00    -0.264 OA
BRANCH  34  36
HETATM   36  O1  UNL     1      21.556 -25.366   2.462  1.00  0.00    -0.326 OA
HETATM   37  C1  UNL     1      22.800 -25.250   3.056  1.00  0.00     0.213 C
ENDBRANCH  34  36
ENDBRANCH   1  34
BRANCH  15  38
HETATM   38  O5  UNL     1      18.716 -24.996   6.671  1.00  0.00    -0.378 OA
ATOM     39  H5  UNL     1      19.322 -25.337   7.319  1.00  0.00     0.211 HD
ENDBRANCH  15  38
TORSDOF 8
ENDMDL