MODEL 4
REMARK VINA RESULT: -7.885907101      3.681      6.670
REMARK  10 active torsions:
REMARK  status: ('A' for Active; 'I' for Inactive)
REMARK    1  A    between atoms: O1_2  and  C2_3
REMARK    2  A    between atoms: C2_3  and  C3_4
REMARK    3  A    between atoms: C3_4  and  C4_5
REMARK    4  A    between atoms: C4_5  and  C5_6
REMARK    5  A    between atoms: C5_6  and  C6_7
REMARK    6  A    between atoms: C6_7  and  C7_8
REMARK    7  A    between atoms: C7_8  and  N1_9
REMARK    8  A    between atoms: N1_9  and  C8_11
REMARK    9  A    between atoms: C17_26  and  O4_27
REMARK   10  A    between atoms: C18_30  and  C19_31
ROOT
HETATM    1  C2  UNL     1      18.015 -25.414   1.602  1.00  0.00     0.211 C
HETATM    2  O3  UNL     1      18.032 -26.794   1.840  1.00  0.00    -0.325 OA
HETATM    3  C12 UNL     1      18.783 -27.320   2.801  1.00  0.00     0.227 C
HETATM    4  C13 UNL     1      17.790 -28.277   3.556  1.00  0.00     0.056 C
HETATM    5  C14 UNL     1      17.086 -27.267   4.477  1.00  0.00     0.029 C
HETATM    6  C15 UNL     1      18.037 -26.101   4.582  1.00  0.00     0.088 C
HETATM    7  C16 UNL     1      17.562 -24.820   4.047  1.00  0.00     0.063 C
HETATM    8  C17 UNL     1      17.261 -24.657   2.613  1.00  0.00     0.186 C
HETATM    9  N4  UNL     1      19.185 -26.562   3.895  1.00  0.00    -0.362 N
HETATM   10  C18 UNL     1      20.437 -26.334   4.341  1.00  0.00     0.071 C
ENDROOT
BRANCH   1  11
HETATM   11  O1  UNL     1      19.317 -24.931   1.499  1.00  0.00    -0.355 OA
HETATM   12  C1  UNL     1      19.417 -23.560   1.356  1.00  0.00     0.206 C
ENDBRANCH   1  11
BRANCH   1  13
HETATM   13  C3  UNL     1      17.375 -25.321   0.256  1.00  0.00     0.039 C
BRANCH  13  14
HETATM   14  C4  UNL     1      17.362 -26.392  -0.726  1.00  0.00    -0.025 C
BRANCH  14  15
HETATM   15  C5  UNL     1      16.336 -26.497  -1.790  1.00  0.00     0.028 C
BRANCH  15  16
HETATM   16  C6  UNL     1      16.668 -27.744  -2.644  1.00  0.00     0.024 C
BRANCH  16  17
HETATM   17  C7  UNL     1      15.832 -27.808  -3.879  1.00  0.00     0.138 C
BRANCH  17  18
HETATM   18  N1  UNL     1      15.464 -29.199  -4.137  1.00  0.00    -0.226 N
ATOM     19  H1  UNL     1      16.168 -29.922  -3.994  1.00  0.00     0.177 HD
BRANCH  18  20
HETATM   20  C8  UNL     1      14.302 -29.550  -4.532  1.00  0.00     0.680 A
HETATM   21  N2  UNL     1      13.825 -30.768  -4.309  1.00  0.00    -0.202 N
HETATM   22  C9  UNL     1      12.568 -31.072  -4.756  1.00  0.00     0.111 A
ATOM     23  H2  UNL     1      14.385 -31.462  -3.814  1.00  0.00     0.183 HD
HETATM   24  C10 UNL     1      11.797 -30.142  -5.427  1.00  0.00     0.092 A
HETATM   25  C11 UNL     1      12.326 -28.874  -5.646  1.00  0.00     0.260 A
HETATM   26  O2  UNL     1      11.618 -28.036  -6.258  1.00  0.00    -0.268 OA
HETATM   27  N3  UNL     1      13.551 -28.633  -5.190  1.00  0.00    -0.156 N
ATOM     28  H3  UNL     1      13.949 -27.706  -5.344  1.00  0.00     0.187 HD
ENDBRANCH  18  20
ENDBRANCH  17  18
ENDBRANCH  16  17
ENDBRANCH  15  16
ENDBRANCH  14  15
ENDBRANCH  13  14
ENDBRANCH   1  13
BRANCH   8  29
HETATM   29  O4  UNL     1      15.877 -24.707   2.453  1.00  0.00    -0.390 OA
ATOM     30  H4  UNL     1      15.387 -24.294   3.155  1.00  0.00     0.210 HD
ENDBRANCH   8  29
BRANCH  10  31
HETATM   31  C19 UNL     1      21.298 -27.394   4.943  1.00  0.00    -0.007 C
HETATM   32  C20 UNL     1      20.605 -28.618   5.409  1.00  0.00     0.019 C
HETATM   33  C21 UNL     1      21.654 -29.674   5.762  1.00  0.00    -0.013 C
HETATM   34  C22 UNL     1      22.576 -29.994   4.638  1.00  0.00     0.009 C
HETATM   35  C26 UNL     1      22.374 -29.156   6.982  1.00  0.00     0.009 C
HETATM   36  C23 UNL     1      23.330 -28.736   4.277  1.00  0.00    -0.013 C
HETATM   37  C24 UNL     1      24.113 -28.241   5.468  1.00  0.00     0.009 C
HETATM   38  C28 UNL     1      22.363 -27.686   3.873  1.00  0.00     0.019 C
HETATM   39  C25 UNL     1      23.124 -27.902   6.547  1.00  0.00    -0.013 C
HETATM   40  C27 UNL     1      22.110 -26.878   6.142  1.00  0.00     0.019 C
ENDBRANCH  10  31
TORSDOF 10
ENDMDL