MODEL 2
REMARK VINA RESULT: -7.654006036      1.913      8.732
REMARK  12 active torsions:
REMARK  status: ('A' for Active; 'I' for Inactive)
REMARK    1  A    between atoms: C2_2  and  C3_3
REMARK    2  A    between atoms: C2_2  and  C10_15
REMARK    3  A    between atoms: C3_3  and  O1_4
REMARK    4  A    between atoms: O1_4  and  C4_5
REMARK    5  A    between atoms: C4_5  and  C5_7
REMARK    6  A    between atoms: C5_7  and  O3_8
REMARK    7  A    between atoms: C5_7  and  C6_10
REMARK    8  A    between atoms: C14_19  and  C15_20
REMARK    9  A    between atoms: C15_20  and  O4_21
REMARK   10  A    between atoms: C15_20  and  C16_23
REMARK   11  A    between atoms: C16_23  and  C18_25
REMARK   12  A    between atoms: C23_30  and  O5_31
ROOT
HETATM    1  C6  UNL     1      13.581 -29.586  -4.497  1.00  0.00     0.077 C
HETATM    2  C7  UNL     1      14.058 -28.388  -3.702  1.00  0.00     0.034 C
HETATM    3  C8  UNL     1      12.742 -30.419  -3.530  1.00  0.00     0.034 C
HETATM    4  C9  UNL     1      12.785 -29.195  -5.641  1.00  0.00     0.071 C
HETATM    5  N1  UNL     1      12.151 -28.901  -6.560  1.00  0.00    -0.196 NA
ENDROOT
BRANCH   1   6
HETATM    6  C5  UNL     1      14.744 -30.439  -4.933  1.00  0.00     0.239 C
BRANCH   6   7
HETATM    7  C4  UNL     1      15.012 -31.435  -3.869  1.00  0.00     0.289 C
HETATM    8  O2  UNL     1      15.245 -32.638  -4.233  1.00  0.00    -0.262 OA
BRANCH   7   9
HETATM    9  O1  UNL     1      15.030 -31.172  -2.524  1.00  0.00    -0.319 OA
BRANCH   9  10
HETATM   10  C3  UNL     1      16.239 -31.237  -1.781  1.00  0.00     0.183 C
BRANCH  10  11
HETATM   11  C2  UNL     1      17.347 -30.553  -2.583  1.00  0.00     0.011 C
HETATM   12  C1  UNL     1      18.334 -31.621  -3.067  1.00  0.00     0.012 C
BRANCH  11  13
HETATM   13  C10 UNL     1      18.009 -29.562  -1.684  1.00  0.00     0.001 A
HETATM   14  C11 UNL     1      19.525 -29.575  -1.653  1.00  0.00     0.016 A
HETATM   15  C12 UNL     1      19.610 -28.190  -2.101  1.00  0.00    -0.030 A
HETATM   16  C13 UNL     1      20.243 -28.013  -3.467  1.00  0.00     0.016 C
HETATM   17  C14 UNL     1      19.928 -27.051  -1.214  1.00  0.00     0.024 C
HETATM   18  C28 UNL     1      18.085 -28.146  -2.114  1.00  0.00    -0.032 A
HETATM   19  C26 UNL     1      18.907 -27.170  -0.122  1.00  0.00     0.009 C
HETATM   20  C27 UNL     1      17.642 -27.238  -0.999  1.00  0.00     0.011 C
HETATM   21  C29 UNL     1      17.603 -27.763  -3.472  1.00  0.00     0.016 C
BRANCH  17  22
HETATM   22  C15 UNL     1      21.320 -26.768  -0.855  1.00  0.00     0.128 C
BRANCH  22  23
HETATM   23  O4  UNL     1      21.257 -25.824   0.229  1.00  0.00    -0.395 OA
ATOM     24  H4  UNL     1      22.020 -25.268   0.129  1.00  0.00     0.210 HD
ENDBRANCH  22  23
BRANCH  22  25
HETATM   25  C16 UNL     1      22.175 -27.851  -0.376  1.00  0.00     0.025 C
HETATM   26  C17 UNL     1      22.781 -27.534   0.960  1.00  0.00     0.014 C
BRANCH  25  27
HETATM   27  C18 UNL     1      23.266 -28.366  -1.268  1.00  0.00     0.060 C
HETATM   28  C19 UNL     1      23.102 -29.511  -2.045  1.00  0.00    -0.176 C
HETATM   29  C20 UNL     1      22.872 -30.647  -2.839  1.00  0.00     0.107 C
HETATM   30  C21 UNL     1      24.061 -31.603  -2.462  1.00  0.00     0.119 A
HETATM   31  C22 UNL     1      25.025 -31.071  -1.495  1.00  0.00     0.135 A
HETATM   32  N2  UNL     1      25.270 -31.120  -2.848  1.00  0.00    -0.383 N
HETATM   33  C23 UNL     1      24.997 -30.086  -0.503  1.00  0.00     0.144 C
HETATM   34  C24 UNL     1      24.585 -28.652  -0.473  1.00  0.00     0.050 C
HETATM   35  C25 UNL     1      26.058 -30.754  -3.811  1.00  0.00     0.116 C
BRANCH  33  36
HETATM   36  O5  UNL     1      26.335 -29.960   0.016  1.00  0.00    -0.393 OA
ATOM     37  H5  UNL     1      26.266 -29.882   0.961  1.00  0.00     0.210 HD
ENDBRANCH  33  36
ENDBRANCH  25  27
ENDBRANCH  22  25
ENDBRANCH  17  22
ENDBRANCH  11  13
ENDBRANCH  10  11
ENDBRANCH   9  10
ENDBRANCH   7   9
ENDBRANCH   6   7
BRANCH   6  38
HETATM   38  O3  UNL     1      14.515 -31.045  -6.164  1.00  0.00    -0.384 OA
ATOM     39  H3  UNL     1      13.768 -30.665  -6.613  1.00  0.00     0.210 HD
ENDBRANCH   6  38
ENDBRANCH   1   6
TORSDOF 12
ENDMDL