MODEL 1
REMARK VINA RESULT: -8.533150167      0.000      0.000
REMARK  10 active torsions:
REMARK  status: ('A' for Active; 'I' for Inactive)
REMARK    1  A    between atoms: C2_2  and  C3_6
REMARK    2  A    between atoms: C7_10  and  C8_11
REMARK    3  A    between atoms: N2_14  and  C9_15
REMARK    4  A    between atoms: C9_15  and  O3_16
REMARK    5  A    between atoms: C9_15  and  C10_18
REMARK    6  A    between atoms: C10_18  and  C11_19
REMARK    7  A    between atoms: C10_18  and  N3_26
REMARK    8  A    between atoms: C11_19  and  C12_20
REMARK    9  A    between atoms: C18_28  and  C19_29
REMARK   10  A    between atoms: N5_35  and  C23_37
ROOT
HETATM    1  C10 UNL     1      15.585 -26.919  -2.561  1.00  0.00     0.167 C
ENDROOT
BRANCH   1   2
HETATM    2  C9  UNL     1      15.549 -28.053  -3.497  1.00  0.00     0.139 C
BRANCH   2   3
HETATM    3  N2  UNL     1      14.804 -29.224  -3.520  1.00  0.00    -0.339 N
HETATM    4  C3  UNL     1      13.394 -29.191  -3.813  1.00  0.00     0.132 C
HETATM    5  C4  UNL     1      12.736 -30.552  -3.694  1.00  0.00     0.031 C
HETATM    6  C5  UNL     1      13.092 -31.177  -2.380  1.00  0.00     0.005 C
HETATM    7  C6  UNL     1      14.557 -31.198  -2.107  1.00  0.00     0.036 C
HETATM    8  C7  UNL     1      15.381 -30.499  -3.206  1.00  0.00     0.188 C
BRANCH   4   9
HETATM    9  C2  UNL     1      12.951 -28.591  -5.065  1.00  0.00    -0.001 C
HETATM   10  C1  UNL     1      11.659 -27.790  -4.969  1.00  0.00     0.065 C
HETATM   11  N1  UNL     1      13.461 -28.630  -6.216  1.00  0.00    -0.404 N
ATOM     12  H12 UNL     1      13.151 -28.211  -7.092  1.00  0.00     0.155 HD
ATOM     13  H11 UNL     1      14.326 -29.167  -6.281  1.00  0.00     0.155 HD
ENDBRANCH   4   9
BRANCH   8  14
HETATM   14  C8  UNL     1      15.631 -31.411  -4.328  1.00  0.00     0.196 C
HETATM   15  O1  UNL     1      15.774 -30.912  -5.470  1.00  0.00    -0.646 OA
HETATM   16  O2  UNL     1      15.709 -32.758  -4.171  1.00  0.00    -0.646 OA
ENDBRANCH   8  14
ENDBRANCH   2   3
BRANCH   2  17
HETATM   17  O3  UNL     1      16.375 -27.982  -4.535  1.00  0.00    -0.348 OA
ATOM     18  H3  UNL     1      16.025 -27.425  -5.220  1.00  0.00     0.219 HD
ENDBRANCH   2  17
ENDBRANCH   1   2
BRANCH   1  19
HETATM   19  C11 UNL     1      15.451 -25.570  -3.201  1.00  0.00     0.039 C
BRANCH  19  20
HETATM   20  C12 UNL     1      14.196 -24.843  -2.686  1.00  0.00    -0.008 C
HETATM   21  C13 UNL     1      13.169 -25.953  -2.452  1.00  0.00     0.031 C
HETATM   22  C14 UNL     1      11.828 -25.387  -2.093  1.00  0.00     0.168 C
HETATM   23  O4  UNL     1      11.398 -24.414  -2.967  1.00  0.00    -0.391 OA
HETATM   24  C15 UNL     1      12.185 -24.310  -4.091  1.00  0.00     0.168 C
HETATM   25  C16 UNL     1      13.618 -23.935  -3.750  1.00  0.00     0.031 C
ENDBRANCH  19  20
ENDBRANCH   1  19
BRANCH   1  26
HETATM   26  N3  UNL     1      16.794 -26.972  -1.769  1.00  0.00    -0.307 N
HETATM   27  C17 UNL     1      17.841 -27.714  -2.236  1.00  0.00     0.120 A
HETATM   28  C18 UNL     1      19.049 -27.802  -1.577  1.00  0.00     0.030 A
HETATM   29  N4  UNL     1      19.168 -27.126  -0.442  1.00  0.00    -0.340 N
HETATM   30  C22 UNL     1      18.137 -26.367   0.066  1.00  0.00     0.171 A
ATOM     31  H4  UNL     1      20.049 -27.170   0.070  1.00  0.00     0.167 HD
HETATM   32  N5  UNL     1      18.359 -25.760   1.163  1.00  0.00    -0.367 N
HETATM   33  C27 UNL     1      16.943 -26.296  -0.611  1.00  0.00     0.292 A
ATOM     34  H5  UNL     1      19.283 -25.883   1.578  1.00  0.00     0.161 HD
HETATM   35  O5  UNL     1      15.976 -25.631  -0.212  1.00  0.00    -0.264 OA
BRANCH  28  36
HETATM   36  C19 UNL     1      20.138 -28.632  -2.143  1.00  0.00     0.037 A
HETATM   37  C20 UNL     1      21.407 -28.900  -1.486  1.00  0.00     0.011 A
HETATM   38  C21 UNL     1      21.364 -27.865  -2.575  1.00  0.00     0.011 A
ENDBRANCH  28  36
BRANCH  32  39
HETATM   39  C23 UNL     1      17.458 -24.937   1.857  1.00  0.00     0.083 C
HETATM   40  C24 UNL     1      18.003 -23.905   2.784  1.00  0.00     0.025 C
HETATM   41  C25 UNL     1      16.917 -24.307   3.793  1.00  0.00     0.004 C
HETATM   42  C26 UNL     1      16.946 -25.667   3.138  1.00  0.00     0.025 C
ENDBRANCH  32  39
ENDBRANCH   1  26
TORSDOF 10
ENDMDL