MODEL 1
REMARK VINA RESULT: -8.568846050      0.000      0.000
REMARK  10 active torsions:
REMARK  status: ('A' for Active; 'I' for Inactive)
REMARK    1  A    between atoms: C12_13  and  C13_14
REMARK    2  A    between atoms: C13_14  and  C14_15
REMARK    3  A    between atoms: C14_15  and  C15_16
REMARK    4  A    between atoms: C15_16  and  C16_17
REMARK    5  A    between atoms: C16_17  and  C17_18
REMARK    6  A    between atoms: C17_18  and  N1_19
REMARK    7  A    between atoms: C20_22  and  C21_23
REMARK    8  A    between atoms: C22_25  and  N2_26
REMARK       I    between atoms: N2_26  and  C23_28
REMARK    9  A    between atoms: C23_28  and  C24_30
REMARK   10  A    between atoms: C25_31  and  C26_32
ROOT
HETATM    1  C1  UNL     1      21.773 -24.992   2.789  1.00  0.00     0.011 C
HETATM    2  C2  UNL     1      20.969 -25.162   1.531  1.00  0.00    -0.009 C
HETATM    3  C3  UNL     1      20.038 -24.051   1.242  1.00  0.00     0.008 C
HETATM    4  C4  UNL     1      18.629 -24.228   1.568  1.00  0.00     0.046 C
HETATM    5  C5  UNL     1      17.809 -25.364   1.224  1.00  0.00     0.121 C
HETATM    6  C6  UNL     1      17.273 -25.924   2.561  1.00  0.00     0.046 C
HETATM    7  C7  UNL     1      18.562 -26.395   3.200  1.00  0.00     0.004 C
HETATM    8  C8  UNL     1      19.589 -27.089   2.427  1.00  0.00     0.011 C
HETATM    9  C9  UNL     1      20.394 -26.556   1.364  1.00  0.00    -0.024 C
HETATM   10  C10 UNL     1      21.735 -27.376   1.446  1.00  0.00     0.089 C
HETATM   11  C11 UNL     1      22.259 -27.172   0.098  1.00  0.00     0.132 C
HETATM   12  O1  UNL     1      23.231 -26.705  -0.393  1.00  0.00    -0.298 OA
HETATM   13  C12 UNL     1      21.028 -27.824  -0.644  1.00  0.00     0.062 C
HETATM   14  C20 UNL     1      20.072 -26.730  -0.114  1.00  0.00     0.037 C
HETATM   15  C21 UNL     1      18.640 -26.932  -0.386  1.00  0.00     0.151 C
HETATM   16  O2  UNL     1      18.058 -26.533   0.712  1.00  0.00    -0.365 OA
HETATM   17  C22 UNL     1      17.898 -26.253  -1.507  1.00  0.00     0.121 C
HETATM   18  C27 UNL     1      17.439 -24.847  -1.114  1.00  0.00     0.109 C
HETATM   19  C28 UNL     1      16.780 -24.907   0.253  1.00  0.00     0.163 C
HETATM   20  O6  UNL     1      15.682 -24.635   0.426  1.00  0.00    -0.295 OA
ENDROOT
BRANCH  17  21
HETATM   21  N2  UNL     1      16.704 -26.888  -1.908  1.00  0.00    -0.350 N
HETATM   22  C23 UNL     1      16.191 -27.440  -3.096  1.00  0.00     0.241 C
HETATM   23  O3  UNL     1      16.918 -27.410  -4.097  1.00  0.00    -0.269 OA
ATOM     24  H2  UNL     1      16.041 -26.968  -1.137  1.00  0.00     0.163 HD
BRANCH  22  25
HETATM   25  C24 UNL     1      14.883 -28.019  -3.196  1.00  0.00     0.081 C
HETATM   26  C25 UNL     1      13.705 -27.488  -3.088  1.00  0.00     0.090 C
BRANCH  26  27
HETATM   27  C26 UNL     1      13.248 -26.168  -2.836  1.00  0.00     0.198 C
HETATM   28  O4  UNL     1      13.817 -25.305  -2.170  1.00  0.00    -0.645 OA
HETATM   29  O5  UNL     1      12.002 -25.748  -3.386  1.00  0.00    -0.645 OA
ENDBRANCH  26  27
ENDBRANCH  22  25
ENDBRANCH  17  21
BRANCH  13  30
HETATM   30  C13 UNL     1      21.418 -27.762  -2.052  1.00  0.00     0.013 C
BRANCH  30  31
HETATM   31  C14 UNL     1      20.962 -28.810  -2.961  1.00  0.00     0.001 C
BRANCH  31  32
HETATM   32  C15 UNL     1      21.561 -30.182  -2.864  1.00  0.00     0.002 C
BRANCH  32  33
HETATM   33  C16 UNL     1      22.960 -30.332  -2.477  1.00  0.00     0.030 C
BRANCH  33  34
HETATM   34  C17 UNL     1      23.832 -31.236  -3.268  1.00  0.00     0.271 C
BRANCH  34  35
HETATM   35  N1  UNL     1      25.221 -30.950  -3.391  1.00  0.00     0.080 N
HETATM   36  C18 UNL     1      25.513 -31.157  -4.838  1.00  0.00     0.309 C
HETATM   37  C19 UNL     1      25.657 -29.640  -3.026  1.00  0.00     0.309 C
ENDBRANCH  34  35
ENDBRANCH  33  34
ENDBRANCH  32  33
ENDBRANCH  31  32
ENDBRANCH  30  31
ENDBRANCH  13  30
TORSDOF 10
ENDMDL