MODEL 1
REMARK VINA RESULT: -9.460740189      0.000      0.000
REMARK  11 active torsions:
REMARK  status: ('A' for Active; 'I' for Inactive)
REMARK    1  A    between atoms: C2_2  and  O1_4
REMARK    2  A    between atoms: C2_2  and  C4_6
REMARK    3  A    between atoms: C4_6  and  C5_7
REMARK    4  A    between atoms: C5_7  and  N1_8
REMARK    5  A    between atoms: C5_7  and  C13_26
REMARK    6  A    between atoms: N1_8  and  S1_10
REMARK    7  A    between atoms: S1_10  and  C6_13
REMARK    8  A    between atoms: C7_19  and  O4_20
REMARK    9  A    between atoms: O4_20  and  C8_21
REMARK   10  A    between atoms: C13_26  and  O5_27
REMARK   11  A    between atoms: C13_26  and  N5_29
ROOT
HETATM    1  C5  UNL     1      12.681 -26.526  -3.792  1.00  0.00     0.073 C
ENDROOT
BRANCH   1   2
HETATM    2  C4  UNL     1      11.359 -25.881  -3.736  1.00  0.00     0.099 C
BRANCH   2   3
HETATM    3  C2  UNL     1      11.170 -24.530  -4.348  1.00  0.00     0.056 C
HETATM    4  C1  UNL     1      10.208 -23.692  -3.590  1.00  0.00     0.045 C
HETATM    5  C3  UNL     1      10.547 -24.787  -5.734  1.00  0.00     0.045 C
BRANCH   3   6
HETATM    6  O1  UNL     1      12.371 -23.883  -4.625  1.00  0.00    -0.390 OA
ATOM      7  H1  UNL     1      13.135 -24.434  -4.500  1.00  0.00     0.210 HD
ENDBRANCH   3   6
ENDBRANCH   2   3
ENDBRANCH   1   2
BRANCH   1   8
HETATM    8  N1  UNL     1      13.610 -26.381  -2.764  1.00  0.00    -0.279 N
ATOM      9  H1  UNL     1      13.373 -26.813  -1.871  1.00  0.00     0.179 HD
BRANCH   8  10
HETATM   10  S1  UNL     1      15.037 -25.592  -2.838  1.00  0.00     0.284 S
HETATM   11  O2  UNL     1      14.891 -24.160  -3.381  1.00  0.00    -0.199 OA
HETATM   12  O3  UNL     1      16.121 -26.195  -3.676  1.00  0.00    -0.199 OA
BRANCH  10  13
HETATM   13  C6  UNL     1      15.771 -25.314  -1.247  1.00  0.00     0.214 A
HETATM   14  N2  UNL     1      15.531 -24.302  -0.413  1.00  0.00    -0.269 N
HETATM   15  N3  UNL     1      16.275 -24.410   0.674  1.00  0.00    -0.019 NA
ATOM     16  H2  UNL     1      14.865 -23.548  -0.589  1.00  0.00     0.185 HD
HETATM   17  N4  UNL     1      17.006 -25.511   0.539  1.00  0.00    -0.261 N
HETATM   18  C7  UNL     1      16.727 -26.094  -0.623  1.00  0.00     0.198 A
ATOM     19  H4  UNL     1      17.681 -25.856   1.222  1.00  0.00     0.186 HD
BRANCH  18  20
HETATM   20  O4  UNL     1      17.227 -27.251  -1.206  1.00  0.00    -0.327 OA
BRANCH  20  21
HETATM   21  C8  UNL     1      18.591 -27.317  -1.497  1.00  0.00     0.130 C
HETATM   22  C9  UNL     1      18.949 -28.386  -2.491  1.00  0.00     0.032 C
HETATM   23  C10 UNL     1      20.447 -28.505  -2.326  1.00  0.00     0.002 C
HETATM   24  C11 UNL     1      20.782 -27.899  -0.964  1.00  0.00     0.002 C
HETATM   25  C12 UNL     1      19.416 -27.731  -0.286  1.00  0.00     0.032 C
ENDBRANCH  20  21
ENDBRANCH  18  20
ENDBRANCH  10  13
ENDBRANCH   8  10
ENDBRANCH   1   8
BRANCH   1  26
HETATM   26  C13 UNL     1      12.647 -27.832  -4.451  1.00  0.00     0.162 C
BRANCH  26  27
HETATM   27  O5  UNL     1      11.700 -27.888  -5.350  1.00  0.00    -0.345 OA
ATOM     28  H5  UNL     1      10.957 -28.393  -5.040  1.00  0.00     0.219 HD
ENDBRANCH  26  27
BRANCH  26  29
HETATM   29  N5  UNL     1      13.364 -29.020  -4.359  1.00  0.00    -0.360 N
HETATM   30  C14 UNL     1      12.954 -30.335  -3.989  1.00  0.00     0.125 C
HETATM   31  C15 UNL     1      13.920 -31.122  -3.135  1.00  0.00     0.029 C
HETATM   32  C16 UNL     1      15.348 -31.055  -3.517  1.00  0.00    -0.037 C
HETATM   33  C17 UNL     1      16.198 -31.583  -2.410  1.00  0.00     0.010 C
HETATM   34  C21 UNL     1      15.650 -31.813  -4.798  1.00  0.00     0.010 C
HETATM   35  C22 UNL     1      15.678 -29.562  -3.681  1.00  0.00     0.029 C
HETATM   36  C18 UNL     1      17.549 -32.062  -2.884  1.00  0.00     0.001 C
HETATM   37  C19 UNL     1      17.483 -33.146  -3.908  1.00  0.00     0.000 C
HETATM   38  C20 UNL     1      16.053 -33.230  -4.436  1.00  0.00     0.001 C
HETATM   39  C23 UNL     1      14.822 -28.999  -4.760  1.00  0.00     0.125 C
ENDBRANCH  26  29
ENDBRANCH   1  26
TORSDOF 11
ENDMDL