MODEL 1
REMARK VINA RESULT: -6.374697260      0.000      0.000
REMARK  11 active torsions:
REMARK  status: ('A' for Active; 'I' for Inactive)
REMARK    1  A    between atoms: C9_10  and  C10_11
REMARK    2  A    between atoms: C10_11  and  O2_12
REMARK    3  A    between atoms: C10_11  and  C11_14
REMARK    4  A    between atoms: C11_14  and  C12_15
REMARK    5  A    between atoms: C12_15  and  C13_16
REMARK    6  A    between atoms: C13_16  and  C14_17
REMARK    7  A    between atoms: C14_17  and  O3_20
REMARK    8  A    between atoms: C17_22  and  O4_23
REMARK    9  A    between atoms: O4_23  and  C18_24
REMARK   10  A    between atoms: C18_24  and  C19_26
REMARK   11  A    between atoms: C19_26  and  N1_27
ROOT
HETATM    1  C1  UNL     1      23.611 -22.100   3.502  1.00  0.00     0.020 C
HETATM    2  C2  UNL     1      23.613 -23.514   2.901  1.00  0.00     0.074 C
HETATM    3  C3  UNL     1      22.340 -24.151   3.304  1.00  0.00     0.027 C
HETATM    4  C4  UNL     1      22.091 -25.475   2.574  1.00  0.00     0.067 C
HETATM    5  C5  UNL     1      23.443 -26.093   2.484  1.00  0.00     0.132 C
HETATM    6  O1  UNL     1      23.949 -26.431   3.567  1.00  0.00    -0.298 OA
HETATM    7  C6  UNL     1      24.234 -26.347   1.296  1.00  0.00     0.090 C
HETATM    8  C7  UNL     1      23.311 -26.413   0.092  1.00  0.00    -0.008 C
HETATM    9  C8  UNL     1      24.242 -26.171  -1.050  1.00  0.00     0.018 C
HETATM   10  C9  UNL     1      22.506 -27.637   0.106  1.00  0.00     0.055 C
HETATM   11  C17 UNL     1      20.997 -27.406  -0.088  1.00  0.00     0.147 C
HETATM   12  C22 UNL     1      20.443 -26.394   0.873  1.00  0.00    -0.010 C
HETATM   13  C23 UNL     1      19.930 -27.033   2.155  1.00  0.00     0.018 C
HETATM   14  C24 UNL     1      19.139 -25.863   0.258  1.00  0.00     0.018 C
HETATM   15  C25 UNL     1      21.398 -25.320   1.275  1.00  0.00    -0.003 C
HETATM   16  C26 UNL     1      20.599 -24.010   1.284  1.00  0.00     0.019 C
HETATM   17  C27 UNL     1      22.452 -25.136   0.213  1.00  0.00     0.103 C
HETATM   18  N2  UNL     1      23.256 -23.968   0.364  1.00  0.00    -0.355 N
ATOM     19  H2  UNL     1      23.399 -23.456  -0.507  1.00  0.00     0.162 HD
HETATM   20  C28 UNL     1      23.902 -23.369   1.493  1.00  0.00     0.221 C
HETATM   21  O6  UNL     1      24.858 -22.607   1.219  1.00  0.00    -0.273 OA
ENDROOT
BRANCH  10  22
HETATM   22  C10 UNL     1      22.870 -28.816  -0.698  1.00  0.00     0.125 C
BRANCH  22  23
HETATM   23  O2  UNL     1      23.101 -28.619  -2.041  1.00  0.00    -0.395 OA
ATOM     24  H2  UNL     1      23.890 -29.000  -2.409  1.00  0.00     0.210 HD
ENDBRANCH  22  23
BRANCH  22  25
HETATM   25  C11 UNL     1      24.042 -29.635  -0.198  1.00  0.00     0.032 C
BRANCH  25  26
HETATM   26  C12 UNL     1      24.539 -30.590  -1.264  1.00  0.00     0.006 C
BRANCH  26  27
HETATM   27  C13 UNL     1      26.017 -30.452  -1.486  1.00  0.00     0.037 C
BRANCH  27  28
HETATM   28  C14 UNL     1      26.297 -29.975  -2.888  1.00  0.00     0.051 C
HETATM   29  C15 UNL     1      25.604 -30.760  -3.954  1.00  0.00     0.045 C
HETATM   30  C16 UNL     1      27.780 -30.010  -3.172  1.00  0.00     0.045 C
BRANCH  28  31
HETATM   31  O3  UNL     1      25.880 -28.632  -2.947  1.00  0.00    -0.391 OA
ATOM     32  H3  UNL     1      26.226 -28.275  -3.757  1.00  0.00     0.210 HD
ENDBRANCH  28  31
ENDBRANCH  27  28
ENDBRANCH  26  27
ENDBRANCH  25  26
ENDBRANCH  22  25
ENDBRANCH  10  22
BRANCH  11  33
HETATM   33  O4  UNL     1      20.557 -27.373  -1.367  1.00  0.00    -0.313 OA
BRANCH  33  34
HETATM   34  C18 UNL     1      19.830 -28.183  -2.148  1.00  0.00     0.287 C
HETATM   35  O5  UNL     1      20.414 -28.510  -3.199  1.00  0.00    -0.263 OA
BRANCH  34  36
HETATM   36  C19 UNL     1      18.474 -28.689  -1.877  1.00  0.00     0.381 C
BRANCH  36  37
HETATM   37  N1  UNL     1      17.501 -28.255  -2.827  1.00  0.00     0.089 N
HETATM   38  C20 UNL     1      16.880 -26.998  -2.553  1.00  0.00     0.310 C
HETATM   39  C21 UNL     1      16.525 -29.259  -3.153  1.00  0.00     0.310 C
ENDBRANCH  36  37
ENDBRANCH  34  36
ENDBRANCH  33  34
ENDBRANCH  11  33
TORSDOF 11
ENDMDL