MODEL 2
REMARK VINA RESULT: -9.298861483      1.095      1.427
REMARK  12 active torsions:
REMARK  status: ('A' for Active; 'I' for Inactive)
REMARK    1  A    between atoms: O1_1  and  C1_3
REMARK    2  A    between atoms: C1_3  and  N1_4
REMARK    3  A    between atoms: C1_3  and  C5_9
REMARK    4  A    between atoms: N1_4  and  C2_6
REMARK    5  A    between atoms: C7_12  and  C8_13
REMARK       I    between atoms: N2_16  and  C11_17
REMARK    6  A    between atoms: C11_17  and  O3_19
REMARK    7  A    between atoms: O3_19  and  C12_20
REMARK    8  A    between atoms: C12_20  and  C13_21
REMARK    9  A    between atoms: C20_31  and  C21_32
REMARK   10  A    between atoms: C21_32  and  N4_33
REMARK   11  A    between atoms: C25_37  and  C26_38
REMARK   12  A    between atoms: C26_38  and  O4_39
ROOT
HETATM    1  C5  UNL     1      15.282 -27.102  -2.659  1.00  0.00     0.063 A
HETATM    2  S1  UNL     1      15.625 -25.733  -1.682  1.00  0.00    -0.120 SA
HETATM    3  C6  UNL     1      17.188 -26.078  -1.222  1.00  0.00     0.119 A
HETATM    4  C7  UNL     1      17.473 -27.320  -1.850  1.00  0.00    -0.030 A
HETATM    5  C20 UNL     1      16.483 -27.831  -2.593  1.00  0.00     0.003 A
ENDROOT
BRANCH   4   6
HETATM    6  C8  UNL     1      18.832 -27.818  -1.491  1.00  0.00    -0.051 C
HETATM    7  C9  UNL     1      19.597 -28.453  -2.410  1.00  0.00     0.001 C
HETATM    8  C10 UNL     1      20.950 -28.945  -2.040  1.00  0.00     0.155 C
HETATM    9  N2  UNL     1      21.682 -27.878  -1.414  1.00  0.00    -0.324 N
HETATM   10  C11 UNL     1      23.096 -27.787  -1.561  1.00  0.00     0.363 C
HETATM   11  C18 UNL     1      20.953 -26.902  -0.633  1.00  0.00     0.133 C
HETATM   12  O2  UNL     1      23.762 -26.868  -1.023  1.00  0.00    -0.238 OA
HETATM   13  C19 UNL     1      19.558 -27.473  -0.241  1.00  0.00     0.059 C
BRANCH  10  14
HETATM   14  O3  UNL     1      23.757 -28.724  -2.310  1.00  0.00    -0.304 OA
BRANCH  14  15
HETATM   15  C12 UNL     1      24.477 -29.813  -1.723  1.00  0.00     0.185 C
BRANCH  15  16
HETATM   16  C13 UNL     1      25.938 -29.559  -1.950  1.00  0.00     0.013 C
HETATM   17  C14 UNL     1      26.740 -30.549  -1.131  1.00  0.00     0.034 C
HETATM   18  C15 UNL     1      28.192 -30.149  -1.076  1.00  0.00     0.232 C
HETATM   19  N3  UNL     1      28.511 -29.504  -2.334  1.00  0.00    -0.075 N
HETATM   20  C16 UNL     1      27.795 -30.125  -3.425  1.00  0.00     0.232 C
ATOM     21  H32 UNL     1      28.344 -28.498  -2.296  1.00  0.00     0.277 HD
ATOM     22  H31 UNL     1      29.517 -29.485  -2.505  1.00  0.00     0.277 HD
HETATM   23  C17 UNL     1      26.323 -29.730  -3.404  1.00  0.00     0.034 C
ENDBRANCH  15  16
ENDBRANCH  14  15
ENDBRANCH  10  14
ENDBRANCH   4   6
BRANCH   5  24
HETATM   24  C21 UNL     1      16.513 -29.087  -3.433  1.00  0.00     0.073 C
BRANCH  24  25
HETATM   25  N4  UNL     1      15.897 -30.254  -3.009  1.00  0.00    -0.285 NA
HETATM   26  C22 UNL     1      16.741 -30.931  -2.024  1.00  0.00     0.095 C
HETATM   27  C23 UNL     1      17.283 -32.155  -2.732  1.00  0.00     0.017 C
HETATM   28  C24 UNL     1      16.200 -32.506  -3.729  1.00  0.00     0.023 C
HETATM   29  C25 UNL     1      15.494 -31.192  -3.981  1.00  0.00     0.086 C
BRANCH  29  30
HETATM   30  C26 UNL     1      15.684 -30.814  -5.412  1.00  0.00     0.184 C
BRANCH  30  31
HETATM   31  O4  UNL     1      14.775 -31.594  -6.164  1.00  0.00    -0.399 OA
ATOM     32  H4  UNL     1      14.608 -31.119  -6.970  1.00  0.00     0.209 HD
ENDBRANCH  30  31
ENDBRANCH  29  30
ENDBRANCH  24  25
ENDBRANCH   5  24
BRANCH   1  33
HETATM   33  C1  UNL     1      14.019 -27.369  -3.350  1.00  0.00     0.154 C
BRANCH  33  34
HETATM   34  O1  UNL     1      12.980 -26.927  -2.645  1.00  0.00    -0.345 OA
ATOM     35  H1  UNL     1      12.468 -27.604  -2.218  1.00  0.00     0.219 HD
ENDBRANCH  33  34
BRANCH  33  36
HETATM   36  N1  UNL     1      13.698 -27.968  -4.542  1.00  0.00    -0.365 N
ATOM     37  H1  UNL     1      14.387 -28.048  -5.289  1.00  0.00     0.162 HD
BRANCH  36  38
HETATM   38  C2  UNL     1      12.319 -28.496  -4.716  1.00  0.00     0.083 A
HETATM   39  C3  UNL     1      12.132 -29.931  -4.959  1.00  0.00     0.027 A
HETATM   40  C4  UNL     1      12.031 -28.992  -6.135  1.00  0.00     0.027 A
ENDBRANCH  36  38
ENDBRANCH  33  36
ENDBRANCH   1  33
TORSDOF 12
ENDMDL