MODEL 3
REMARK VINA RESULT: -5.937543915      2.971      5.947
REMARK  11 active torsions:
REMARK  status: ('A' for Active; 'I' for Inactive)
REMARK    1  A    between atoms: O1_2  and  C2_3
REMARK    2  A    between atoms: C2_3  and  C3_4
REMARK    3  A    between atoms: C3_4  and  C4_5
REMARK    4  A    between atoms: C3_4  and  C5_8
REMARK    5  A    between atoms: C3_4  and  C6_11
REMARK    6  A    between atoms: C4_5  and  O2_6
REMARK    7  A    between atoms: C5_8  and  O3_9
REMARK    8  A    between atoms: C6_11  and  O4_12
REMARK    9  A    between atoms: O4_12  and  C7_13
REMARK   10  A    between atoms: C24_31  and  C25_32
REMARK   11  A    between atoms: C28_36  and  N1_37
ROOT
HETATM    1  C7  UNL     1      26.628 -26.749   2.113  1.00  0.00     0.133 C
HETATM    2  C8  UNL     1      27.171 -27.486   0.954  1.00  0.00     0.025 C
HETATM    3  C9  UNL     1      28.016 -28.494   1.753  1.00  0.00     0.008 C
HETATM    4  C10 UNL     1      28.479 -29.502   0.830  1.00  0.00     0.007 C
HETATM    5  C11 UNL     1      27.266 -30.361   0.454  1.00  0.00     0.011 C
HETATM    6  C12 UNL     1      26.048 -29.564   0.086  1.00  0.00    -0.029 C
HETATM    7  C13 UNL     1      25.059 -29.743   1.258  1.00  0.00     0.016 C
HETATM    8  C14 UNL     1      26.281 -28.097  -0.042  1.00  0.00     0.005 C
HETATM    9  C15 UNL     1      26.846 -27.684  -1.409  1.00  0.00     0.033 C
HETATM   10  C16 UNL     1      26.625 -28.667  -2.464  1.00  0.00    -0.022 C
HETATM   11  C17 UNL     1      26.011 -29.804  -2.349  1.00  0.00    -0.068 C
HETATM   12  C18 UNL     1      25.841 -30.732  -3.505  1.00  0.00     0.113 C
HETATM   13  C19 UNL     1      24.365 -31.094  -3.419  1.00  0.00     0.130 C
HETATM   14  O5  UNL     1      23.984 -32.093  -3.954  1.00  0.00    -0.298 OA
HETATM   15  C20 UNL     1      23.540 -30.127  -2.653  1.00  0.00     0.079 C
HETATM   16  C21 UNL     1      23.895 -30.098  -1.156  1.00  0.00     0.022 C
HETATM   17  C22 UNL     1      25.405 -30.240  -1.080  1.00  0.00    -0.013 C
HETATM   18  C23 UNL     1      25.633 -31.754  -0.869  1.00  0.00     0.021 C
HETATM   19  C24 UNL     1      28.937 -27.526   2.394  1.00  0.00     0.025 C
HETATM   20  C26 UNL     1      29.612 -28.105   3.586  1.00  0.00     0.020 C
HETATM   21  C27 UNL     1      28.808 -27.770   4.795  1.00  0.00     0.034 C
HETATM   22  C28 UNL     1      27.727 -26.814   4.376  1.00  0.00     0.191 C
HETATM   23  C29 UNL     1      27.919 -26.498   2.931  1.00  0.00     0.061 C
ENDROOT
BRANCH   1  24
HETATM   24  O4  UNL     1      25.998 -25.560   1.817  1.00  0.00    -0.384 OA
BRANCH  24  25
HETATM   25  C6  UNL     1      24.669 -25.624   2.207  1.00  0.00     0.184 C
BRANCH  25  26
HETATM   26  C3  UNL     1      23.709 -25.388   1.087  1.00  0.00     0.045 C
BRANCH  26  27
HETATM   27  C2  UNL     1      22.970 -26.627   0.702  1.00  0.00     0.183 C
BRANCH  27  28
HETATM   28  O1  UNL     1      22.777 -26.669  -0.669  1.00  0.00    -0.395 OA
HETATM   29  C1  UNL     1      21.535 -27.230  -0.980  1.00  0.00     0.201 C
ENDBRANCH  27  28
ENDBRANCH  26  27
BRANCH  26  30
HETATM   30  C4  UNL     1      24.404 -24.818  -0.147  1.00  0.00     0.180 C
BRANCH  30  31
HETATM   31  O2  UNL     1      24.556 -23.467   0.029  1.00  0.00    -0.400 OA
ATOM     32  H2  UNL     1      24.833 -23.088  -0.796  1.00  0.00     0.209 HD
ENDBRANCH  30  31
ENDBRANCH  26  30
BRANCH  26  33
HETATM   33  C5  UNL     1      22.736 -24.305   1.547  1.00  0.00     0.180 C
BRANCH  33  34
HETATM   34  O3  UNL     1      21.704 -24.147   0.624  1.00  0.00    -0.400 OA
ATOM     35  H3  UNL     1      20.873 -24.031   1.067  1.00  0.00     0.209 HD
ENDBRANCH  33  34
ENDBRANCH  26  33
ENDBRANCH  25  26
ENDBRANCH  24  25
ENDBRANCH   1  24
BRANCH  19  36
HETATM   36  C25 UNL     1      29.907 -26.883   1.523  1.00  0.00     0.241 C
HETATM   37  O6  UNL     1      30.427 -25.805   1.676  1.00  0.00    -0.306 OA
ENDBRANCH  19  36
BRANCH  22  38
HETATM   38  N1  UNL     1      27.779 -25.667   5.238  1.00  0.00    -0.075 N
ATOM     39  H13 UNL     1      28.480 -25.761   5.973  1.00  0.00     0.274 HD
ATOM     40  H12 UNL     1      28.170 -24.847   4.775  1.00  0.00     0.274 HD
ATOM     41  H11 UNL     1      26.843 -25.500   5.607  1.00  0.00     0.274 HD
ENDBRANCH  22  38
TORSDOF 11
ENDMDL