MODEL 2
REMARK VINA RESULT: -9.957951532      2.158      3.062
REMARK  10 active torsions:
REMARK  status: ('A' for Active; 'I' for Inactive)
REMARK    1  A    between atoms: C2_2  and  C3_3
REMARK    2  A    between atoms: C4_6  and  N2_7
REMARK    3  A    between atoms: N2_7  and  C5_9
REMARK    4  A    between atoms: C5_9  and  C6_10
REMARK    5  A    between atoms: C6_10  and  C7_11
REMARK    6  A    between atoms: C13_19  and  N4_20
REMARK    7  A    between atoms: C18_27  and  S1_28
REMARK    8  A    between atoms: S1_28  and  N5_31
REMARK    9  A    between atoms: N5_31  and  C19_33
REMARK   10  A    between atoms: C24_38  and  N6_39
ROOT
HETATM    1  C3  UNL     1      14.644 -25.758  -2.693  1.00  0.00     0.053 A
HETATM    2  N1  UNL     1      13.524 -25.005  -2.519  1.00  0.00    -0.194 N
ATOM      3  H1  UNL     1      13.643 -24.075  -2.115  1.00  0.00     0.184 HD
HETATM    4  C4  UNL     1      12.289 -25.378  -2.832  1.00  0.00     0.683 A
HETATM    5  N3  UNL     1      12.164 -26.597  -3.357  1.00  0.00    -0.174 N
ATOM      6  H3  UNL     1      11.232 -26.923  -3.612  1.00  0.00     0.186 HD
HETATM    7  C13 UNL     1      13.240 -27.441  -3.573  1.00  0.00     0.153 A
HETATM    8  C18 UNL     1      14.491 -27.054  -3.260  1.00  0.00     0.147 A
ENDROOT
BRANCH   8   9
HETATM    9  S1  UNL     1      15.918 -27.935  -3.500  1.00  0.00     0.264 S
HETATM   10  O3  UNL     1      17.147 -27.098  -3.785  1.00  0.00    -0.200 OA
HETATM   11  O4  UNL     1      16.312 -28.566  -2.140  1.00  0.00    -0.200 OA
BRANCH   9  12
HETATM   12  N5  UNL     1      15.853 -29.223  -4.564  1.00  0.00    -0.308 N
ATOM     13  H5  UNL     1      15.774 -29.007  -5.558  1.00  0.00     0.172 HD
BRANCH  12  14
HETATM   14  C19 UNL     1      15.897 -30.561  -4.206  1.00  0.00     0.123 C
HETATM   15  C20 UNL     1      16.989 -30.827  -3.147  1.00  0.00     0.028 C
HETATM   16  C21 UNL     1      16.573 -32.091  -2.432  1.00  0.00     0.002 C
HETATM   17  C22 UNL     1      16.848 -33.201  -3.467  1.00  0.00     0.002 C
HETATM   18  C23 UNL     1      15.977 -32.974  -4.648  1.00  0.00     0.035 C
HETATM   19  C24 UNL     1      16.134 -31.593  -5.281  1.00  0.00     0.206 C
BRANCH  19  20
HETATM   20  N6  UNL     1      15.063 -31.563  -6.294  1.00  0.00    -0.073 N
ATOM     21  H63 UNL     1      14.214 -32.017  -5.956  1.00  0.00     0.274 HD
ATOM     22  H62 UNL     1      14.695 -30.621  -6.422  1.00  0.00     0.274 HD
ATOM     23  H61 UNL     1      15.379 -31.966  -7.176  1.00  0.00     0.274 HD
ENDBRANCH  19  20
ENDBRANCH  12  14
ENDBRANCH   9  12
ENDBRANCH   8   9
BRANCH   1  24
HETATM   24  C2  UNL     1      15.946 -25.305  -2.227  1.00  0.00     0.055 C
HETATM   25  C1  UNL     1      16.212 -25.158  -0.783  1.00  0.00     0.011 C
ENDBRANCH   1  24
BRANCH   7  26
HETATM   26  N4  UNL     1      12.852 -28.734  -4.021  1.00  0.00    -0.277 N
HETATM   27  C14 UNL     1      12.751 -29.857  -3.110  1.00  0.00     0.138 C
HETATM   28  C15 UNL     1      12.745 -31.177  -3.764  1.00  0.00     0.047 C
HETATM   29  C16 UNL     1      12.128 -31.292  -5.110  1.00  0.00     0.182 C
HETATM   30  O1  UNL     1      12.438 -30.183  -5.946  1.00  0.00    -0.304 OA
HETATM   31  C17 UNL     1      12.442 -28.904  -5.352  1.00  0.00     0.368 C
HETATM   32  O2  UNL     1      12.056 -27.961  -6.097  1.00  0.00    -0.238 OA
ENDBRANCH   7  26
BRANCH   4  33
HETATM   33  N2  UNL     1      11.274 -24.614  -2.640  1.00  0.00    -0.205 N
ATOM     34  H2  UNL     1      10.940 -24.602  -1.675  1.00  0.00     0.183 HD
BRANCH  33  35
HETATM   35  C5  UNL     1      10.543 -23.797  -3.503  1.00  0.00     0.079 C
BRANCH  35  36
HETATM   36  C6  UNL     1      11.305 -22.962  -4.495  1.00  0.00     0.049 C
BRANCH  36  37
HETATM   37  C7  UNL     1      10.417 -22.631  -5.688  1.00  0.00    -0.010 C
HETATM   38  C8  UNL     1      11.054 -23.161  -6.937  1.00  0.00     0.005 C
HETATM   39  C9  UNL     1      10.429 -22.502  -8.167  1.00  0.00     0.000 C
HETATM   40  C10 UNL     1       9.020 -22.092  -7.829  1.00  0.00     0.000 C
HETATM   41  C11 UNL     1       8.385 -23.125  -6.910  1.00  0.00     0.000 C
HETATM   42  C12 UNL     1       8.989 -22.997  -5.510  1.00  0.00     0.005 C
ENDBRANCH  36  37
ENDBRANCH  35  36
ENDBRANCH  33  35
ENDBRANCH   4  33
TORSDOF 10
ENDMDL