MODEL 3
REMARK VINA RESULT: -9.114310178      2.732     10.579
REMARK  10 active torsions:
REMARK  status: ('A' for Active; 'I' for Inactive)
REMARK    1  A    between atoms: N1_6  and  C6_7
REMARK    2  A    between atoms: C6_7  and  C7_8
REMARK    3  A    between atoms: C7_8  and  C8_9
REMARK    4  A    between atoms: C8_9  and  N2_10
REMARK    5  A    between atoms: C9_11  and  O1_12
REMARK    6  A    between atoms: C12_16  and  O2_17
REMARK    7  A    between atoms: C13_19  and  C14_20
REMARK    8  A    between atoms: N3_21  and  N4_23
REMARK       I    between atoms: N4_23  and  C15_25
REMARK       I    between atoms: C15_25  and  N5_27
REMARK    9  A    between atoms: N6_30  and  C18_31
REMARK   10  A    between atoms: C18_31  and  C19_32
ROOT
HETATM    1  N2  UNL     1      15.131 -26.877  -3.073  1.00  0.00    -0.308 N
HETATM    2  C9  UNL     1      14.882 -27.936  -3.865  1.00  0.00     0.151 A
HETATM    3  C10 UNL     1      15.769 -28.984  -3.577  1.00  0.00     0.008 A
HETATM    4  C11 UNL     1      16.559 -28.496  -2.572  1.00  0.00     0.016 A
HETATM    5  C12 UNL     1      16.157 -27.196  -2.269  1.00  0.00     0.152 A
HETATM    6  C13 UNL     1      17.646 -29.367  -1.999  1.00  0.00     0.086 C
HETATM    7  C25 UNL     1      17.313 -30.782  -2.186  1.00  0.00    -0.016 C
HETATM    8  C26 UNL     1      16.537 -31.242  -3.154  1.00  0.00    -0.025 C
HETATM    9  C27 UNL     1      15.935 -30.344  -4.142  1.00  0.00     0.070 C
ENDROOT
BRANCH   6  10
HETATM   10  C14 UNL     1      18.926 -28.940  -2.572  1.00  0.00     0.093 C
HETATM   11  N3  UNL     1      19.731 -28.084  -2.159  1.00  0.00    -0.311 N
ATOM     12  H3  UNL     1      20.558 -27.973  -2.746  1.00  0.00     0.185 HD
BRANCH  11  13
HETATM   13  N4  UNL     1      19.709 -27.275  -1.073  1.00  0.00    -0.252 N
HETATM   14  C15 UNL     1      20.880 -27.005  -0.275  1.00  0.00     0.338 C
HETATM   15  O3  UNL     1      21.945 -27.561  -0.633  1.00  0.00    -0.245 OA
HETATM   16  N5  UNL     1      20.827 -26.148   0.863  1.00  0.00    -0.305 N
HETATM   17  C16 UNL     1      19.688 -25.436   1.403  1.00  0.00     0.159 C
HETATM   18  C24 UNL     1      21.947 -25.824   1.718  1.00  0.00     0.401 C
HETATM   19  C17 UNL     1      20.134 -25.073   2.813  1.00  0.00     0.294 C
HETATM   20  N6  UNL     1      21.336 -25.884   3.041  1.00  0.00     0.107 N
ATOM     21  H4  UNL     1      18.827 -26.837  -0.808  1.00  0.00     0.191 HD
BRANCH  20  22
HETATM   22  C18 UNL     1      20.882 -27.207   3.367  1.00  0.00     0.279 C
BRANCH  22  23
HETATM   23  C19 UNL     1      21.641 -27.776   4.546  1.00  0.00     0.014 C
HETATM   24  C20 UNL     1      22.958 -28.381   4.121  1.00  0.00     0.006 C
HETATM   25  C21 UNL     1      23.336 -29.193   5.353  1.00  0.00     0.000 C
HETATM   26  C22 UNL     1      22.030 -29.623   5.982  1.00  0.00     0.000 C
HETATM   27  C23 UNL     1      20.929 -28.954   5.163  1.00  0.00     0.006 C
ENDBRANCH  22  23
ENDBRANCH  20  22
ENDBRANCH  11  13
ENDBRANCH   6  10
BRANCH   5  28
HETATM   28  O2  UNL     1      16.781 -26.446  -1.284  1.00  0.00    -0.345 OA
ATOM     29  H2  UNL     1      17.606 -26.593  -0.838  1.00  0.00     0.219 HD
ENDBRANCH   5  28
BRANCH   2  30
HETATM   30  O1  UNL     1      13.901 -27.994  -4.824  1.00  0.00    -0.345 OA
ATOM     31  H1  UNL     1      12.968 -27.911  -4.658  1.00  0.00     0.219 HD
ENDBRANCH   2  30
BRANCH   1  32
HETATM   32  C8  UNL     1      14.420 -25.593  -3.076  1.00  0.00     0.135 C
BRANCH  32  33
HETATM   33  C7  UNL     1      13.461 -25.608  -1.927  1.00  0.00     0.050 C
BRANCH  33  34
HETATM   34  C6  UNL     1      12.030 -25.453  -2.301  1.00  0.00     0.274 C
BRANCH  34  35
HETATM   35  N1  UNL     1      11.905 -25.114  -3.686  1.00  0.00     0.092 N
HETATM   36  C2  UNL     1      11.416 -23.784  -3.875  1.00  0.00     0.219 C
HETATM   37  C1  UNL     1      12.333 -22.891  -4.668  1.00  0.00     0.043 C
HETATM   38  C3  UNL     1      10.135 -23.917  -4.691  1.00  0.00     0.037 C
HETATM   39  C4  UNL     1      10.414 -25.214  -5.464  1.00  0.00     0.032 C
HETATM   40  C5  UNL     1      11.062 -26.037  -4.382  1.00  0.00     0.273 C
ENDBRANCH  34  35
ENDBRANCH  33  34
ENDBRANCH  32  33
ENDBRANCH   1  32
TORSDOF 10
ENDMDL