MODEL 5
REMARK VINA RESULT: -5.757276720      2.860      2.990
REMARK  5 active torsions:
REMARK  status: ('A' for Active; 'I' for Inactive)
REMARK    1  A    between atoms: N1_2  and  N2_3
REMARK    2  A    between atoms: N1_2  and  N3_7
REMARK    3  A    between atoms: N2_3  and  O1_5
REMARK       I    between atoms: N4_9  and  C2_11
REMARK       I    between atoms: C2_11  and  N5_13
REMARK    4  A    between atoms: N5_13  and  N6_15
REMARK    5  A    between atoms: N6_15  and  C3_16
ROOT
HETATM    1  N3  UNL     1      29.188   2.128  44.273  1.00  0.00    -0.221 N
ATOM      2  H3  UNL     1      29.581   3.069  44.297  1.00  0.00     0.210 HD
HETATM    3  N4  UNL     1      29.179   1.462  43.202  1.00  0.00    -0.235 N
ATOM      4  H4  UNL     1      28.789   0.519  43.164  1.00  0.00     0.193 HD
HETATM    5  C2  UNL     1      29.735   2.079  42.051  1.00  0.00     0.351 C
HETATM    6  O2  UNL     1      29.233   1.737  40.953  1.00  0.00    -0.244 OA
HETATM    7  N5  UNL     1      30.778   3.003  42.210  1.00  0.00    -0.254 N
ATOM      8  H5  UNL     1      31.085   3.182  43.166  1.00  0.00     0.187 HD
ENDROOT
BRANCH   1   9
HETATM    9  N1  UNL     1      28.653   1.557  45.422  1.00  0.00    -0.205 N
HETATM   10  C1  UNL     1      27.254   1.715  45.720  1.00  0.00     0.203 C
BRANCH   9  11
HETATM   11  N2  UNL     1      29.512   0.831  46.268  1.00  0.00    -0.193 N
ATOM     12  H2  UNL     1      29.666   1.126  47.233  1.00  0.00     0.217 HD
BRANCH  11  13
HETATM   13  O1  UNL     1      30.082  -0.184  45.811  1.00  0.00    -0.273 OA
ATOM     14  H1  UNL     1      30.959  -0.090  45.459  1.00  0.00     0.246 HD
ENDBRANCH  11  13
ENDBRANCH   9  11
ENDBRANCH   1   9
BRANCH   7  15
HETATM   15  N6  UNL     1      31.439   3.702  41.205  1.00  0.00    -0.132 NA
BRANCH  15  16
HETATM   16  C3  UNL     1      31.318   5.116  41.463  1.00  0.00     0.099 A
HETATM   17  C4  UNL     1      31.706   6.070  40.339  1.00  0.00     0.025 A
HETATM   18  C5  UNL     1      30.272   5.881  40.720  1.00  0.00     0.025 A
ENDBRANCH  15  16
ENDBRANCH   7  15
TORSDOF 5
ENDMDL