MODEL 3
REMARK VINA RESULT: -5.810390524      5.494      7.526
REMARK  4 active torsions:
REMARK  status: ('A' for Active; 'I' for Inactive)
REMARK    1  A    between atoms: C2_2  and  N2_6
REMARK    2  A    between atoms: N2_6  and  N3_7
REMARK    3  A    between atoms: N2_6  and  N4_10
REMARK    4  A    between atoms: N5_12  and  N6_14
ROOT
HETATM    1  N4  UNL     1      28.939   2.217  44.841  1.00  0.00    -0.206 N
ATOM      2  H4  UNL     1      28.769   3.207  45.021  1.00  0.00     0.212 HD
HETATM    3  N5  UNL     1      29.298   1.809  43.691  1.00  0.00    -0.229 N
ATOM      4  H5  UNL     1      29.456   0.809  43.564  1.00  0.00     0.209 HD
ENDROOT
BRANCH   1   5
HETATM    5  N2  UNL     1      28.789   1.270  45.839  1.00  0.00    -0.176 N
BRANCH   5   6
HETATM    6  C2  UNL     1      27.590   1.197  46.564  1.00  0.00     0.112 C
HETATM    7  C1  UNL     1      26.518   0.294  46.117  1.00  0.00     0.092 C
HETATM    8  N1  UNL     1      27.432   1.916  47.609  1.00  0.00    -0.386 N
ATOM      9  H12 UNL     1      26.560   1.864  48.135  1.00  0.00     0.157 HD
ATOM     10  H11 UNL     1      28.175   2.542  47.918  1.00  0.00     0.157 HD
ENDBRANCH   5   6
BRANCH   5  11
HETATM   11  N3  UNL     1      29.838   0.405  46.107  1.00  0.00    -0.322 N
ATOM     12  H32 UNL     1      30.207  -0.174  45.353  1.00  0.00     0.179 HD
ATOM     13  H31 UNL     1      30.241   0.342  47.042  1.00  0.00     0.179 HD
ENDBRANCH   5  11
ENDBRANCH   1   5
BRANCH   3  14
HETATM   14  N6  UNL     1      29.484   2.639  42.607  1.00  0.00    -0.312 N
HETATM   15  C3  UNL     1      28.723   2.468  41.406  1.00  0.00     0.144 C
HETATM   16  C4  UNL     1      29.360   3.271  40.265  1.00  0.00     0.021 C
HETATM   17  C5  UNL     1      29.567   4.716  40.643  1.00  0.00     0.003 C
HETATM   18  C6  UNL     1      29.747   4.941  42.117  1.00  0.00     0.021 C
HETATM   19  C7  UNL     1      30.452   3.698  42.665  1.00  0.00     0.144 C
ENDBRANCH   3  14
TORSDOF 4
ENDMDL