MODEL 4
REMARK VINA RESULT: -5.842565905      5.458      7.047
REMARK  3 active torsions:
REMARK  status: ('A' for Active; 'I' for Inactive)
REMARK    1  A    between atoms: C2_3  and  C3_4
REMARK    2  A    between atoms: C3_4  and  C4_5
REMARK       I    between atoms: C4_5  and  N2_7
REMARK    3  A    between atoms: N2_7  and  O2_9
ROOT
HETATM    1  N1  UNL     1      26.103   1.828  42.098  1.00  0.00    -0.194 NA
HETATM    2  C1  UNL     1      27.133   1.513  42.538  1.00  0.00     0.098 C
HETATM    3  C2  UNL     1      28.449   1.124  43.127  1.00  0.00     0.157 C
HETATM    4  C5  UNL     1      29.169   0.462  41.980  1.00  0.00     0.054 C
HETATM    5  C6  UNL     1      29.365   1.569  40.932  1.00  0.00     0.006 C
HETATM    6  C7  UNL     1      30.336   2.523  41.593  1.00  0.00     0.026 C
HETATM    7  C8  UNL     1      29.656   3.100  42.803  1.00  0.00     0.170 C
HETATM    8  O3  UNL     1      29.011   2.247  43.600  1.00  0.00    -0.365 OA
ENDROOT
BRANCH   3   9
HETATM    9  C3  UNL     1      28.102   0.159  44.239  1.00  0.00     0.158 C
BRANCH   9  10
HETATM   10  C4  UNL     1      28.393   0.653  45.583  1.00  0.00     0.244 C
HETATM   11  O1  UNL     1      29.453   0.304  46.155  1.00  0.00    -0.271 OA
HETATM   12  N2  UNL     1      27.517   1.523  46.286  1.00  0.00    -0.237 N
ATOM     13  H2  UNL     1      26.653   1.810  45.827  1.00  0.00     0.197 HD
BRANCH  12  14
HETATM   14  O2  UNL     1      27.762   1.987  47.519  1.00  0.00    -0.287 OA
ATOM     15  H2  UNL     1      27.824   1.433  48.288  1.00  0.00     0.244 HD
ENDBRANCH  12  14
ENDBRANCH   9  10
ENDBRANCH   3   9
TORSDOF 3
ENDMDL