MODEL 2
REMARK VINA RESULT: -5.811340691      1.668      1.719
REMARK  5 active torsions:
REMARK  status: ('A' for Active; 'I' for Inactive)
REMARK    1  A    between atoms: C2_2  and  C3_4
REMARK    2  A    between atoms: C3_4  and  C4_5
REMARK    3  A    between atoms: C3_4  and  C5_12
REMARK    4  A    between atoms: C4_5  and  N1_6
REMARK    5  A    between atoms: C4_5  and  O2_10
ROOT
HETATM    1  C3  UNL     1      31.607   9.548  37.371  1.00  0.00     0.140 C
ENDROOT
BRANCH   1   2
HETATM    2  C2  UNL     1      31.697  10.700  38.253  1.00  0.00     0.134 C
HETATM    3  C1  UNL     1      32.849  11.606  38.365  1.00  0.00     0.091 C
HETATM    4  O1  UNL     1      30.724  10.971  38.994  1.00  0.00    -0.298 OA
ENDBRANCH   1   2
BRANCH   1   5
HETATM    5  C4  UNL     1      30.592   9.902  36.273  1.00  0.00     0.329 C
BRANCH   5   6
HETATM    6  N1  UNL     1      30.878   9.268  35.020  1.00  0.00    -0.052 N
ATOM      7  H13 UNL     1      30.102   9.382  34.369  1.00  0.00     0.277 HD
ATOM      8  H12 UNL     1      31.600   9.779  34.511  1.00  0.00     0.277 HD
ATOM      9  H11 UNL     1      31.128   8.285  35.120  1.00  0.00     0.277 HD
ENDBRANCH   5   6
BRANCH   5  10
HETATM   10  O2  UNL     1      29.290   9.638  36.700  1.00  0.00    -0.369 OA
ATOM     11  H2  UNL     1      29.145   9.982  37.574  1.00  0.00     0.212 HD
ENDBRANCH   5  10
ENDBRANCH   1   5
BRANCH   1  12
HETATM   12  C5  UNL     1      31.187   8.284  38.055  1.00  0.00     0.136 C
HETATM   13  C6  UNL     1      32.125   7.723  39.052  1.00  0.00     0.033 C
HETATM   14  C7  UNL     1      31.444   6.535  39.757  1.00  0.00     0.004 C
HETATM   15  C8  UNL     1      31.003   5.546  38.732  1.00  0.00     0.026 C
HETATM   16  C9  UNL     1      30.114   6.330  37.751  1.00  0.00     0.168 C
HETATM   17  O3  UNL     1      30.878   7.290  37.103  1.00  0.00    -0.385 OA
ENDBRANCH   1  12
TORSDOF 5
ENDMDL