MODEL 4
REMARK VINA RESULT: -5.970769265      3.649      5.353
REMARK  3 active torsions:
REMARK  status: ('A' for Active; 'I' for Inactive)
REMARK    1  A    between atoms: C3_4  and  C4_5
REMARK    2  A    between atoms: N2_6  and  N3_8
REMARK       I    between atoms: N3_8  and  C5_10
REMARK    3  A    between atoms: C5_10  and  C6_12
ROOT
HETATM    1  N1  UNL     1      25.949  -0.892  46.740  1.00  0.00    -0.192 NA
HETATM    2  C1  UNL     1      26.748  -0.345  46.099  1.00  0.00     0.087 C
HETATM    3  C2  UNL     1      27.714   0.343  45.300  1.00  0.00     0.095 C
HETATM    4  C3  UNL     1      27.477   0.638  44.034  1.00  0.00     0.029 C
ENDROOT
BRANCH   4   5
HETATM    5  C4  UNL     1      28.454   1.331  43.230  1.00  0.00     0.108 C
HETATM    6  N2  UNL     1      29.220   2.237  43.733  1.00  0.00    -0.309 N
ATOM      7  H2  UNL     1      29.130   2.466  44.722  1.00  0.00     0.186 HD
BRANCH   6   8
HETATM    8  N3  UNL     1      30.170   2.916  42.965  1.00  0.00    -0.265 N
HETATM    9  C5  UNL     1      29.965   4.219  42.471  1.00  0.00     0.293 C
HETATM   10  O1  UNL     1      28.889   4.805  42.724  1.00  0.00    -0.264 OA
ATOM     11  H3  UNL     1      31.051   2.448  42.754  1.00  0.00     0.190 HD
BRANCH   9  12
HETATM   12  C6  UNL     1      30.977   4.901  41.673  1.00  0.00     0.144 A
HETATM   13  C7  UNL     1      32.350   4.638  41.660  1.00  0.00     0.045 A
HETATM   14  C8  UNL     1      32.891   5.530  40.758  1.00  0.00     0.027 A
HETATM   15  C9  UNL     1      31.860   6.295  40.255  1.00  0.00     0.143 A
HETATM   16  O2  UNL     1      30.763   5.877  40.832  1.00  0.00    -0.317 OA
ENDBRANCH   9  12
ENDBRANCH   6   8
ENDBRANCH   4   5
TORSDOF 3
ENDMDL