MODEL 2
REMARK VINA RESULT: -5.890756125      1.008      1.216
REMARK  3 active torsions:
REMARK  status: ('A' for Active; 'I' for Inactive)
REMARK    1  A    between atoms: C1_1  and  C6_13
REMARK    2  A    between atoms: N1_2  and  N2_4
REMARK    3  A    between atoms: N2_4  and  C2_6
ROOT
HETATM    1  N2  UNL     1      29.478   8.183  38.514  1.00  0.00    -0.330 N
ATOM      2  H2  UNL     1      30.106   8.739  39.094  1.00  0.00     0.180 HD
ENDROOT
BRANCH   1   3
HETATM    3  N1  UNL     1      29.330   8.487  37.171  1.00  0.00    -0.313 N
HETATM    4  C1  UNL     1      29.980   9.425  36.607  1.00  0.00     0.143 C
ATOM      5  H1  UNL     1      28.677   7.938  36.612  1.00  0.00     0.185 HD
BRANCH   4   6
HETATM    6  C6  UNL     1      30.918  10.217  37.391  1.00  0.00     0.091 A
HETATM    7  C7  UNL     1      32.202  10.592  37.053  1.00  0.00     0.040 A
HETATM    8  C8  UNL     1      32.716  11.330  38.088  1.00  0.00     0.027 A
HETATM    9  C9  UNL     1      31.726  11.387  39.038  1.00  0.00     0.142 A
HETATM   10  O1  UNL     1      30.706  10.732  38.596  1.00  0.00    -0.321 OA
ENDBRANCH   4   6
ENDBRANCH   1   3
BRANCH   1  11
HETATM   11  C2  UNL     1      28.753   7.095  39.094  1.00  0.00     0.126 C
HETATM   12  C3  UNL     1      29.539   6.527  40.283  1.00  0.00     0.056 C
HETATM   13  C4  UNL     1      28.434   5.813  41.023  1.00  0.00     0.234 C
HETATM   14  N3  UNL     1      27.303   6.690  40.928  1.00  0.00    -0.073 N
HETATM   15  C5  UNL     1      27.490   7.547  39.798  1.00  0.00     0.258 C
ATOM     16  H32 UNL     1      26.417   6.185  40.895  1.00  0.00     0.277 HD
ATOM     17  H31 UNL     1      27.136   7.208  41.791  1.00  0.00     0.277 HD
ENDBRANCH   1  11
TORSDOF 3
ENDMDL