MODEL 2
REMARK VINA RESULT: -4.259946352      9.611     10.613
REMARK  4 active torsions:
REMARK  status: ('A' for Active; 'I' for Inactive)
REMARK    1  A    between atoms: N1_1  and  C1_5
REMARK    2  A    between atoms: C1_5  and  C2_6
REMARK    3  A    between atoms: C2_6  and  C3_8
REMARK    4  A    between atoms: C3_8  and  C4_9
ROOT
HETATM    1  C2  UNL     1      30.961   6.543  38.276  1.00  0.00     0.152 C
HETATM    2  O1  UNL     1      31.258   5.829  37.342  1.00  0.00    -0.296 OA
ENDROOT
BRANCH   1   3
HETATM    3  C1  UNL     1      30.026   5.928  39.279  1.00  0.00     0.307 C
BRANCH   3   4
HETATM    4  N1  UNL     1      28.901   5.342  38.638  1.00  0.00    -0.073 N
ATOM      5  H13 UNL     1      28.335   6.043  38.159  1.00  0.00     0.274 HD
ATOM      6  H12 UNL     1      29.178   4.786  37.829  1.00  0.00     0.274 HD
ATOM      7  H11 UNL     1      28.346   4.797  39.297  1.00  0.00     0.274 HD
ENDBRANCH   3   4
ENDBRANCH   1   3
BRANCH   1   8
HETATM    8  C3  UNL     1      31.433   7.918  38.489  1.00  0.00     0.086 C
BRANCH   8   9
HETATM    9  C4  UNL     1      30.358   8.924  38.371  1.00  0.00     0.013 C
HETATM   10  C5  UNL     1      30.938  10.323  38.551  1.00  0.00     0.091 C
HETATM   11  S1  UNL     1      32.014  10.603  37.086  1.00  0.00    -0.097 SA
HETATM   12  S2  UNL     1      30.857   9.318  35.777  1.00  0.00    -0.097 SA
HETATM   13  C6  UNL     1      29.609   8.932  37.074  1.00  0.00     0.091 C
ENDBRANCH   8   9
ENDBRANCH   1   8
TORSDOF 4
ENDMDL