MODEL 5
REMARK VINA RESULT: -8.984675999      1.863      2.433
REMARK  3 active torsions:
REMARK  status: ('A' for Active; 'I' for Inactive)
REMARK    1  A    between atoms: C7_10  and  C8_11
REMARK    2  A    between atoms: C19_26  and  C20_27
REMARK    3  A    between atoms: C20_27  and  C21_28
ROOT
HETATM    1  O1  UNL     1       5.755  33.426  76.355  1.00  0.00    -0.266 OA
HETATM    2  C1  UNL     1       6.776  33.899  75.783  1.00  0.00     0.269 A
HETATM    3  N1  UNL     1       6.819  35.225  75.643  1.00  0.00    -0.319 N
ATOM      4  H1  UNL     1       6.041  35.784  75.994  1.00  0.00     0.169 HD
HETATM    5  C2  UNL     1       7.852  35.845  75.055  1.00  0.00     0.073 A
HETATM    6  C3  UNL     1       7.886  37.207  74.904  1.00  0.00     0.004 A
HETATM    7  C4  UNL     1       6.856  38.076  75.411  1.00  0.00    -0.008 A
HETATM    8  C5  UNL     1       6.462  38.128  76.728  1.00  0.00     0.016 A
HETATM    9  C6  UNL     1       5.457  38.997  77.143  1.00  0.00     0.031 A
HETATM   10  C7  UNL     1       4.815  39.835  76.270  1.00  0.00     0.042 A
HETATM   11  N2  UNL     1       5.209  39.774  74.986  1.00  0.00    -0.364 N
ATOM     12  H2  UNL     1       4.752  40.386  74.310  1.00  0.00     0.165 HD
HETATM   13  C14 UNL     1       6.170  38.954  74.549  1.00  0.00     0.100 A
HETATM   14  C15 UNL     1       9.013  37.743  74.259  1.00  0.00     0.015 A
HETATM   15  C16 UNL     1      10.045  36.992  73.788  1.00  0.00     0.003 A
HETATM   16  C17 UNL     1       9.980  35.621  73.957  1.00  0.00     0.032 A
HETATM   17  C18 UNL     1       8.901  35.057  74.580  1.00  0.00     0.060 A
HETATM   18  N3  UNL     1       8.834  33.731  74.732  1.00  0.00    -0.353 N
ATOM     19  H3  UNL     1       9.602  33.157  74.385  1.00  0.00     0.166 HD
HETATM   20  C19 UNL     1       7.796  33.129  75.325  1.00  0.00     0.082 A
ENDROOT
BRANCH  20  21
HETATM   21  C20 UNL     1       7.789  31.665  75.453  1.00  0.00     0.101 C
BRANCH  21  22
HETATM   22  C21 UNL     1       8.889  31.130  76.279  1.00  0.00    -0.052 A
HETATM   23  C22 UNL     1       9.796  30.204  75.791  1.00  0.00     0.007 A
HETATM   24  C23 UNL     1      10.821  29.735  76.584  1.00  0.00     0.001 A
HETATM   25  C24 UNL     1      10.952  30.184  77.880  1.00  0.00     0.000 A
HETATM   26  C25 UNL     1      10.067  31.093  78.368  1.00  0.00     0.001 A
HETATM   27  C26 UNL     1       9.040  31.564  77.571  1.00  0.00     0.007 A
ENDBRANCH  21  22
ENDBRANCH  20  21
BRANCH  10  28
HETATM   28  C8  UNL     1       3.765  40.742  76.710  1.00  0.00    -0.009 A
HETATM   29  C9  UNL     1       2.511  40.227  77.073  1.00  0.00     0.013 A
HETATM   30  C10 UNL     1       1.474  41.024  77.498  1.00  0.00     0.001 A
HETATM   31  C11 UNL     1       1.630  42.390  77.586  1.00  0.00     0.000 A
HETATM   32  C12 UNL     1       2.853  42.917  77.235  1.00  0.00     0.001 A
HETATM   33  C13 UNL     1       3.907  42.105  76.802  1.00  0.00     0.013 A
ENDBRANCH  10  28
TORSDOF 3
ENDMDL