MODEL 2
REMARK VINA RESULT: -7.325548614      1.339      3.984
REMARK  5 active torsions:
REMARK  status: ('A' for Active; 'I' for Inactive)
REMARK    1  A    between atoms: N1_1  and  N2_4
REMARK    2  A    between atoms: C1_5  and  C2_6
REMARK    3  A    between atoms: C8_14  and  C9_15
REMARK    4  A    between atoms: C15_21  and  C16_22
REMARK    5  A    between atoms: C15_21  and  C22_28
ROOT
HETATM    1  N2  UNL     1       8.294  36.452  76.467  1.00  0.00    -0.261 N
HETATM    2  C1  UNL     1       8.047  37.600  75.680  1.00  0.00     0.130 C
HETATM    3  N3  UNL     1       7.138  38.330  76.228  1.00  0.00    -0.362 N
ATOM      4  H3  UNL     1       6.787  39.209  75.849  1.00  0.00     0.162 HD
HETATM    5  C8  UNL     1       6.681  37.710  77.480  1.00  0.00     0.156 C
HETATM    6  C15 UNL     1       7.139  36.323  77.373  1.00  0.00     0.133 C
ENDROOT
BRANCH   6   7
HETATM    7  C16 UNL     1       6.127  35.408  76.732  1.00  0.00    -0.021 A
HETATM    8  C17 UNL     1       6.163  35.157  75.374  1.00  0.00     0.010 A
HETATM    9  C18 UNL     1       5.229  34.325  74.782  1.00  0.00     0.001 A
HETATM   10  C19 UNL     1       4.241  33.727  75.533  1.00  0.00     0.000 A
HETATM   11  C20 UNL     1       4.178  33.960  76.888  1.00  0.00     0.001 A
HETATM   12  C21 UNL     1       5.128  34.797  77.451  1.00  0.00     0.010 A
ENDBRANCH   6   7
BRANCH   6  13
HETATM   13  C22 UNL     1       7.533  35.629  78.609  1.00  0.00    -0.021 A
HETATM   14  C23 UNL     1       7.929  36.403  79.692  1.00  0.00     0.010 A
HETATM   15  C24 UNL     1       8.302  35.797  80.877  1.00  0.00     0.001 A
HETATM   16  C25 UNL     1       8.297  34.423  81.031  1.00  0.00     0.000 A
HETATM   17  C26 UNL     1       7.905  33.666  79.955  1.00  0.00     0.001 A
HETATM   18  C27 UNL     1       7.529  34.288  78.763  1.00  0.00     0.010 A
ENDBRANCH   6  13
BRANCH   1  19
HETATM   19  N1  UNL     1       9.425  35.659  76.367  1.00  0.00    -0.340 N
ATOM     20  H12 UNL     1       9.671  34.968  75.657  1.00  0.00     0.177 HD
ATOM     21  H11 UNL     1      10.193  35.661  77.037  1.00  0.00     0.177 HD
ENDBRANCH   1  19
BRANCH   5  22
HETATM   22  C9  UNL     1       5.266  37.992  77.675  1.00  0.00    -0.032 A
HETATM   23  C10 UNL     1       4.578  37.460  78.735  1.00  0.00     0.009 A
HETATM   24  C11 UNL     1       3.221  37.759  78.931  1.00  0.00     0.001 A
HETATM   25  C12 UNL     1       2.561  38.595  78.056  1.00  0.00     0.000 A
HETATM   26  C13 UNL     1       3.251  39.128  76.993  1.00  0.00     0.001 A
HETATM   27  C14 UNL     1       4.576  38.818  76.827  1.00  0.00     0.009 A
ENDBRANCH   5  22
BRANCH   2  28
HETATM   28  C2  UNL     1       8.692  38.008  74.421  1.00  0.00     0.009 A
HETATM   29  C3  UNL     1       9.943  37.551  74.113  1.00  0.00     0.015 A
HETATM   30  C4  UNL     1      10.525  37.973  72.920  1.00  0.00     0.001 A
HETATM   31  C5  UNL     1       9.867  38.824  72.065  1.00  0.00     0.000 A
HETATM   32  C6  UNL     1       8.605  39.293  72.358  1.00  0.00     0.001 A
HETATM   33  C7  UNL     1       8.040  38.874  73.534  1.00  0.00     0.015 A
ENDBRANCH   2  28
TORSDOF 5
ENDMDL