MODEL 3
REMARK VINA RESULT: -9.267003345      2.039      4.145
REMARK  5 active torsions:
REMARK  status: ('A' for Active; 'I' for Inactive)
REMARK    1  A    between atoms: C4_4  and  C5_5
REMARK    2  A    between atoms: C5_5  and  C6_6
REMARK    3  A    between atoms: C8_10  and  N2_11
REMARK    4  A    between atoms: N2_11  and  C9_13
REMARK    5  A    between atoms: C19_25  and  C20_26
ROOT
HETATM    1  C6  UNL     1       7.233  36.845  76.073  1.00  0.00    -0.010 A
HETATM    2  C7  UNL     1       7.106  37.929  77.006  1.00  0.00     0.116 A
HETATM    3  N1  UNL     1       5.949  38.063  77.652  1.00  0.00    -0.201 N
ATOM      4  H1  UNL     1       5.848  38.830  78.316  1.00  0.00     0.183 HD
HETATM    5  C8  UNL     1       4.904  37.228  77.468  1.00  0.00     0.683 A
HETATM    6  N3  UNL     1       5.050  36.229  76.592  1.00  0.00    -0.190 N
ATOM      7  H3  UNL     1       4.264  35.595  76.447  1.00  0.00     0.184 HD
HETATM    8  C19 UNL     1       6.205  36.011  75.874  1.00  0.00     0.067 A
ENDROOT
BRANCH   5   9
HETATM    9  N2  UNL     1       3.783  37.356  78.096  1.00  0.00    -0.192 N
ATOM     10  H2  UNL     1       3.363  36.502  78.465  1.00  0.00     0.184 HD
BRANCH   9  11
HETATM   11  C9  UNL     1       3.085  38.549  78.321  1.00  0.00     0.050 A
HETATM   12  C10 UNL     1       2.082  38.597  79.263  1.00  0.00     0.031 A
HETATM   13  C11 UNL     1       1.374  39.769  79.500  1.00  0.00     0.014 A
HETATM   14  C12 UNL     1       1.673  40.912  78.783  1.00  0.00    -0.026 A
HETATM   15  C13 UNL     1       0.974  42.098  79.008  1.00  0.00     0.012 A
HETATM   16  C17 UNL     1       2.667  40.887  77.841  1.00  0.00    -0.024 A
HETATM   17  C14 UNL     1       1.256  43.243  78.309  1.00  0.00     0.001 A
HETATM   18  C15 UNL     1       2.252  43.208  77.367  1.00  0.00     0.001 A
HETATM   19  C16 UNL     1       2.943  42.041  77.144  1.00  0.00     0.012 A
HETATM   20  C18 UNL     1       3.361  39.704  77.624  1.00  0.00     0.042 A
ENDBRANCH   9  11
ENDBRANCH   5   9
BRANCH   8  21
HETATM   21  C20 UNL     1       6.173  34.868  74.988  1.00  0.00    -0.006 A
HETATM   22  C21 UNL     1       6.126  34.839  73.641  1.00  0.00     0.030 A
HETATM   23  C22 UNL     1       6.183  33.708  72.861  1.00  0.00     0.088 A
HETATM   24  N4  UNL     1       6.293  32.529  73.493  1.00  0.00    -0.375 N
HETATM   25  C23 UNL     1       6.342  32.490  74.854  1.00  0.00     0.088 A
ATOM     26  H4  UNL     1       6.339  31.664  72.955  1.00  0.00     0.164 HD
HETATM   27  C24 UNL     1       6.287  33.607  75.632  1.00  0.00     0.030 A
ENDBRANCH   8  21
BRANCH   1  28
HETATM   28  C5  UNL     1       8.580  36.666  75.541  1.00  0.00     0.080 C
BRANCH  28  29
HETATM   29  C4  UNL     1       8.884  37.529  74.364  1.00  0.00    -0.054 A
HETATM   30  C3  UNL     1      10.175  37.428  73.827  1.00  0.00     0.007 A
HETATM   31  C2  UNL     1      10.577  38.184  72.746  1.00  0.00     0.001 A
HETATM   32  C1  UNL     1       9.701  39.076  72.156  1.00  0.00     0.000 A
HETATM   33  C26 UNL     1       8.443  39.184  72.669  1.00  0.00     0.001 A
HETATM   34  C25 UNL     1       8.052  38.413  73.761  1.00  0.00     0.007 A
ENDBRANCH  28  29
ENDBRANCH   1  28
TORSDOF 5
ENDMDL