MODEL 3
REMARK VINA RESULT: -9.362398408      1.406      2.553
REMARK  5 active torsions:
REMARK  status: ('A' for Active; 'I' for Inactive)
REMARK    1  A    between atoms: C3_4  and  C4_5
REMARK    2  A    between atoms: C6_7  and  C7_8
REMARK    3  A    between atoms: C8_9  and  C9_10
REMARK    4  A    between atoms: N3_26  and  C21_27
REMARK    5  A    between atoms: C21_27  and  C22_28
ROOT
HETATM    1  O1  UNL     1       3.023  41.304  76.658  1.00  0.00    -0.267 OA
HETATM    2  C1  UNL     1       2.769  40.192  77.169  1.00  0.00     0.259 A
HETATM    3  C2  UNL     1       3.824  39.141  77.357  1.00  0.00     0.047 A
HETATM    4  C3  UNL     1       5.073  39.313  77.038  1.00  0.00     0.049 C
HETATM    5  C15 UNL     1       3.132  38.022  77.972  1.00  0.00     0.007 A
HETATM    6  C16 UNL     1       3.562  36.771  78.411  1.00  0.00     0.015 A
HETATM    7  C17 UNL     1       2.677  35.887  78.990  1.00  0.00     0.001 A
HETATM    8  C18 UNL     1       1.360  36.237  79.141  1.00  0.00     0.002 A
HETATM    9  C19 UNL     1       0.879  37.458  78.731  1.00  0.00     0.030 A
HETATM   10  C20 UNL     1       1.776  38.335  78.151  1.00  0.00     0.049 A
HETATM   11  N3  UNL     1       1.575  39.662  77.656  1.00  0.00    -0.307 N
ENDROOT
BRANCH   4  12
HETATM   12  C4  UNL     1       6.250  38.471  77.111  1.00  0.00     0.051 A
HETATM   13  C5  UNL     1       6.967  37.913  76.099  1.00  0.00     0.061 A
HETATM   14  C6  UNL     1       8.054  37.168  76.614  1.00  0.00     0.050 A
HETATM   15  N1  UNL     1       7.906  37.334  77.944  1.00  0.00    -0.300 N
HETATM   16  N2  UNL     1       6.874  38.083  78.255  1.00  0.00    -0.300 N
ATOM     17  H1  UNL     1       8.532  36.922  78.636  1.00  0.00     0.187 HD
ATOM     18  H2  UNL     1       6.586  38.332  79.202  1.00  0.00     0.187 HD
BRANCH  14  19
HETATM   19  C7  UNL     1       8.943  36.357  75.834  1.00  0.00     0.032 C
HETATM   20  C8  UNL     1       9.475  36.430  74.700  1.00  0.00     0.013 C
BRANCH  20  21
HETATM   21  C9  UNL     1       9.428  37.373  73.622  1.00  0.00    -0.036 A
HETATM   22  C10 UNL     1       8.157  37.599  73.054  1.00  0.00     0.011 A
HETATM   23  C11 UNL     1       7.906  38.535  72.096  1.00  0.00     0.001 A
HETATM   24  C12 UNL     1       8.970  39.311  71.654  1.00  0.00     0.000 A
HETATM   25  C13 UNL     1      10.232  39.120  72.185  1.00  0.00     0.001 A
HETATM   26  C14 UNL     1      10.436  38.164  73.153  1.00  0.00     0.011 A
ENDBRANCH  20  21
ENDBRANCH  14  19
ENDBRANCH   4  12
BRANCH  11  27
HETATM   27  C21 UNL     1       0.310  40.399  77.651  1.00  0.00     0.197 C
BRANCH  27  28
HETATM   28  C22 UNL     1       0.238  41.266  78.873  1.00  0.00     0.070 A
HETATM   29  C23 UNL     1       0.184  40.915  80.198  1.00  0.00     0.036 A
HETATM   30  C24 UNL     1       0.127  42.058  80.966  1.00  0.00     0.027 A
HETATM   31  C25 UNL     1       0.151  43.090  80.050  1.00  0.00     0.142 A
HETATM   32  O2  UNL     1       0.216  42.587  78.841  1.00  0.00    -0.325 OA
ENDBRANCH  27  28
ENDBRANCH  11  27
TORSDOF 5
ENDMDL