MODEL 3
REMARK VINA RESULT: -9.731963648      0.715      1.032
REMARK  5 active torsions:
REMARK  status: ('A' for Active; 'I' for Inactive)
REMARK    1  A    between atoms: C4_4  and  C5_5
REMARK    2  A    between atoms: C5_5  and  N1_6
REMARK    3  A    between atoms: N1_6  and  C6_7
REMARK    4  A    between atoms: C7_10  and  C8_11
REMARK    5  A    between atoms: C11_14  and  C12_15
ROOT
HETATM    1  C6  UNL     1       9.860  34.137  73.558  1.00  0.00     0.192 A
HETATM    2  N2  UNL     1      10.978  33.452  73.177  1.00  0.00    -0.316 N
ATOM      3  H2  UNL     1      11.877  33.827  73.481  1.00  0.00     0.170 HD
HETATM    4  C7  UNL     1      11.002  32.347  72.448  1.00  0.00     0.118 A
HETATM    5  N4  UNL     1       9.799  31.862  72.051  1.00  0.00    -0.341 N
ATOM      6  H4  UNL     1       9.765  31.012  71.488  1.00  0.00     0.167 HD
HETATM    7  C19 UNL     1       8.654  32.472  72.381  1.00  0.00     0.048 A
HETATM    8  C20 UNL     1       7.466  31.928  71.947  1.00  0.00     0.030 A
HETATM    9  C21 UNL     1       6.267  32.533  72.269  1.00  0.00     0.002 A
HETATM   10  C22 UNL     1       6.235  33.694  73.034  1.00  0.00     0.001 A
HETATM   11  C23 UNL     1       7.434  34.248  73.476  1.00  0.00     0.018 A
HETATM   12  C24 UNL     1       8.626  33.615  73.135  1.00  0.00     0.049 A
ENDROOT
BRANCH   4  13
HETATM   13  C8  UNL     1      12.230  31.647  72.064  1.00  0.00     0.008 A
HETATM   14  C9  UNL     1      13.425  32.337  72.069  1.00  0.00     0.016 A
HETATM   15  C10 UNL     1      14.631  31.731  71.715  1.00  0.00     0.013 A
HETATM   16  C11 UNL     1      14.645  30.410  71.348  1.00  0.00    -0.025 A
HETATM   17  C17 UNL     1      13.446  29.733  71.347  1.00  0.00     0.013 A
HETATM   18  C18 UNL     1      12.237  30.343  71.703  1.00  0.00     0.016 A
BRANCH  16  19
HETATM   19  C12 UNL     1      15.908  29.774  70.978  1.00  0.00    -0.011 A
HETATM   20  C13 UNL     1      15.913  28.618  70.210  1.00  0.00     0.015 A
HETATM   21  C14 UNL     1      17.108  28.018  69.860  1.00  0.00     0.018 A
HETATM   22  C15 UNL     1      18.325  28.536  70.255  1.00  0.00     0.087 A
HETATM   23  N3  UNL     1      18.303  29.658  71.000  1.00  0.00    -0.374 N
HETATM   24  C16 UNL     1      17.141  30.265  71.356  1.00  0.00     0.099 A
ATOM     25  H3  UNL     1      19.186  30.065  71.306  1.00  0.00     0.164 HD
ENDBRANCH  16  19
ENDBRANCH   4  13
BRANCH   1  26
HETATM   26  N1  UNL     1       9.882  35.147  74.226  1.00  0.00    -0.398 NA
BRANCH  26  27
HETATM   27  C5  UNL     1       9.887  36.339  74.811  1.00  0.00     0.196 C
BRANCH  27  28
HETATM   28  C4  UNL     1       9.501  37.512  73.921  1.00  0.00    -0.007 A
HETATM   29  C3  UNL     1       8.226  38.025  73.909  1.00  0.00     0.014 A
HETATM   30  C2  UNL     1       7.924  39.089  73.085  1.00  0.00     0.001 A
HETATM   31  C1  UNL     1       8.872  39.663  72.261  1.00  0.00     0.000 A
HETATM   32  C26 UNL     1      10.138  39.147  72.278  1.00  0.00     0.001 A
HETATM   33  C25 UNL     1      10.440  38.084  73.102  1.00  0.00     0.014 A
ENDBRANCH  27  28
ENDBRANCH  26  27
ENDBRANCH   1  26
TORSDOF 5
ENDMDL