MODEL 1
REMARK VINA RESULT: -10.393551898      0.000      0.000
REMARK  4 active torsions:
REMARK  status: ('A' for Active; 'I' for Inactive)
REMARK    1  A    between atoms: C4_4  and  C5_5
REMARK    2  A    between atoms: C13_17  and  C14_18
REMARK    3  A    between atoms: C14_18  and  C15_19
REMARK    4  A    between atoms: C15_19  and  N3_20
ROOT
HETATM    1  C5  UNL     1       7.390  36.282  73.790  1.00  0.00     0.055 A
HETATM    2  N1  UNL     1       7.333  35.064  73.197  1.00  0.00    -0.354 N
ATOM      3  H1  UNL     1       7.920  34.855  72.389  1.00  0.00     0.166 HD
HETATM    4  C6  UNL     1       6.500  34.144  73.685  1.00  0.00     0.045 A
HETATM    5  C7  UNL     1       6.452  32.908  73.073  1.00  0.00     0.030 A
HETATM    6  C8  UNL     1       5.603  31.934  73.549  1.00  0.00     0.002 A
HETATM    7  C9  UNL     1       4.797  32.175  74.636  1.00  0.00     0.001 A
HETATM    8  C10 UNL     1       4.859  33.416  75.233  1.00  0.00     0.016 A
HETATM    9  C11 UNL     1       5.698  34.409  74.779  1.00  0.00     0.018 A
HETATM   10  C12 UNL     1       5.726  35.635  75.409  1.00  0.00     0.057 A
HETATM   11  N2  UNL     1       5.091  36.186  76.452  1.00  0.00    -0.358 N
ATOM     12  H2  UNL     1       4.391  35.712  77.022  1.00  0.00     0.166 HD
HETATM   13  C13 UNL     1       5.504  37.450  76.640  1.00  0.00     0.012 A
HETATM   14  C23 UNL     1       6.450  37.703  75.662  1.00  0.00     0.041 A
HETATM   15  C24 UNL     1       6.603  36.579  74.882  1.00  0.00     0.021 A
ENDROOT
BRANCH  13  16
HETATM   16  C14 UNL     1       5.027  38.369  77.694  1.00  0.00     0.077 C
BRANCH  16  17
HETATM   17  C15 UNL     1       3.592  38.805  77.388  1.00  0.00     0.136 C
BRANCH  17  18
HETATM   18  N3  UNL     1       3.571  40.228  77.109  1.00  0.00    -0.341 N
HETATM   19  C16 UNL     1       4.412  40.863  76.278  1.00  0.00     0.183 A
HETATM   20  N4  UNL     1       4.106  42.164  76.262  1.00  0.00    -0.350 N
HETATM   21  C17 UNL     1       3.071  42.377  77.079  1.00  0.00     0.060 A
ATOM     22  H4  UNL     1       4.585  42.879  75.716  1.00  0.00     0.166 HD
HETATM   23  C18 UNL     1       2.342  43.499  77.452  1.00  0.00     0.032 A
HETATM   24  C22 UNL     1       2.737  41.153  77.611  1.00  0.00     0.062 A
HETATM   25  C19 UNL     1       1.310  43.401  78.331  1.00  0.00     0.002 A
HETATM   26  C20 UNL     1       0.972  42.177  78.866  1.00  0.00     0.002 A
HETATM   27  C21 UNL     1       1.688  41.060  78.503  1.00  0.00     0.032 A
ENDBRANCH  17  18
ENDBRANCH  16  17
ENDBRANCH  13  16
BRANCH   1  28
HETATM   28  C4  UNL     1       8.277  37.328  73.296  1.00  0.00    -0.009 A
HETATM   29  C3  UNL     1       7.849  38.410  72.561  1.00  0.00     0.014 A
HETATM   30  C2  UNL     1       8.726  39.369  72.107  1.00  0.00     0.001 A
HETATM   31  C1  UNL     1      10.076  39.255  72.392  1.00  0.00     0.000 A
HETATM   32  C26 UNL     1      10.545  38.189  73.126  1.00  0.00     0.001 A
HETATM   33  C25 UNL     1       9.648  37.243  73.568  1.00  0.00     0.014 A
ENDBRANCH   1  28
TORSDOF 4
ENDMDL