MODEL 5
REMARK VINA RESULT: -8.727639397      3.054      6.215
REMARK  5 active torsions:
REMARK  status: ('A' for Active; 'I' for Inactive)
REMARK    1  A    between atoms: C5_5  and  C6_6
REMARK    2  A    between atoms: C6_6  and  N1_7
REMARK    3  A    between atoms: C10_11  and  C11_12
REMARK    4  A    between atoms: N2_13  and  N3_15
REMARK    5  A    between atoms: N3_15  and  C12_17
ROOT
HETATM    1  N3  UNL     1       4.443  38.312  77.511  1.00  0.00    -0.299 N
ATOM      2  H3  UNL     1       4.467  38.106  76.512  1.00  0.00     0.187 HD
ENDROOT
BRANCH   1   3
HETATM    3  N2  UNL     1       5.513  37.811  78.025  1.00  0.00    -0.309 N
HETATM    4  C11 UNL     1       6.307  36.850  77.867  1.00  0.00     0.136 C
ATOM      5  H2  UNL     1       5.814  38.380  78.818  1.00  0.00     0.186 HD
BRANCH   4   6
HETATM    6  C10 UNL     1       6.219  35.820  76.843  1.00  0.00     0.051 A
HETATM    7  N1  UNL     1       7.192  35.337  76.059  1.00  0.00    -0.351 N
HETATM    8  C7  UNL     1       6.681  34.378  75.271  1.00  0.00     0.091 A
HETATM    9  C8  UNL     1       5.355  34.246  75.554  1.00  0.00     0.020 A
HETATM   10  C9  UNL     1       5.048  35.150  76.545  1.00  0.00     0.032 A
BRANCH   7  11
HETATM   11  C6  UNL     1       8.555  35.812  76.075  1.00  0.00     0.167 C
BRANCH  11  12
HETATM   12  C5  UNL     1       8.873  36.770  74.990  1.00  0.00    -0.040 A
HETATM   13  C4  UNL     1       7.963  37.721  74.569  1.00  0.00     0.009 A
HETATM   14  C3  UNL     1       8.265  38.597  73.559  1.00  0.00     0.007 A
HETATM   15  C2  UNL     1       9.481  38.582  72.909  1.00  0.00    -0.062 A
HETATM   16  C1  UNL     1       9.755  39.551  71.824  1.00  0.00     0.048 C
HETATM   17  C26 UNL     1      10.375  37.634  73.336  1.00  0.00     0.007 A
HETATM   18  C25 UNL     1      10.092  36.730  74.362  1.00  0.00     0.009 A
ENDBRANCH  11  12
ENDBRANCH   7  11
ENDBRANCH   4   6
ENDBRANCH   1   3
BRANCH   1  19
HETATM   19  C12 UNL     1       3.398  38.938  77.726  1.00  0.00     0.073 A
HETATM   20  C13 UNL     1       2.264  38.240  78.221  1.00  0.00     0.020 A
HETATM   21  C14 UNL     1       2.368  36.880  78.442  1.00  0.00     0.016 A
HETATM   22  C18 UNL     1       1.093  38.861  78.479  1.00  0.00     0.045 A
HETATM   23  C15 UNL     1       1.306  36.141  78.920  1.00  0.00     0.001 A
HETATM   24  C16 UNL     1       0.090  36.771  79.191  1.00  0.00     0.002 A
HETATM   25  C17 UNL     1       0.026  38.122  78.959  1.00  0.00     0.030 A
HETATM   26  N4  UNL     1       0.966  40.178  78.273  1.00  0.00    -0.355 N
HETATM   27  C19 UNL     1       1.999  40.910  77.805  1.00  0.00     0.045 A
ATOM     28  H4  UNL     1       0.076  40.634  78.472  1.00  0.00     0.166 HD
HETATM   29  C20 UNL     1       1.779  42.267  77.619  1.00  0.00     0.030 A
HETATM   30  C24 UNL     1       3.197  40.307  77.534  1.00  0.00     0.020 A
HETATM   31  C21 UNL     1       2.821  43.023  77.143  1.00  0.00     0.002 A
HETATM   32  C22 UNL     1       4.044  42.458  76.857  1.00  0.00     0.001 A
HETATM   33  C23 UNL     1       4.224  41.089  77.057  1.00  0.00     0.016 A
ENDBRANCH   1  19
TORSDOF 5
ENDMDL