MODEL 5
REMARK VINA RESULT: -9.712275402      4.288      8.854
REMARK  5 active torsions:
REMARK  status: ('A' for Active; 'I' for Inactive)
REMARK    1  A    between atoms: C4_4  and  C5_5
REMARK    2  A    between atoms: C11_15  and  N3_16
REMARK    3  A    between atoms: N3_16  and  C12_18
REMARK    4  A    between atoms: C12_18  and  C13_19
REMARK    5  A    between atoms: C12_18  and  C19_25
ROOT
HETATM    1  C5  UNL     1      10.335  32.164  72.317  1.00  0.00     0.118 A
HETATM    2  N1  UNL     1       9.427  31.195  72.539  1.00  0.00    -0.327 N
ATOM      3  H1  UNL     1       9.604  30.274  72.139  1.00  0.00     0.169 HD
HETATM    4  C6  UNL     1       8.305  31.366  73.252  1.00  0.00     0.120 A
HETATM    5  N2  UNL     1       7.426  30.350  73.442  1.00  0.00    -0.351 N
ATOM      6  H2  UNL     1       7.602  29.429  73.042  1.00  0.00     0.166 HD
HETATM    7  C7  UNL     1       6.302  30.588  74.179  1.00  0.00     0.090 A
HETATM    8  C8  UNL     1       6.050  31.820  74.723  1.00  0.00     0.018 A
HETATM    9  C9  UNL     1       6.952  32.833  74.519  1.00  0.00     0.020 A
HETATM   10  C10 UNL     1       8.106  32.627  73.776  1.00  0.00     0.052 A
HETATM   11  C11 UNL     1       9.012  33.658  73.575  1.00  0.00     0.117 A
HETATM   12  N4  UNL     1      10.105  33.377  72.843  1.00  0.00    -0.327 N
ATOM     13  H4  UNL     1      10.787  34.118  72.680  1.00  0.00     0.169 HD
ENDROOT
BRANCH  11  14
HETATM   14  N3  UNL     1       8.737  34.774  74.096  1.00  0.00    -0.363 N
ATOM     15  H3  UNL     1       7.744  35.007  74.125  1.00  0.00     0.162 HD
BRANCH  14  16
HETATM   16  C12 UNL     1       9.605  35.755  74.649  1.00  0.00     0.149 C
BRANCH  16  17
HETATM   17  C13 UNL     1       9.398  37.023  73.861  1.00  0.00    -0.031 A
HETATM   18  C14 UNL     1       8.155  37.613  73.743  1.00  0.00     0.009 A
HETATM   19  C15 UNL     1       7.957  38.772  73.025  1.00  0.00     0.001 A
HETATM   20  C16 UNL     1       9.040  39.386  72.388  1.00  0.00     0.000 A
HETATM   21  C17 UNL     1      10.289  38.801  72.502  1.00  0.00     0.001 A
HETATM   22  C18 UNL     1      10.467  37.638  73.227  1.00  0.00     0.009 A
ENDBRANCH  16  17
BRANCH  16  23
HETATM   23  C19 UNL     1       9.196  36.101  76.057  1.00  0.00    -0.031 A
HETATM   24  C20 UNL     1       8.113  35.507  76.669  1.00  0.00     0.009 A
HETATM   25  C21 UNL     1       7.727  35.813  77.959  1.00  0.00     0.001 A
HETATM   26  C22 UNL     1       8.451  36.750  78.659  1.00  0.00     0.000 A
HETATM   27  C23 UNL     1       9.540  37.368  78.086  1.00  0.00     0.001 A
HETATM   28  C24 UNL     1       9.902  37.035  76.786  1.00  0.00     0.009 A
ENDBRANCH  16  23
ENDBRANCH  14  16
ENDBRANCH  11  14
BRANCH   1  29
HETATM   29  C4  UNL     1      11.504  31.831  71.524  1.00  0.00     0.008 A
HETATM   30  C3  UNL     1      11.383  31.087  70.366  1.00  0.00     0.015 A
HETATM   31  C2  UNL     1      12.491  30.762  69.598  1.00  0.00     0.001 A
HETATM   32  C1  UNL     1      13.755  31.169  69.963  1.00  0.00     0.000 A
HETATM   33  C26 UNL     1      13.880  31.910  71.115  1.00  0.00     0.001 A
HETATM   34  C25 UNL     1      12.763  32.242  71.894  1.00  0.00     0.015 A
ENDBRANCH   1  29
TORSDOF 5
ENDMDL