MODEL 2
REMARK VINA RESULT: -10.097255461      6.938     14.058
REMARK  4 active torsions:
REMARK  status: ('A' for Active; 'I' for Inactive)
REMARK    1  A    between atoms: C4_4  and  C5_5
REMARK    2  A    between atoms: C5_5  and  N1_6
REMARK    3  A    between atoms: N1_6  and  C6_8
REMARK    4  A    between atoms: C10_16  and  C11_17
ROOT
HETATM    1  C6  UNL     1       6.563  36.044  76.190  1.00  0.00     0.114 A
HETATM    2  N2  UNL     1       6.618  34.937  76.936  1.00  0.00    -0.338 N
ATOM      3  H2  UNL     1       7.258  34.191  76.664  1.00  0.00     0.168 HD
HETATM    4  C7  UNL     1       5.853  34.772  78.039  1.00  0.00     0.182 A
HETATM    5  N3  UNL     1       5.014  35.754  78.394  1.00  0.00    -0.352 N
ATOM      6  H3  UNL     1       4.438  35.626  79.227  1.00  0.00     0.166 HD
HETATM    7  C8  UNL     1       4.894  36.895  77.704  1.00  0.00     0.047 A
HETATM    8  C9  UNL     1       4.042  37.919  78.044  1.00  0.00     0.042 A
HETATM    9  C10 UNL     1       3.930  39.093  77.322  1.00  0.00    -0.022 A
HETATM   10  C22 UNL     1       4.746  39.206  76.191  1.00  0.00     0.013 A
HETATM   11  C23 UNL     1       5.610  38.194  75.828  1.00  0.00     0.018 A
HETATM   12  C24 UNL     1       5.678  37.045  76.588  1.00  0.00     0.034 A
ENDROOT
BRANCH   9  13
HETATM   13  C11 UNL     1       3.024  40.160  77.700  1.00  0.00    -0.010 A
HETATM   14  C12 UNL     1       2.166  40.043  78.765  1.00  0.00     0.016 A
HETATM   15  C13 UNL     1       1.304  41.058  79.125  1.00  0.00     0.031 A
HETATM   16  C14 UNL     1       1.308  42.222  78.392  1.00  0.00     0.042 A
HETATM   17  C15 UNL     1       0.457  43.354  78.666  1.00  0.00    -0.009 A
HETATM   18  N4  UNL     1       2.159  42.347  77.329  1.00  0.00    -0.364 N
HETATM   19  C16 UNL     1      -0.434  43.337  79.706  1.00  0.00     0.013 A
HETATM   20  C20 UNL     1       0.514  44.483  77.892  1.00  0.00     0.013 A
HETATM   21  C17 UNL     1      -1.260  44.428  79.977  1.00  0.00     0.001 A
HETATM   22  C18 UNL     1      -1.185  45.548  79.187  1.00  0.00     0.000 A
HETATM   23  C19 UNL     1      -0.293  45.579  78.136  1.00  0.00     0.001 A
HETATM   24  C21 UNL     1       2.991  41.341  76.999  1.00  0.00     0.100 A
ATOM     25  H4  UNL     1       2.164  43.208  76.783  1.00  0.00     0.165 HD
ENDBRANCH   9  13
BRANCH   1  26
HETATM   26  N1  UNL     1       7.264  36.226  75.155  1.00  0.00    -0.371 N
ATOM     27  H1  UNL     1       6.761  36.334  74.274  1.00  0.00     0.161 HD
BRANCH  26  28
HETATM   28  C5  UNL     1       8.687  36.296  75.094  1.00  0.00     0.160 C
BRANCH  28  29
HETATM   29  C4  UNL     1       9.113  37.331  74.101  1.00  0.00    -0.041 A
HETATM   30  C3  UNL     1      10.386  37.395  73.615  1.00  0.00     0.009 A
HETATM   31  C2  UNL     1      10.729  38.373  72.695  1.00  0.00     0.001 A
HETATM   32  C1  UNL     1       9.815  39.303  72.243  1.00  0.00     0.000 A
HETATM   33  C26 UNL     1       8.539  39.240  72.729  1.00  0.00     0.001 A
HETATM   34  C25 UNL     1       8.205  38.264  73.643  1.00  0.00     0.009 A
ENDBRANCH  28  29
ENDBRANCH  26  28
ENDBRANCH   1  26
TORSDOF 4
ENDMDL