MODEL 2
REMARK VINA RESULT: -9.259535956      1.529      2.008
REMARK  5 active torsions:
REMARK  status: ('A' for Active; 'I' for Inactive)
REMARK    1  A    between atoms: C4_6  and  C5_7
REMARK    2  A    between atoms: C5_7  and  N2_8
REMARK    3  A    between atoms: N2_8  and  C6_10
REMARK    4  A    between atoms: C11_15  and  C12_16
REMARK    5  A    between atoms: C15_19  and  C16_20
ROOT
HETATM    1  C6  UNL     1       7.964  36.440  74.327  1.00  0.00     0.101 A
HETATM    2  C7  UNL     1       7.709  37.516  73.506  1.00  0.00     0.049 A
HETATM    3  C8  UNL     1       6.826  38.504  73.904  1.00  0.00     0.017 A
HETATM    4  C9  UNL     1       6.222  38.366  75.138  1.00  0.00    -0.009 A
HETATM    5  C10 UNL     1       5.340  39.339  75.553  1.00  0.00     0.026 A
HETATM    6  C11 UNL     1       4.684  39.287  76.780  1.00  0.00    -0.025 A
HETATM    7  C23 UNL     1       4.966  38.186  77.580  1.00  0.00     0.014 A
HETATM    8  C24 UNL     1       5.846  37.204  77.178  1.00  0.00     0.031 A
HETATM    9  C25 UNL     1       6.491  37.284  75.940  1.00  0.00     0.044 A
HETATM   10  N4  UNL     1       7.347  36.347  75.529  1.00  0.00    -0.342 N
ATOM     11  H4  UNL     1       7.541  35.546  76.130  1.00  0.00     0.167 HD
ENDROOT
BRANCH   6  12
HETATM   12  C12 UNL     1       3.767  40.333  77.168  1.00  0.00    -0.026 A
HETATM   13  C13 UNL     1       2.654  40.015  77.899  1.00  0.00     0.013 A
HETATM   14  C14 UNL     1       1.767  41.018  78.281  1.00  0.00     0.013 A
HETATM   15  C15 UNL     1       1.954  42.341  77.956  1.00  0.00    -0.026 A
HETATM   16  C21 UNL     1       3.101  42.646  77.209  1.00  0.00     0.013 A
HETATM   17  C22 UNL     1       3.979  41.645  76.831  1.00  0.00     0.013 A
BRANCH  15  18
HETATM   18  C16 UNL     1       1.023  43.371  78.363  1.00  0.00    -0.023 A
HETATM   19  C17 UNL     1       0.218  43.241  79.465  1.00  0.00     0.029 A
HETATM   20  C18 UNL     1      -0.676  44.256  79.835  1.00  0.00     0.088 A
HETATM   21  N3  UNL     1      -0.735  45.390  79.076  1.00  0.00    -0.375 N
HETATM   22  C19 UNL     1       0.043  45.540  77.994  1.00  0.00     0.088 A
ATOM     23  H3  UNL     1      -1.381  46.135  79.336  1.00  0.00     0.164 HD
HETATM   24  C20 UNL     1       0.919  44.538  77.636  1.00  0.00     0.029 A
ENDBRANCH  15  18
ENDBRANCH   6  12
BRANCH   1  25
HETATM   25  N2  UNL     1       8.790  35.532  73.948  1.00  0.00    -0.372 N
ATOM     26  H2  UNL     1       9.548  35.827  73.333  1.00  0.00     0.161 HD
BRANCH  25  27
HETATM   27  C5  UNL     1       8.750  34.158  74.300  1.00  0.00     0.161 C
BRANCH  27  28
HETATM   28  C4  UNL     1       7.511  33.454  73.833  1.00  0.00    -0.025 A
HETATM   29  C3  UNL     1       6.567  32.943  74.696  1.00  0.00     0.096 A
HETATM   30  N1  UNL     1       5.488  32.328  74.207  1.00  0.00    -0.375 N
HETATM   31  C2  UNL     1       5.255  32.171  72.891  1.00  0.00     0.087 A
ATOM     32  H1  UNL     1       4.803  31.957  74.866  1.00  0.00     0.164 HD
HETATM   33  C1  UNL     1       6.187  32.674  72.019  1.00  0.00     0.018 A
HETATM   34  C26 UNL     1       7.310  33.313  72.486  1.00  0.00     0.011 A
ENDBRANCH  27  28
ENDBRANCH  25  27
ENDBRANCH   1  25
TORSDOF 5
ENDMDL