MODEL 2
REMARK VINA RESULT: -9.133841995      5.557     11.680
REMARK  4 active torsions:
REMARK  status: ('A' for Active; 'I' for Inactive)
REMARK       I    between atoms: C1_2  and  N1_3
REMARK    1  A    between atoms: C1_2  and  C15_21
REMARK    2  A    between atoms: N1_3  and  C2_4
REMARK    3  A    between atoms: C18_24  and  C19_25
REMARK    4  A    between atoms: C19_25  and  C20_26
ROOT
HETATM    1  C2  UNL     1       9.056  35.118  74.778  1.00  0.00     0.303 A
HETATM    2  N2  UNL     1       9.558  36.132  73.866  1.00  0.00    -0.353 N
ATOM      3  H2  UNL     1      10.458  35.833  73.488  1.00  0.00     0.163 HD
HETATM    4  C3  UNL     1       9.258  37.244  73.391  1.00  0.00     0.057 A
HETATM    5  C4  UNL     1      10.228  37.743  72.502  1.00  0.00     0.031 A
HETATM    6  C5  UNL     1      10.090  38.961  71.884  1.00  0.00     0.002 A
HETATM    7  C6  UNL     1       8.971  39.709  72.146  1.00  0.00     0.002 A
HETATM    8  C7  UNL     1       8.010  39.212  73.028  1.00  0.00     0.032 A
HETATM    9  C8  UNL     1       8.133  37.996  73.653  1.00  0.00     0.059 A
HETATM   10  N3  UNL     1       7.127  37.688  74.410  1.00  0.00    -0.354 N
ATOM     11  H3  UNL     1       6.395  38.396  74.467  1.00  0.00     0.166 HD
HETATM   12  C9  UNL     1       6.892  36.514  75.174  1.00  0.00     0.043 A
HETATM   13  C10 UNL     1       5.653  36.544  75.816  1.00  0.00     0.030 A
HETATM   14  C11 UNL     1       5.227  35.498  76.602  1.00  0.00     0.002 A
HETATM   15  C12 UNL     1       6.031  34.396  76.766  1.00  0.00     0.001 A
HETATM   16  C13 UNL     1       7.249  34.371  76.133  1.00  0.00     0.014 A
HETATM   17  C14 UNL     1       7.692  35.435  75.327  1.00  0.00     0.023 A
ENDROOT
BRANCH   1  18
HETATM   18  N1  UNL     1       9.167  33.855  74.296  1.00  0.00    -0.379 NA
HETATM   19  C1  UNL     1       9.281  32.552  73.798  1.00  0.00     0.323 C
HETATM   20  O1  UNL     1       8.573  31.588  74.158  1.00  0.00    -0.251 OA
BRANCH  19  21
HETATM   21  C15 UNL     1      10.305  32.242  72.762  1.00  0.00     0.046 A
HETATM   22  C16 UNL     1      11.099  33.267  72.311  1.00  0.00     0.018 A
HETATM   23  C17 UNL     1      12.069  32.999  71.335  1.00  0.00     0.008 A
HETATM   24  C18 UNL     1      12.223  31.730  70.837  1.00  0.00    -0.052 A
HETATM   25  C24 UNL     1      11.414  30.722  71.306  1.00  0.00     0.008 A
HETATM   26  C25 UNL     1      10.477  30.987  72.251  1.00  0.00     0.018 A
BRANCH  24  27
HETATM   27  C19 UNL     1      13.240  31.406  69.804  1.00  0.00     0.095 C
BRANCH  27  28
HETATM   28  C20 UNL     1      14.458  30.795  70.392  1.00  0.00     0.013 A
HETATM   29  C21 UNL     1      15.088  31.256  71.532  1.00  0.00     0.026 A
HETATM   30  C22 UNL     1      16.175  30.442  71.767  1.00  0.00     0.019 A
HETATM   31  C23 UNL     1      16.201  29.501  70.782  1.00  0.00     0.088 A
HETATM   32  N4  UNL     1      15.155  29.732  69.960  1.00  0.00    -0.369 N
ATOM     33  H4  UNL     1      14.927  29.180  69.132  1.00  0.00     0.165 HD
ENDBRANCH  27  28
ENDBRANCH  24  27
ENDBRANCH  19  21
ENDBRANCH   1  18
TORSDOF 4
ENDMDL