MODEL 5
REMARK VINA RESULT: -7.962381003      3.169      7.888
REMARK  4 active torsions:
REMARK  status: ('A' for Active; 'I' for Inactive)
REMARK    1  A    between atoms: C4_4  and  C5_5
REMARK    2  A    between atoms: C5_5  and  C6_6
REMARK    3  A    between atoms: C5_5  and  N4_24
REMARK    4  A    between atoms: C6_6  and  N1_7
ROOT
HETATM    1  N1  UNL     1       6.124  35.071  74.058  1.00  0.00    -0.290 NA
HETATM    2  C7  UNL     1       6.159  33.690  74.590  1.00  0.00     0.097 C
HETATM    3  C8  UNL     1       7.475  33.016  74.466  1.00  0.00     0.047 C
HETATM    4  C9  UNL     1       7.741  32.663  72.991  1.00  0.00     0.048 C
HETATM    5  C10 UNL     1       6.826  33.559  72.205  1.00  0.00     0.047 C
HETATM    6  C11 UNL     1       6.752  34.954  72.738  1.00  0.00     0.097 C
HETATM    7  C12 UNL     1       9.151  32.935  72.613  1.00  0.00     0.151 C
HETATM    8  N2  UNL     1       9.907  31.815  72.123  1.00  0.00    -0.386 N
ATOM      9  H2  UNL     1      10.720  31.993  71.534  1.00  0.00     0.159 HD
HETATM   10  C13 UNL     1       9.569  30.485  72.424  1.00  0.00     0.054 A
HETATM   11  C14 UNL     1      10.499  29.446  72.357  1.00  0.00     0.031 A
HETATM   12  C15 UNL     1      10.174  28.139  72.647  1.00  0.00     0.002 A
HETATM   13  C16 UNL     1       8.863  27.873  73.018  1.00  0.00     0.002 A
HETATM   14  C17 UNL     1       7.928  28.894  73.089  1.00  0.00     0.031 A
HETATM   15  C18 UNL     1       8.272  30.194  72.795  1.00  0.00     0.055 A
HETATM   16  N3  UNL     1       7.371  31.269  72.846  1.00  0.00    -0.377 N
ATOM     17  H3  UNL     1       6.377  31.052  72.776  1.00  0.00     0.160 HD
ENDROOT
BRANCH   1  18
HETATM   18  C6  UNL     1       6.818  35.892  74.946  1.00  0.00     0.090 C
BRANCH  18  19
HETATM   19  C5  UNL     1       8.226  36.279  74.799  1.00  0.00     0.059 C
BRANCH  19  20
HETATM   20  C4  UNL     1       8.707  37.271  73.878  1.00  0.00    -0.008 A
HETATM   21  C3  UNL     1      10.030  37.248  73.367  1.00  0.00     0.014 A
HETATM   22  C2  UNL     1      10.541  38.163  72.514  1.00  0.00     0.001 A
HETATM   23  C1  UNL     1       9.801  39.207  72.069  1.00  0.00     0.000 A
HETATM   24  C25 UNL     1       8.502  39.299  72.520  1.00  0.00     0.001 A
HETATM   25  C24 UNL     1       8.006  38.359  73.386  1.00  0.00     0.014 A
ENDBRANCH  19  20
BRANCH  19  26
HETATM   26  N4  UNL     1       8.938  36.211  76.103  1.00  0.00    -0.331 N
HETATM   27  C19 UNL     1       9.459  37.255  76.721  1.00  0.00     0.096 A
HETATM   28  C20 UNL     1      10.094  37.108  77.950  1.00  0.00     0.018 A
HETATM   29  C21 UNL     1      10.209  35.883  78.570  1.00  0.00     0.003 A
HETATM   30  C22 UNL     1       9.666  34.792  77.922  1.00  0.00     0.018 A
HETATM   31  C23 UNL     1       9.054  34.990  76.720  1.00  0.00     0.096 A
ENDBRANCH  19  26
ENDBRANCH  18  19
ENDBRANCH   1  18
TORSDOF 4
ENDMDL