MODEL 3
REMARK VINA RESULT: -8.536420730      1.791      5.007
REMARK  5 active torsions:
REMARK  status: ('A' for Active; 'I' for Inactive)
REMARK    1  A    between atoms: C3_6  and  O1_7
REMARK    2  A    between atoms: C4_9  and  C5_10
REMARK    3  A    between atoms: C5_10  and  N3_11
REMARK    4  A    between atoms: C15_21  and  C16_22
REMARK    5  A    between atoms: C16_22  and  N4_23
ROOT
HETATM    1  N1  UNL     1       8.697  32.353  79.972  1.00  0.00    -0.190 NA
HETATM    2  C1  UNL     1       8.283  33.303  79.496  1.00  0.00     0.118 C
HETATM    3  C2  UNL     1       7.777  34.505  78.941  1.00  0.00     0.124 A
HETATM    4  N2  UNL     1       8.135  35.747  79.392  1.00  0.00    -0.327 N
ATOM      5  H2  UNL     1       8.791  35.934  80.150  1.00  0.00     0.168 HD
HETATM    6  C3  UNL     1       7.491  36.671  78.685  1.00  0.00     0.149 A
HETATM    7  C4  UNL     1       6.699  36.008  77.756  1.00  0.00     0.022 A
HETATM    8  C15 UNL     1       6.888  34.604  77.925  1.00  0.00     0.009 A
ENDROOT
BRANCH   8   9
HETATM    9  C16 UNL     1       6.226  33.638  77.037  1.00  0.00     0.168 C
BRANCH   9  10
HETATM   10  N4  UNL     1       6.711  33.473  75.721  1.00  0.00    -0.339 N
HETATM   11  C17 UNL     1       8.069  33.162  75.337  1.00  0.00     0.166 C
HETATM   12  C18 UNL     1       8.021  32.805  73.902  1.00  0.00    -0.025 A
HETATM   13  C19 UNL     1       8.969  32.224  73.113  1.00  0.00     0.010 A
HETATM   14  C23 UNL     1       6.852  33.243  73.380  1.00  0.00     0.040 A
HETATM   15  C20 UNL     1       8.723  32.085  71.733  1.00  0.00     0.001 A
HETATM   16  C21 UNL     1       7.550  32.525  71.183  1.00  0.00     0.001 A
HETATM   17  C22 UNL     1       6.611  33.111  72.026  1.00  0.00     0.017 A
HETATM   18  C24 UNL     1       6.016  33.677  74.504  1.00  0.00     0.255 C
HETATM   19  O2  UNL     1       4.875  34.155  74.393  1.00  0.00    -0.267 OA
ENDBRANCH   9  10
ENDBRANCH   8   9
BRANCH   6  20
HETATM   20  O1  UNL     1       7.607  38.064  78.864  1.00  0.00    -0.346 OA
ATOM     21  H1  UNL     1       7.208  38.726  78.311  1.00  0.00     0.219 HD
ENDBRANCH   6  20
BRANCH   7  22
HETATM   22  C5  UNL     1       5.865  36.689  76.754  1.00  0.00     0.171 C
BRANCH  22  23
HETATM   23  N3  UNL     1       6.644  37.284  75.664  1.00  0.00    -0.361 N
HETATM   24  C6  UNL     1       6.139  38.285  74.932  1.00  0.00     0.091 A
HETATM   25  C7  UNL     1       6.838  38.875  73.903  1.00  0.00     0.029 A
HETATM   26  C8  UNL     1       8.095  38.473  73.559  1.00  0.00    -0.023 A
HETATM   27  C9  UNL     1       8.829  39.019  72.537  1.00  0.00     0.012 A
HETATM   28  C13 UNL     1       8.618  37.425  74.329  1.00  0.00    -0.010 A
HETATM   29  C10 UNL     1      10.097  38.579  72.216  1.00  0.00     0.001 A
HETATM   30  C11 UNL     1      10.640  37.536  72.972  1.00  0.00     0.001 A
HETATM   31  C12 UNL     1       9.896  36.998  73.991  1.00  0.00     0.013 A
HETATM   32  C14 UNL     1       7.873  36.870  75.351  1.00  0.00     0.103 A
ENDBRANCH  22  23
ENDBRANCH   7  22
TORSDOF 5
ENDMDL