MODEL 3
REMARK VINA RESULT: -9.203427587      1.039      1.153
REMARK  5 active torsions:
REMARK  status: ('A' for Active; 'I' for Inactive)
REMARK    1  A    between atoms: C3_5  and  C4_6
REMARK    2  A    between atoms: C4_6  and  C5_7
REMARK    3  A    between atoms: N2_17  and  C15_18
REMARK    4  A    between atoms: C15_18  and  C16_19
REMARK    5  A    between atoms: C24_29  and  C25_30
ROOT
HETATM    1  C5  UNL     1      11.205  32.777  71.755  1.00  0.00    -0.030 A
HETATM    2  C6  UNL     1      10.302  31.773  71.482  1.00  0.00     0.012 A
HETATM    3  C7  UNL     1       9.035  31.831  72.055  1.00  0.00     0.015 A
HETATM    4  C8  UNL     1       8.689  32.876  72.881  1.00  0.00     0.003 A
HETATM    5  C9  UNL     1       7.540  33.189  73.574  1.00  0.00     0.003 A
HETATM    6  C10 UNL     1       6.318  32.518  73.657  1.00  0.00     0.014 A
HETATM    7  C11 UNL     1       5.282  33.009  74.421  1.00  0.00     0.001 A
HETATM    8  C12 UNL     1       5.464  34.186  75.114  1.00  0.00     0.002 A
HETATM    9  C13 UNL     1       6.672  34.843  75.026  1.00  0.00     0.030 A
HETATM   10  C14 UNL     1       7.731  34.380  74.272  1.00  0.00     0.046 A
HETATM   11  N2  UNL     1       8.982  34.783  74.002  1.00  0.00    -0.341 N
HETATM   12  C22 UNL     1       9.580  33.908  73.177  1.00  0.00     0.047 A
HETATM   13  C23 UNL     1      10.834  33.816  72.588  1.00  0.00     0.042 A
ENDROOT
BRANCH   1  14
HETATM   14  C4  UNL     1      12.527  32.729  71.167  1.00  0.00     0.060 C
BRANCH  14  15
HETATM   15  C3  UNL     1      13.395  31.752  71.458  1.00  0.00     0.107 A
HETATM   16  N1  UNL     1      13.530  31.152  72.648  1.00  0.00    -0.341 N
HETATM   17  C2  UNL     1      14.507  30.205  72.587  1.00  0.00     0.056 A
ATOM     18  H1  UNL     1      12.981  31.372  73.478  1.00  0.00     0.167 HD
HETATM   19  C1  UNL     1      14.838  29.466  73.637  1.00  0.00     0.045 C
HETATM   20  C24 UNL     1      14.991  30.223  71.313  1.00  0.00     0.125 A
HETATM   21  N3  UNL     1      14.290  31.180  70.647  1.00  0.00    -0.337 N
ATOM     22  H3  UNL     1      14.428  31.427  69.667  1.00  0.00     0.168 HD
BRANCH  20  23
HETATM   23  C25 UNL     1      16.041  29.388  70.778  1.00  0.00     0.283 C
HETATM   24  N4  UNL     1      17.383  29.855  70.718  1.00  0.00    -0.056 NA
HETATM   25  O1  UNL     1      15.807  28.246  70.358  1.00  0.00    -0.269 OA
ENDBRANCH  20  23
ENDBRANCH  14  15
ENDBRANCH   1  14
BRANCH  11  26
HETATM   26  C15 UNL     1       9.600  35.979  74.523  1.00  0.00     0.168 C
BRANCH  26  27
HETATM   27  C16 UNL     1       9.447  37.171  73.683  1.00  0.00    -0.040 A
HETATM   28  C17 UNL     1      10.488  37.661  72.945  1.00  0.00     0.009 A
HETATM   29  C18 UNL     1      10.328  38.776  72.162  1.00  0.00     0.001 A
HETATM   30  C19 UNL     1       9.119  39.434  72.093  1.00  0.00     0.000 A
HETATM   31  C20 UNL     1       8.058  38.963  72.823  1.00  0.00     0.001 A
HETATM   32  C21 UNL     1       8.236  37.828  73.615  1.00  0.00     0.009 A
ENDBRANCH  26  27
ENDBRANCH  11  26
TORSDOF 5
ENDMDL