MODEL 2
REMARK VINA RESULT: -8.875414035      4.096     11.852
REMARK  5 active torsions:
REMARK  status: ('A' for Active; 'I' for Inactive)
REMARK       I    between atoms: C1_2  and  N1_3
REMARK    1  A    between atoms: C1_2  and  C20_28
REMARK    2  A    between atoms: N1_3  and  C2_5
REMARK    3  A    between atoms: C5_8  and  C6_9
REMARK    4  A    between atoms: C10_13  and  C11_14
REMARK    5  A    between atoms: C11_14  and  C12_15
ROOT
HETATM    1  C6  UNL     1       6.421  34.953  72.811  1.00  0.00     0.041 C
HETATM    2  C7  UNL     1       7.086  33.834  72.723  1.00  0.00     0.035 A
HETATM    3  C8  UNL     1       7.354  32.751  72.196  1.00  0.00     0.030 A
HETATM    4  C9  UNL     1       8.301  31.844  71.933  1.00  0.00     0.019 A
HETATM    5  C10 UNL     1       9.557  32.268  72.489  1.00  0.00     0.034 A
HETATM    6  C17 UNL     1       9.523  33.481  73.154  1.00  0.00     0.256 A
HETATM    7  O2  UNL     1      10.620  33.928  73.674  1.00  0.00    -0.267 OA
HETATM    8  N3  UNL     1       8.450  34.239  73.301  1.00  0.00    -0.323 N
ATOM      9  H3  UNL     1       8.530  35.117  73.813  1.00  0.00     0.169 HD
ENDROOT
BRANCH   1  10
HETATM   10  C5  UNL     1       6.394  36.078  73.657  1.00  0.00    -0.034 A
HETATM   11  C4  UNL     1       5.884  35.854  74.984  1.00  0.00     0.013 A
HETATM   12  C3  UNL     1       5.750  36.924  75.800  1.00  0.00     0.030 A
HETATM   13  C2  UNL     1       6.101  38.185  75.332  1.00  0.00     0.035 A
HETATM   14  C19 UNL     1       6.576  38.416  74.114  1.00  0.00     0.030 A
HETATM   15  C18 UNL     1       6.734  37.333  73.233  1.00  0.00     0.013 A
BRANCH  13  16
HETATM   16  N1  UNL     1       5.788  39.275  76.272  1.00  0.00    -0.323 N
HETATM   17  C1  UNL     1       4.514  39.873  75.915  1.00  0.00     0.256 C
HETATM   18  O1  UNL     1       3.974  39.415  74.880  1.00  0.00    -0.267 OA
ATOM     19  H1  UNL     1       6.375  39.565  77.053  1.00  0.00     0.169 HD
BRANCH  17  20
HETATM   20  C20 UNL     1       3.850  40.911  76.657  1.00  0.00     0.032 A
HETATM   21  C21 UNL     1       4.369  42.211  76.565  1.00  0.00     0.017 A
HETATM   22  C22 UNL     1       3.692  43.332  76.951  1.00  0.00     0.001 A
HETATM   23  C23 UNL     1       2.392  43.183  77.481  1.00  0.00     0.000 A
HETATM   24  C24 UNL     1       1.922  41.933  77.569  1.00  0.00     0.001 A
HETATM   25  C25 UNL     1       2.561  40.770  77.196  1.00  0.00     0.017 A
ENDBRANCH  17  20
ENDBRANCH  13  16
ENDBRANCH   1  10
BRANCH   5  26
HETATM   26  C11 UNL     1      10.592  31.481  72.392  1.00  0.00     0.046 C
BRANCH  26  27
HETATM   27  C12 UNL     1      11.423  31.464  71.197  1.00  0.00     0.032 A
HETATM   28  C13 UNL     1      11.294  30.941  69.929  1.00  0.00     0.029 A
HETATM   29  C14 UNL     1      12.317  30.986  69.017  1.00  0.00     0.004 A
HETATM   30  C15 UNL     1      13.507  31.569  69.328  1.00  0.00     0.017 A
HETATM   31  C16 UNL     1      13.651  32.100  70.576  1.00  0.00     0.088 A
HETATM   32  N2  UNL     1      12.652  32.037  71.432  1.00  0.00    -0.366 N
ATOM     33  H2  UNL     1      12.803  32.451  72.353  1.00  0.00     0.165 HD
ENDBRANCH  26  27
ENDBRANCH   5  26
TORSDOF 5
ENDMDL