MODEL 3
REMARK VINA RESULT: -9.010962778      3.150      4.603
REMARK  6 active torsions:
REMARK  status: ('A' for Active; 'I' for Inactive)
REMARK    1  A    between atoms: S1_2  and  N1_4
REMARK    2  A    between atoms: S1_2  and  C16_27
REMARK    3  A    between atoms: N1_4  and  C1_6
REMARK    4  A    between atoms: C2_9  and  N3_10
REMARK    5  A    between atoms: N3_10  and  C3_12
REMARK    6  A    between atoms: C3_12  and  C4_13
ROOT
HETATM    1  C1  UNL     1       7.561  37.919  76.109  1.00  0.00     0.143 A
HETATM    2  N2  UNL     1       6.359  38.508  76.100  1.00  0.00    -0.175 N
ATOM      3  H2  UNL     1       5.810  38.538  76.960  1.00  0.00     0.186 HD
HETATM    4  C2  UNL     1       5.853  39.071  74.959  1.00  0.00     0.680 A
HETATM    5  N4  UNL     1       6.550  39.049  73.812  1.00  0.00    -0.191 N
ATOM      6  H4  UNL     1       6.158  39.474  72.972  1.00  0.00     0.184 HD
HETATM    7  C10 UNL     1       7.750  38.477  73.766  1.00  0.00     0.063 A
HETATM    8  C11 UNL     1       8.492  38.431  72.628  1.00  0.00     0.031 A
HETATM    9  C12 UNL     1       9.730  37.834  72.603  1.00  0.00     0.002 A
HETATM   10  C13 UNL     1      10.249  37.264  73.747  1.00  0.00     0.001 A
HETATM   11  C14 UNL     1       9.520  37.297  74.909  1.00  0.00     0.017 A
HETATM   12  C15 UNL     1       8.273  37.900  74.928  1.00  0.00     0.036 A
ENDROOT
BRANCH   1  13
HETATM   13  N1  UNL     1       8.077  37.382  77.138  1.00  0.00    -0.265 N
ATOM     14  H1  UNL     1       9.079  37.536  77.259  1.00  0.00     0.180 HD
BRANCH  13  15
HETATM   15  S1  UNL     1       7.333  36.444  78.337  1.00  0.00     0.264 S
HETATM   16  O1  UNL     1       7.506  34.971  78.177  1.00  0.00    -0.200 OA
HETATM   17  O2  UNL     1       5.832  36.712  78.344  1.00  0.00    -0.200 OA
BRANCH  15  18
HETATM   18  C16 UNL     1       7.912  37.006  79.909  1.00  0.00     0.079 A
HETATM   19  C17 UNL     1       7.171  36.718  81.053  1.00  0.00     0.025 A
HETATM   20  C18 UNL     1       7.554  37.118  82.311  1.00  0.00     0.002 A
HETATM   21  C19 UNL     1       8.721  37.835  82.450  1.00  0.00     0.000 A
HETATM   22  C20 UNL     1       9.454  38.117  81.309  1.00  0.00     0.002 A
HETATM   23  C21 UNL     1       9.080  37.722  80.045  1.00  0.00     0.025 A
ENDBRANCH  15  18
ENDBRANCH  13  15
ENDBRANCH   1  13
BRANCH   4  24
HETATM   24  N3  UNL     1       4.693  39.626  74.996  1.00  0.00    -0.222 N
ATOM     25  H3  UNL     1       4.359  40.167  74.200  1.00  0.00     0.178 HD
BRANCH  24  26
HETATM   26  C3  UNL     1       3.867  39.480  76.167  1.00  0.00     0.176 C
BRANCH  26  27
HETATM   27  C4  UNL     1       3.327  40.784  76.635  1.00  0.00    -0.040 A
HETATM   28  C5  UNL     1       4.127  41.898  76.487  1.00  0.00     0.009 A
HETATM   29  C6  UNL     1       3.704  43.141  76.893  1.00  0.00     0.001 A
HETATM   30  C7  UNL     1       2.454  43.292  77.463  1.00  0.00     0.000 A
HETATM   31  C8  UNL     1       1.672  42.173  77.602  1.00  0.00     0.001 A
HETATM   32  C9  UNL     1       2.091  40.917  77.195  1.00  0.00     0.009 A
ENDBRANCH  26  27
ENDBRANCH  24  26
ENDBRANCH   4  24
TORSDOF 6
ENDMDL