MODEL 4
REMARK VINA RESULT: -7.471138285      1.646      2.113
REMARK  5 active torsions:
REMARK  status: ('A' for Active; 'I' for Inactive)
REMARK    1  A    between atoms: C3_5  and  C4_6
REMARK    2  A    between atoms: C13_15  and  C14_16
REMARK    3  A    between atoms: C14_16  and  C15_17
REMARK    4  A    between atoms: C16_18  and  C17_19
REMARK    5  A    between atoms: C20_22  and  O1_23
ROOT
HETATM    1  C15 UNL     1       6.524  33.651  75.420  1.00  0.00     0.063 A
HETATM    2  C16 UNL     1       5.835  34.789  75.088  1.00  0.00     0.074 A
HETATM    3  N2  UNL     1       4.550  34.582  75.471  1.00  0.00    -0.296 N
ATOM      4  H2  UNL     1       3.788  35.250  75.357  1.00  0.00     0.187 HD
HETATM    5  N3  UNL     1       4.437  33.390  76.012  1.00  0.00    -0.265 N
ATOM      6  H3  UNL     1       3.569  33.001  76.380  1.00  0.00     0.190 HD
HETATM    7  C24 UNL     1       5.607  32.762  76.015  1.00  0.00     0.272 A
HETATM    8  O2  UNL     1       5.867  31.605  76.455  1.00  0.00    -0.266 OA
ENDROOT
BRANCH   1   9
HETATM    9  C14 UNL     1       7.915  33.347  75.266  1.00  0.00     0.033 C
BRANCH   9  10
HETATM   10  C13 UNL     1       8.694  32.946  74.318  1.00  0.00    -0.003 A
HETATM   11  C2  UNL     1       8.758  31.722  73.744  1.00  0.00     0.034 A
HETATM   12  C1  UNL     1       7.979  30.734  74.026  1.00  0.00     0.044 C
HETATM   13  N1  UNL     1       9.685  31.450  72.762  1.00  0.00    -0.355 N
HETATM   14  C3  UNL     1      10.573  32.328  72.300  1.00  0.00     0.043 A
ATOM     15  H1  UNL     1       9.692  30.512  72.362  1.00  0.00     0.166 HD
HETATM   16  C10 UNL     1      10.540  33.576  72.853  1.00  0.00     0.038 A
HETATM   17  C11 UNL     1       9.636  33.895  73.833  1.00  0.00    -0.047 A
HETATM   18  C12 UNL     1       9.669  35.277  74.379  1.00  0.00     0.049 C
BRANCH  14  19
HETATM   19  C4  UNL     1      11.534  31.953  71.245  1.00  0.00    -0.009 A
HETATM   20  C5  UNL     1      12.838  32.420  71.289  1.00  0.00     0.013 A
HETATM   21  C6  UNL     1      13.734  32.073  70.308  1.00  0.00     0.001 A
HETATM   22  C7  UNL     1      13.370  31.257  69.261  1.00  0.00     0.000 A
HETATM   23  C8  UNL     1      12.078  30.787  69.207  1.00  0.00     0.001 A
HETATM   24  C9  UNL     1      11.166  31.143  70.209  1.00  0.00     0.013 A
ENDBRANCH  14  19
ENDBRANCH   9  10
ENDBRANCH   1   9
BRANCH   2  25
HETATM   25  C17 UNL     1       6.287  36.030  74.431  1.00  0.00    -0.007 A
HETATM   26  C18 UNL     1       6.510  37.148  75.238  1.00  0.00     0.016 A
HETATM   27  C19 UNL     1       6.959  38.317  74.674  1.00  0.00     0.037 A
HETATM   28  C20 UNL     1       7.206  38.458  73.335  1.00  0.00     0.068 A
HETATM   29  C22 UNL     1       6.991  37.373  72.536  1.00  0.00     0.037 A
HETATM   30  C23 UNL     1       6.535  36.178  73.107  1.00  0.00     0.016 A
BRANCH  28  31
HETATM   31  O1  UNL     1       7.659  39.654  72.793  1.00  0.00    -0.356 OA
HETATM   32  C21 UNL     1       8.863  39.652  72.039  1.00  0.00     0.210 C
ENDBRANCH  28  31
ENDBRANCH   2  25
TORSDOF 5
ENDMDL