MODEL 1
REMARK VINA RESULT: -9.150497768      0.000      0.000
REMARK  5 active torsions:
REMARK  status: ('A' for Active; 'I' for Inactive)
REMARK    1  A    between atoms: C7_8  and  C8_9
REMARK    2  A    between atoms: C8_9  and  C9_10
REMARK    3  A    between atoms: C13_16  and  S1_17
REMARK    4  A    between atoms: S1_17  and  N3_20
REMARK    5  A    between atoms: N3_20  and  C14_22
ROOT
HETATM    1  N1  UNL     1       6.025  36.885  75.015  1.00  0.00    -0.191 NA
HETATM    2  C1  UNL     1       6.954  37.284  74.457  1.00  0.00     0.100 C
HETATM    3  C2  UNL     1       8.084  37.787  73.733  1.00  0.00     0.051 A
HETATM    4  C3  UNL     1       7.914  38.945  72.981  1.00  0.00     0.023 A
HETATM    5  C4  UNL     1       8.950  39.439  72.235  1.00  0.00     0.002 A
HETATM    6  C5  UNL     1      10.163  38.778  72.235  1.00  0.00     0.001 A
HETATM    7  C6  UNL     1      10.350  37.638  72.967  1.00  0.00     0.009 A
HETATM    8  C7  UNL     1       9.298  37.126  73.736  1.00  0.00    -0.032 A
ENDROOT
BRANCH   8   9
HETATM    9  C8  UNL     1       9.551  35.909  74.518  1.00  0.00     0.098 C
BRANCH   9  10
HETATM   10  C9  UNL     1       9.306  34.643  73.802  1.00  0.00     0.024 A
HETATM   11  N2  UNL     1       8.148  33.934  73.825  1.00  0.00    -0.367 N
HETATM   12  C10 UNL     1       8.248  32.828  73.077  1.00  0.00     0.100 A
ATOM     13  H2  UNL     1       7.313  34.208  74.343  1.00  0.00     0.165 HD
HETATM   14  C11 UNL     1       9.509  32.776  72.524  1.00  0.00    -0.007 A
HETATM   15  C12 UNL     1      10.110  31.852  71.668  1.00  0.00     0.039 A
HETATM   16  C21 UNL     1      10.167  33.911  72.977  1.00  0.00    -0.002 A
HETATM   17  C13 UNL     1      11.401  32.085  71.266  1.00  0.00     0.080 A
HETATM   18  C19 UNL     1      12.068  33.203  71.702  1.00  0.00     0.026 A
HETATM   19  C20 UNL     1      11.452  34.115  72.555  1.00  0.00     0.016 A
BRANCH  17  20
HETATM   20  S1  UNL     1      12.200  30.922  70.194  1.00  0.00     0.264 S
HETATM   21  O1  UNL     1      12.024  29.530  70.790  1.00  0.00    -0.200 OA
HETATM   22  O2  UNL     1      11.556  30.958  68.861  1.00  0.00    -0.200 OA
BRANCH  20  23
HETATM   23  N3  UNL     1      13.869  31.263  70.195  1.00  0.00    -0.266 N
ATOM     24  H3  UNL     1      14.152  32.143  69.763  1.00  0.00     0.180 HD
BRANCH  23  25
HETATM   25  C14 UNL     1      14.803  30.544  70.676  1.00  0.00     0.114 A
HETATM   26  C15 UNL     1      15.736  29.833  69.986  1.00  0.00     0.049 A
HETATM   27  C16 UNL     1      16.722  29.098  70.650  1.00  0.00     0.005 A
HETATM   28  C17 UNL     1      16.727  29.109  72.018  1.00  0.00     0.017 A
HETATM   29  C18 UNL     1      15.777  29.833  72.721  1.00  0.00     0.089 A
HETATM   30  N4  UNL     1      14.860  30.516  72.045  1.00  0.00    -0.352 N
ATOM     31  H4  UNL     1      14.165  31.046  72.571  1.00  0.00     0.166 HD
ENDBRANCH  23  25
ENDBRANCH  20  23
ENDBRANCH  17  20
ENDBRANCH   9  10
ENDBRANCH   8   9
TORSDOF 5
ENDMDL