MODEL 5
REMARK VINA RESULT: -8.253410546      1.176      1.421
REMARK  4 active torsions:
REMARK  status: ('A' for Active; 'I' for Inactive)
REMARK    1  A    between atoms: C3_6  and  C4_7
REMARK    2  A    between atoms: C4_7  and  C5_8
REMARK    3  A    between atoms: N4_26  and  C18_27
REMARK    4  A    between atoms: C18_27  and  C19_28
ROOT
HETATM    1  O1  UNL     1      10.895  33.310  71.824  1.00  0.00    -0.247 OA
HETATM    2  C1  UNL     1      10.080  33.075  72.780  1.00  0.00     0.323 C
HETATM    3  N1  UNL     1       9.770  34.086  73.725  1.00  0.00    -0.306 N
ATOM      4  H1  UNL     1      10.204  35.006  73.649  1.00  0.00     0.171 HD
HETATM    5  C2  UNL     1       8.853  33.814  74.778  1.00  0.00     0.074 A
HETATM    6  C3  UNL     1       8.603  34.768  75.732  1.00  0.00     0.057 A
HETATM    7  N2  UNL     1       7.748  34.408  76.750  1.00  0.00    -0.299 N
ATOM      8  H2  UNL     1       7.537  35.088  77.479  1.00  0.00     0.186 HD
HETATM    9  N3  UNL     1       7.194  33.214  76.814  1.00  0.00    -0.266 N
ATOM     10  H3  UNL     1       6.568  33.009  77.593  1.00  0.00     0.190 HD
HETATM   11  C15 UNL     1       7.413  32.264  75.907  1.00  0.00     0.270 A
HETATM   12  O2  UNL     1       6.876  31.107  75.972  1.00  0.00    -0.266 OA
HETATM   13  C16 UNL     1       8.271  32.556  74.838  1.00  0.00     0.058 A
HETATM   14  C17 UNL     1       8.396  31.560  73.782  1.00  0.00     0.174 C
HETATM   15  N4  UNL     1       9.488  31.797  72.890  1.00  0.00    -0.325 N
ENDROOT
BRANCH   6  16
HETATM   16  C4  UNL     1       9.243  36.073  75.811  1.00  0.00     0.100 C
BRANCH  16  17
HETATM   17  C5  UNL     1       8.445  37.029  74.968  1.00  0.00    -0.041 A
HETATM   18  C6  UNL     1       7.116  37.235  75.338  1.00  0.00     0.008 A
HETATM   19  C7  UNL     1       6.280  38.111  74.702  1.00  0.00     0.001 A
HETATM   20  C8  UNL     1       6.760  38.839  73.641  1.00  0.00     0.012 A
HETATM   21  C9  UNL     1       8.073  38.653  73.258  1.00  0.00    -0.025 A
HETATM   22  C10 UNL     1       8.602  39.346  72.188  1.00  0.00     0.012 A
HETATM   23  C14 UNL     1       8.923  37.746  73.919  1.00  0.00    -0.019 A
HETATM   24  C11 UNL     1       9.892  39.202  71.738  1.00  0.00     0.001 A
HETATM   25  C12 UNL     1      10.678  38.298  72.418  1.00  0.00     0.001 A
HETATM   26  C13 UNL     1      10.219  37.574  73.490  1.00  0.00     0.013 A
ENDBRANCH  16  17
ENDBRANCH   6  16
BRANCH  15  27
HETATM   27  C18 UNL     1       9.959  30.660  72.101  1.00  0.00     0.166 C
BRANCH  27  28
HETATM   28  C19 UNL     1      11.313  30.202  72.459  1.00  0.00    -0.040 A
HETATM   29  C20 UNL     1      11.691  30.028  73.801  1.00  0.00     0.009 A
HETATM   30  C21 UNL     1      12.955  29.618  74.116  1.00  0.00     0.001 A
HETATM   31  C22 UNL     1      13.914  29.357  73.139  1.00  0.00     0.000 A
HETATM   32  C23 UNL     1      13.528  29.533  71.824  1.00  0.00     0.001 A
HETATM   33  C24 UNL     1      12.242  29.951  71.485  1.00  0.00     0.009 A
ENDBRANCH  27  28
ENDBRANCH  15  27
TORSDOF 4
ENDMDL