MODEL 2
REMARK VINA RESULT: -7.117310287      1.951      2.458
REMARK  6 active torsions:
REMARK  status: ('A' for Active; 'I' for Inactive)
REMARK    1  A    between atoms: N1_2  and  C2_4
REMARK    2  A    between atoms: C3_7  and  N3_8
REMARK    3  A    between atoms: N3_8  and  C4_10
REMARK    4  A    between atoms: C4_10  and  C5_11
REMARK    5  A    between atoms: C5_11  and  C6_12
REMARK    6  A    between atoms: C6_12  and  N4_13
ROOT
HETATM    1  C2  UNL     1       6.249  38.072  75.620  1.00  0.00     0.124 A
HETATM    2  N2  UNL     1       6.776  38.177  76.854  1.00  0.00    -0.176 N
ATOM      3  H2  UNL     1       6.422  38.894  77.486  1.00  0.00     0.186 HD
HETATM    4  C3  UNL     1       7.749  37.365  77.275  1.00  0.00     0.679 A
HETATM    5  N5  UNL     1       8.203  36.424  76.425  1.00  0.00    -0.195 N
ATOM      6  H5  UNL     1       8.947  35.798  76.733  1.00  0.00     0.184 HD
HETATM    7  C11 UNL     1       7.700  36.282  75.167  1.00  0.00     0.036 A
HETATM    8  C12 UNL     1       6.699  37.101  74.713  1.00  0.00     0.009 A
HETATM    9  C13 UNL     1       6.051  37.043  73.390  1.00  0.00     0.044 C
HETATM   10  C14 UNL     1       6.810  37.523  72.225  1.00  0.00     0.005 C
HETATM   11  C15 UNL     1       7.641  38.755  72.406  1.00  0.00     0.000 C
HETATM   12  C16 UNL     1       8.623  38.815  71.259  1.00  0.00     0.000 C
HETATM   13  C17 UNL     1       9.973  39.334  71.635  1.00  0.00     0.000 C
HETATM   14  C18 UNL     1      10.618  38.655  72.794  1.00  0.00     0.000 C
HETATM   15  C19 UNL     1      10.584  37.147  72.741  1.00  0.00     0.000 C
HETATM   16  C20 UNL     1      10.361  36.679  74.166  1.00  0.00     0.000 C
HETATM   17  C21 UNL     1       9.823  35.301  74.292  1.00  0.00     0.006 C
HETATM   18  C22 UNL     1       8.318  35.195  74.369  1.00  0.00     0.058 C
ENDROOT
BRANCH   4  19
HETATM   19  N3  UNL     1       8.235  37.489  78.466  1.00  0.00    -0.226 N
ATOM     20  H3  UNL     1       7.831  38.194  79.082  1.00  0.00     0.177 HD
BRANCH  19  21
HETATM   21  C4  UNL     1       9.306  36.689  78.961  1.00  0.00     0.140 C
BRANCH  21  22
HETATM   22  C5  UNL     1       9.275  36.619  80.475  1.00  0.00     0.050 C
BRANCH  22  23
HETATM   23  C6  UNL     1       8.227  35.577  80.848  1.00  0.00     0.274 C
BRANCH  23  24
HETATM   24  N4  UNL     1       7.155  36.154  81.583  1.00  0.00     0.092 N
HETATM   25  C7  UNL     1       7.372  37.473  82.079  1.00  0.00     0.298 C
HETATM   26  C8  UNL     1       6.150  37.847  82.906  1.00  0.00     0.198 C
HETATM   27  O1  UNL     1       4.991  37.767  82.131  1.00  0.00    -0.388 OA
HETATM   28  C9  UNL     1       4.769  36.419  81.853  1.00  0.00     0.198 C
HETATM   29  C10 UNL     1       5.901  35.975  80.925  1.00  0.00     0.298 C
ENDBRANCH  23  24
ENDBRANCH  22  23
ENDBRANCH  21  22
ENDBRANCH  19  21
ENDBRANCH   4  19
BRANCH   1  30
HETATM   30  N1  UNL     1       5.324  38.863  75.251  1.00  0.00    -0.380 N
HETATM   31  C1  UNL     1       4.912  39.934  76.130  1.00  0.00     0.147 C
ATOM     32  H1  UNL     1       4.875  38.742  74.343  1.00  0.00     0.160 HD
ENDBRANCH   1  30
TORSDOF 6
ENDMDL