MODEL 4
REMARK VINA RESULT: -5.061613591      4.942      6.872
REMARK  1 active torsions:
REMARK  status: ('A' for Active; 'I' for Inactive)
REMARK    1  A    between atoms: O1_1  and  C1_3
ROOT
HETATM    1  C1  UNL     1      28.129   6.421  40.133  1.00  0.00     0.215 C
HETATM    2  C2  UNL     1      28.259   5.551  41.387  1.00  0.00     0.239 C
HETATM    3  O2  UNL     1      29.071   4.500  41.081  1.00  0.00    -0.383 OA
HETATM    4  C3  UNL     1      29.533   4.601  39.799  1.00  0.00     0.205 C
HETATM    5  C4  UNL     1      28.480   5.441  39.064  1.00  0.00     0.209 C
HETATM    6  O3  UNL     1      29.048   5.945  37.945  1.00  0.00    -0.373 OA
HETATM    7  C5  UNL     1      29.242   7.291  37.892  1.00  0.00     0.239 C
HETATM    8  C6  UNL     1      29.719   7.831  39.202  1.00  0.00     0.211 A
HETATM    9  C7  UNL     1      31.080   8.376  39.339  1.00  0.00     0.242 A
HETATM   10  O4  UNL     1      29.958   9.258  39.163  1.00  0.00    -0.346 OA
HETATM   11  O5  UNL     1      28.972   7.474  40.280  1.00  0.00    -0.310 OA
ENDROOT
BRANCH   1  12
HETATM   12  O1  UNL     1      26.824   6.909  40.019  1.00  0.00    -0.362 OA
ATOM     13  H1  UNL     1      26.463   6.680  39.171  1.00  0.00     0.213 HD
ENDBRANCH   1  12
TORSDOF 1
ENDMDL