MODEL 5
REMARK VINA RESULT: -5.014219030      5.607      8.113
REMARK  2 active torsions:
REMARK  status: ('A' for Active; 'I' for Inactive)
REMARK    1  A    between atoms: O1_1  and  C1_3
REMARK    2  A    between atoms: C5_8  and  O3_9
ROOT
HETATM    1  C1  UNL     1      28.453   0.512  41.162  1.00  0.00     0.178 C
HETATM    2  C2  UNL     1      28.473   1.945  40.726  1.00  0.00     0.107 C
HETATM    3  C3  UNL     1      27.816   2.864  41.730  1.00  0.00     0.188 C
HETATM    4  C4  UNL     1      26.595   2.260  42.350  1.00  0.00     0.239 C
HETATM    5  O2  UNL     1      26.716   0.950  42.713  1.00  0.00    -0.354 OA
HETATM    6  C5  UNL     1      27.119   0.097  41.725  1.00  0.00     0.285 C
HETATM    7  O4  UNL     1      27.445   4.017  41.054  1.00  0.00    -0.351 OA
HETATM    8  C6  UNL     1      27.923   5.097  41.756  1.00  0.00     0.198 C
HETATM    9  C7  UNL     1      28.330   4.509  43.087  1.00  0.00     0.198 C
HETATM   10  O5  UNL     1      28.700   3.218  42.724  1.00  0.00    -0.351 OA
ENDROOT
BRANCH   1  11
HETATM   11  O1  UNL     1      28.804  -0.272  40.062  1.00  0.00    -0.390 OA
ATOM     12  H1  UNL     1      28.542   0.195  39.278  1.00  0.00     0.210 HD
ENDBRANCH   1  11
BRANCH   6  13
HETATM   13  O3  UNL     1      26.185  -0.097  40.716  1.00  0.00    -0.369 OA
ATOM     14  H3  UNL     1      26.448   0.337  39.913  1.00  0.00     0.212 HD
ENDBRANCH   6  13
TORSDOF 2
ENDMDL