MODEL 5
REMARK VINA RESULT: -5.253121847      7.224      8.492
REMARK  1 active torsions:
REMARK  status: ('A' for Active; 'I' for Inactive)
REMARK    1  A    between atoms: O1_1  and  C1_3
ROOT
HETATM    1  C1  UNL     1      26.691   1.133  42.265  1.00  0.00     0.197 C
HETATM    2  O2  UNL     1      25.966   2.270  42.457  1.00  0.00    -0.352 OA
HETATM    3  C2  UNL     1      26.933   2.973  41.736  1.00  0.00     0.185 C
HETATM    4  C3  UNL     1      27.951   1.891  41.874  1.00  0.00     0.114 C
HETATM    5  C4  UNL     1      28.844   2.078  43.072  1.00  0.00     0.119 A
HETATM    6  C5  UNL     1      28.030   2.432  44.230  1.00  0.00     0.209 C
HETATM    7  O3  UNL     1      27.273   1.284  44.570  1.00  0.00    -0.377 OA
HETATM    8  C6  UNL     1      27.134   0.395  43.536  1.00  0.00     0.186 C
HETATM    9  C7  UNL     1      28.477  -0.236  43.115  1.00  0.00     0.072 C
HETATM   10  C8  UNL     1      29.492   0.746  43.524  1.00  0.00     0.162 A
HETATM   11  O4  UNL     1      30.099   1.735  42.904  1.00  0.00    -0.366 OA
ENDROOT
BRANCH   1  12
HETATM   12  O1  UNL     1      26.306   0.286  41.246  1.00  0.00    -0.363 OA
ATOM     13  H1  UNL     1      26.362   0.608  40.354  1.00  0.00     0.213 HD
ENDBRANCH   1  12
TORSDOF 1
ENDMDL