MODEL 4
REMARK VINA RESULT: -5.053110230      1.610      3.776
REMARK  1 active torsions:
REMARK  status: ('A' for Active; 'I' for Inactive)
REMARK    1  A    between atoms: O1_1  and  C1_3
ROOT
HETATM    1  C1  UNL     1      31.258  10.725  38.284  1.00  0.00     0.289 C
HETATM    2  O2  UNL     1      32.440  10.008  38.307  1.00  0.00    -0.329 OA
HETATM    3  C2  UNL     1      32.293   8.734  38.821  1.00  0.00     0.447 C
HETATM    4  N1  UNL     1      31.411   7.899  38.016  1.00  0.00     0.153 N
HETATM    5  C3  UNL     1      30.947   8.754  36.907  1.00  0.00     0.316 C
HETATM    6  C4  UNL     1      30.173   9.792  37.736  1.00  0.00     0.208 C
HETATM    7  O3  UNL     1      29.608   9.058  38.793  1.00  0.00    -0.337 OA
HETATM    8  C5  UNL     1      30.155   7.806  38.750  1.00  0.00     0.306 C
HETATM    9  C6  UNL     1      30.170   6.994  39.988  1.00  0.00     0.242 C
HETATM   10  O4  UNL     1      29.984   5.843  39.186  1.00  0.00    -0.381 OA
HETATM   11  C7  UNL     1      29.257   6.681  38.309  1.00  0.00     0.242 C
ENDROOT
BRANCH   1  12
HETATM   12  O1  UNL     1      30.919  11.231  39.527  1.00  0.00    -0.368 OA
ATOM     13  H1  UNL     1      29.987  11.174  39.703  1.00  0.00     0.212 HD
ENDBRANCH   1  12
TORSDOF 1
ENDMDL