MODEL 5
REMARK VINA RESULT: -5.405540689      1.956      4.295
REMARK  0 active torsions:
REMARK  status: ('A' for Active; 'I' for Inactive)
ROOT
HETATM    1  C1  UNL     1      29.271   5.782  37.999  1.00  0.00     0.035 C
HETATM    2  C2  UNL     1      30.683   5.366  37.767  1.00  0.00     0.239 C
HETATM    3  N1  UNL     1      31.545   6.472  38.028  1.00  0.00    -0.015 N
ATOM      4  H11 UNL     1      32.276   6.570  37.324  1.00  0.00     0.283 HD
ATOM      5  H12 UNL     1      32.146   6.313  38.836  1.00  0.00     0.283 HD
HETATM    6  C3  UNL     1      30.750   7.658  38.161  1.00  0.00     0.363 C
HETATM    7  C4  UNL     1      29.309   7.278  38.026  1.00  0.00     0.105 C
HETATM    8  O1  UNL     1      31.040   8.547  37.103  1.00  0.00    -0.326 OA
HETATM    9  C5  UNL     1      30.511   9.788  37.532  1.00  0.00     0.247 C
HETATM   10  C6  UNL     1      31.456  10.259  38.631  1.00  0.00     0.241 A
HETATM   11  C7  UNL     1      31.826  11.597  38.762  1.00  0.00     0.245 A
HETATM   12  O2  UNL     1      30.797  11.071  39.665  1.00  0.00    -0.344 OA
HETATM   13  O3  UNL     1      32.032   9.153  39.189  1.00  0.00    -0.191 OA
HETATM   14  O4  UNL     1      31.058   8.254  39.371  1.00  0.00    -0.166 OA
ENDROOT
TORSDOF 0
ENDMDL