MODEL 5
REMARK VINA RESULT: -5.107143965      1.881      4.018
REMARK  1 active torsions:
REMARK  status: ('A' for Active; 'I' for Inactive)
REMARK    1  A    between atoms: C3_7  and  O4_8
ROOT
HETATM    1  O1  UNL     1      27.099   7.636  39.525  1.00  0.00    -0.196 OA
HETATM    2  S1  UNL     1      28.469   7.658  40.131  1.00  0.00     0.306 S
HETATM    3  O2  UNL     1      29.296   6.202  40.044  1.00  0.00    -0.271 OA
HETATM    4  C1  UNL     1      30.301   6.214  39.047  1.00  0.00     0.224 C
HETATM    5  C2  UNL     1      30.040   7.382  38.184  1.00  0.00     0.180 C
HETATM    6  O3  UNL     1      30.749   7.437  37.008  1.00  0.00    -0.351 OA
HETATM    7  C3  UNL     1      30.252   8.653  36.481  1.00  0.00     0.260 C
HETATM    8  C4  UNL     1      30.319   9.642  37.621  1.00  0.00     0.096 C
HETATM    9  C5  UNL     1      30.384   8.705  38.826  1.00  0.00     0.178 C
HETATM   10  O5  UNL     1      29.390   9.001  39.727  1.00  0.00    -0.266 OA
ENDROOT
BRANCH   7  11
HETATM   11  O4  UNL     1      30.919   9.052  35.357  1.00  0.00    -0.371 OA
ATOM     12  H4  UNL     1      31.678   8.513  35.169  1.00  0.00     0.212 HD
ENDBRANCH   7  11
TORSDOF 1
ENDMDL