MODEL 1
REMARK VINA RESULT: -5.475827841      0.000      0.000
REMARK  1 active torsions:
REMARK  status: ('A' for Active; 'I' for Inactive)
REMARK    1  A    between atoms: C4_5  and  O2_6
ROOT
HETATM    1  C1  UNL     1      29.528  10.211  36.478  1.00  0.00     0.042 C
HETATM    2  C2  UNL     1      30.562   9.751  37.479  1.00  0.00     0.150 C
HETATM    3  O1  UNL     1      30.016   9.460  38.752  1.00  0.00    -0.373 OA
HETATM    4  C3  UNL     1      29.536   8.277  38.186  1.00  0.00     0.182 C
HETATM    5  C4  UNL     1      29.569   7.075  39.096  1.00  0.00     0.160 C
HETATM    6  C5  UNL     1      30.782   7.186  39.957  1.00  0.00     0.096 C
HETATM    7  C6  UNL     1      31.477   5.921  40.333  1.00  0.00     0.183 C
HETATM    8  O3  UNL     1      32.486   6.247  39.420  1.00  0.00    -0.360 OA
HETATM    9  C7  UNL     1      31.984   7.552  39.198  1.00  0.00     0.269 C
HETATM   10  O4  UNL     1      31.892   7.806  37.893  1.00  0.00    -0.350 OA
HETATM   11  C8  UNL     1      30.762   8.237  37.332  1.00  0.00     0.184 C
ENDROOT
BRANCH   5  12
HETATM   12  O2  UNL     1      28.399   6.856  39.774  1.00  0.00    -0.392 OA
ATOM     13  H2  UNL     1      28.491   6.874  40.720  1.00  0.00     0.210 HD
ENDBRANCH   5  12
TORSDOF 1
ENDMDL