MODEL 5
REMARK VINA RESULT: -5.398726057      7.655      8.704
REMARK  1 active torsions:
REMARK  status: ('A' for Active; 'I' for Inactive)
REMARK    1  A    between atoms: O1_1  and  C1_3
ROOT
HETATM    1  C1  UNL     1      28.582   1.033  44.535  1.00  0.00     0.143 C
HETATM    2  C2  UNL     1      27.783   2.226  44.018  1.00  0.00     0.202 C
HETATM    3  O2  UNL     1      26.609   1.774  43.367  1.00  0.00    -0.355 OA
HETATM    4  C3  UNL     1      27.022   1.201  42.202  1.00  0.00     0.312 C
HETATM    5  O3  UNL     1      26.075   0.626  41.407  1.00  0.00    -0.204 OA
HETATM    6  O4  UNL     1      26.627  -0.290  40.679  1.00  0.00    -0.204 OA
HETATM    7  C4  UNL     1      27.719  -0.834  41.359  1.00  0.00     0.312 C
HETATM    8  O5  UNL     1      27.410  -1.980  42.098  1.00  0.00    -0.356 OA
HETATM    9  C5  UNL     1      26.961  -1.157  43.152  1.00  0.00     0.191 C
HETATM   10  C6  UNL     1      27.797  -0.060  42.585  1.00  0.00     0.089 C
HETATM   11  C7  UNL     1      29.033   0.242  43.296  1.00  0.00     0.055 C
ENDROOT
BRANCH   1  12
HETATM   12  O1  UNL     1      29.623   1.439  45.310  1.00  0.00    -0.393 OA
ATOM     13  H1  UNL     1      29.984   0.714  45.806  1.00  0.00     0.210 HD
ENDBRANCH   1  12
TORSDOF 1
ENDMDL