MODEL 5
REMARK VINA RESULT: -8.011608886      3.391      6.759
REMARK  10 active torsions:
REMARK  status: ('A' for Active; 'I' for Inactive)
REMARK    1  A    between atoms: C5_5  and  O1_6
REMARK    2  A    between atoms: O1_6  and  C6_7
REMARK    3  A    between atoms: C6_7  and  C7_9
REMARK    4  A    between atoms: C7_9  and  C10_12
REMARK    5  A    between atoms: C10_12  and  C11_13
REMARK    6  A    between atoms: C11_13  and  C12_14
REMARK    7  A    between atoms: C12_14  and  O3_15
REMARK    8  A    between atoms: C12_14  and  C13_17
REMARK    9  A    between atoms: C13_17  and  O4_20
REMARK   10  A    between atoms: C21_28  and  O5_29
ROOT
HETATM    1  C1  UNL     1      -1.497 -23.526  19.674  1.00  0.00     0.046 C
HETATM    2  C2  UNL     1      -2.477 -22.793  20.604  1.00  0.00     0.063 C
HETATM    3  C3  UNL     1      -1.734 -21.698  21.362  1.00  0.00     0.046 C
HETATM    4  C4  UNL     1      -3.028 -23.762  21.576  1.00  0.00     0.075 C
HETATM    5  C5  UNL     1      -4.529 -23.773  21.725  1.00  0.00     0.170 C
HETATM    6  C16 UNL     1      -5.160 -22.524  21.259  1.00  0.00     0.009 A
HETATM    7  C17 UNL     1      -6.342 -22.119  21.821  1.00  0.00     0.035 A
HETATM    8  C18 UNL     1      -6.997 -20.946  21.427  1.00  0.00     0.048 A
HETATM    9  C19 UNL     1      -8.233 -20.525  22.017  1.00  0.00     0.099 C
HETATM   10  N1  UNL     1      -9.227 -20.167  22.503  1.00  0.00    -0.191 NA
HETATM   11  C20 UNL     1      -6.434 -20.172  20.443  1.00  0.00     0.062 A
HETATM   12  C21 UNL     1      -5.236 -20.575  19.869  1.00  0.00     0.101 A
HETATM   13  C22 UNL     1      -4.600 -21.735  20.267  1.00  0.00     0.111 A
HETATM   14  O6  UNL     1      -3.414 -22.189  19.740  1.00  0.00    -0.337 OA
ENDROOT
BRANCH  12  15
HETATM   15  O5  UNL     1      -4.649 -19.802  18.867  1.00  0.00    -0.358 OA
ATOM     16  H5  UNL     1      -3.915 -19.236  19.073  1.00  0.00     0.217 HD
ENDBRANCH  12  15
BRANCH   5  17
HETATM   17  O1  UNL     1      -4.915 -23.993  23.060  1.00  0.00    -0.310 OA
BRANCH  17  18
HETATM   18  C6  UNL     1      -5.313 -25.225  23.548  1.00  0.00     0.267 C
HETATM   19  O2  UNL     1      -4.639 -26.215  23.169  1.00  0.00    -0.264 OA
BRANCH  18  20
HETATM   20  C7  UNL     1      -6.450 -25.457  24.467  1.00  0.00     0.041 C
HETATM   21  C8  UNL     1      -6.982 -24.107  24.928  1.00  0.00     0.025 C
HETATM   22  C9  UNL     1      -7.524 -26.152  23.677  1.00  0.00     0.025 C
BRANCH  20  23
HETATM   23  C10 UNL     1      -5.973 -26.209  25.651  1.00  0.00     0.022 C
BRANCH  23  24
HETATM   24  C11 UNL     1      -5.565 -25.365  26.821  1.00  0.00     0.036 C
BRANCH  24  25
HETATM   25  C12 UNL     1      -4.453 -26.076  27.563  1.00  0.00     0.151 C
BRANCH  25  26
HETATM   26  O3  UNL     1      -4.160 -27.316  27.043  1.00  0.00    -0.393 OA
ATOM     27  H3  UNL     1      -3.751 -27.276  26.186  1.00  0.00     0.210 HD
ENDBRANCH  25  26
BRANCH  25  28
HETATM   28  C13 UNL     1      -4.740 -26.156  29.047  1.00  0.00     0.076 C
HETATM   29  C14 UNL     1      -3.488 -26.646  29.762  1.00  0.00     0.048 C
HETATM   30  C15 UNL     1      -5.084 -24.808  29.609  1.00  0.00     0.048 C
BRANCH  28  31
HETATM   31  O4  UNL     1      -5.746 -27.083  29.298  1.00  0.00    -0.388 OA
ATOM     32  H4  UNL     1      -5.461 -27.714  29.949  1.00  0.00     0.210 HD
ENDBRANCH  28  31
ENDBRANCH  25  28
ENDBRANCH  24  25
ENDBRANCH  23  24
ENDBRANCH  20  23
ENDBRANCH  18  20
ENDBRANCH  17  18
ENDBRANCH   5  17
TORSDOF 10
ENDMDL