MODEL 4
REMARK VINA RESULT: -8.238963723      3.052      5.655
REMARK  12 active torsions:
REMARK  status: ('A' for Active; 'I' for Inactive)
REMARK    1  A    between atoms: C2_2  and  C3_4
REMARK    2  A    between atoms: C3_4  and  C4_5
REMARK    3  A    between atoms: N1_6  and  N2_8
REMARK    4  A    between atoms: N2_8  and  C5_10
REMARK    5  A    between atoms: C5_10  and  O2_11
REMARK    6  A    between atoms: C5_10  and  C6_13
REMARK    7  A    between atoms: C6_13  and  C7_14
REMARK    8  A    between atoms: C7_14  and  C8_15
REMARK    9  A    between atoms: C8_15  and  C9_16
REMARK   10  A    between atoms: C9_16  and  C10_17
REMARK   11  A    between atoms: C13_20  and  O3_21
REMARK   12  A    between atoms: C21_32  and  O6_33
ROOT
HETATM    1  C10 UNL     1      -6.251 -24.454  24.060  1.00  0.00     0.016 A
HETATM    2  C11 UNL     1      -5.326 -24.177  23.088  1.00  0.00    -0.014 A
HETATM    3  C12 UNL     1      -4.212 -25.100  22.849  1.00  0.00     0.052 C
HETATM    4  C13 UNL     1      -5.483 -23.081  22.234  1.00  0.00     0.086 A
HETATM    5  C14 UNL     1      -6.565 -22.245  22.326  1.00  0.00     0.041 A
HETATM    6  C15 UNL     1      -6.666 -21.189  21.427  1.00  0.00    -0.034 A
HETATM    7  C16 UNL     1      -5.680 -20.880  20.393  1.00  0.00     0.050 C
HETATM    8  C17 UNL     1      -7.823 -20.408  21.592  1.00  0.00     0.021 A
HETATM    9  C18 UNL     1      -8.005 -19.260  20.649  1.00  0.00     0.055 C
HETATM   10  C19 UNL     1      -8.746 -20.705  22.578  1.00  0.00     0.294 A
HETATM   11  O4  UNL     1      -9.758 -19.933  22.642  1.00  0.00    -0.259 OA
HETATM   12  O5  UNL     1      -8.568 -21.719  23.381  1.00  0.00    -0.271 OA
HETATM   13  C20 UNL     1      -7.499 -22.488  23.265  1.00  0.00     0.127 A
HETATM   14  C21 UNL     1      -7.346 -23.573  24.119  1.00  0.00     0.112 A
ENDROOT
BRANCH   1  15
HETATM   15  C9  UNL     1      -6.254 -25.547  25.017  1.00  0.00     0.070 C
BRANCH  15  16
HETATM   16  C8  UNL     1      -5.913 -25.728  26.178  1.00  0.00    -0.127 C
BRANCH  16  17
HETATM   17  C7  UNL     1      -5.526 -25.955  27.509  1.00  0.00     0.060 C
BRANCH  17  18
HETATM   18  C6  UNL     1      -5.004 -25.054  28.361  1.00  0.00     0.065 C
BRANCH  18  19
HETATM   19  C5  UNL     1      -3.751 -25.200  29.025  1.00  0.00     0.155 C
BRANCH  19  20
HETATM   20  N2  UNL     1      -2.543 -24.670  28.608  1.00  0.00    -0.281 N
ATOM     21  H2  UNL     1      -1.955 -24.130  29.243  1.00  0.00     0.189 HD
BRANCH  20  22
HETATM   22  N1  UNL     1      -2.137 -24.913  27.221  1.00  0.00    -0.313 N
HETATM   23  C4  UNL     1      -2.056 -26.137  26.949  1.00  0.00     0.087 C
ATOM     24  H1  UNL     1      -1.942 -24.170  26.549  1.00  0.00     0.185 HD
BRANCH  23  25
HETATM   25  C3  UNL     1      -1.702 -26.889  25.723  1.00  0.00     0.124 C
BRANCH  25  26
HETATM   26  C2  UNL     1      -2.744 -27.943  25.513  1.00  0.00     0.127 C
HETATM   27  C1  UNL     1      -3.196 -28.754  26.719  1.00  0.00     0.091 C
HETATM   28  O1  UNL     1      -3.186 -28.106  24.408  1.00  0.00    -0.298 OA
ENDBRANCH  25  26
ENDBRANCH  23  25
ENDBRANCH  20  22
ENDBRANCH  19  20
BRANCH  19  29
HETATM   29  O2  UNL     1      -3.747 -25.908  30.137  1.00  0.00    -0.345 OA
ATOM     30  H2  UNL     1      -3.939 -26.835  30.063  1.00  0.00     0.219 HD
ENDBRANCH  19  29
ENDBRANCH  18  19
ENDBRANCH  17  18
ENDBRANCH  16  17
ENDBRANCH  15  16
ENDBRANCH   1  15
BRANCH  14  31
HETATM   31  O6  UNL     1      -8.367 -23.749  25.066  1.00  0.00    -0.357 OA
ATOM     32  H6  UNL     1      -8.182 -23.714  25.997  1.00  0.00     0.217 HD
ENDBRANCH  14  31
BRANCH   4  33
HETATM   33  O3  UNL     1      -4.540 -22.842  21.309  1.00  0.00    -0.359 OA
ATOM     34  H3  UNL     1      -4.811 -22.574  20.439  1.00  0.00     0.217 HD
ENDBRANCH   4  33
TORSDOF 12
ENDMDL