MODEL 5
REMARK VINA RESULT: -7.816067890      4.801      8.421
REMARK  8 active torsions:
REMARK  status: ('A' for Active; 'I' for Inactive)
REMARK    1  A    between atoms: N2_5  and  C3_6
REMARK    2  A    between atoms: C3_6  and  C4_7
REMARK    3  A    between atoms: C4_7  and  C5_8
REMARK    4  A    between atoms: C5_8  and  O1_9
REMARK    5  A    between atoms: C7_13  and  C8_14
REMARK    6  A    between atoms: C8_14  and  C9_16
REMARK    7  A    between atoms: C9_16  and  N3_17
REMARK    8  A    between atoms: C12_21  and  N4_22
ROOT
HETATM    1  N3  UNL     1      -2.441 -21.591  19.958  1.00  0.00    -0.322 N
HETATM    2  C10 UNL     1      -1.250 -22.204  19.931  1.00  0.00     0.036 A
HETATM    3  C11 UNL     1      -0.536 -22.097  18.771  1.00  0.00     0.018 A
HETATM    4  S1  UNL     1      -1.534 -21.155  17.765  1.00  0.00    -0.056 SA
HETATM    5  C12 UNL     1      -2.810 -20.940  18.855  1.00  0.00     0.145 A
HETATM    6  C13 UNL     1       0.798 -22.721  18.491  1.00  0.00    -0.012 C
HETATM    7  C14 UNL     1       0.888 -22.998  17.019  1.00  0.00     0.021 C
HETATM    8  C15 UNL     1       1.946 -21.834  18.891  1.00  0.00     0.021 C
HETATM    9  C16 UNL     1       0.842 -23.993  19.331  1.00  0.00     0.015 C
HETATM   10  C17 UNL     1       0.728 -23.486  20.729  1.00  0.00     0.016 C
HETATM   11  C18 UNL     1      -0.652 -23.033  21.053  1.00  0.00    -0.004 C
HETATM   12  C19 UNL     1      -1.483 -24.282  21.276  1.00  0.00     0.021 C
HETATM   13  C20 UNL     1      -0.514 -22.240  22.348  1.00  0.00     0.021 C
ENDROOT
BRANCH   1  14
HETATM   14  C9  UNL     1      -3.395 -21.532  21.110  1.00  0.00     0.215 C
BRANCH  14  15
HETATM   15  C8  UNL     1      -4.672 -22.150  20.771  1.00  0.00     0.185 C
HETATM   16  O3  UNL     1      -4.738 -23.137  20.024  1.00  0.00    -0.290 OA
BRANCH  15  17
HETATM   17  C7  UNL     1      -5.899 -21.614  21.317  1.00  0.00     0.104 A
HETATM   18  C2  UNL     1      -6.623 -22.170  22.379  1.00  0.00     0.041 A
HETATM   19  C1  UNL     1      -6.233 -23.386  23.107  1.00  0.00     0.071 C
HETATM   20  N1  UNL     1      -7.716 -21.432  22.631  1.00  0.00    -0.299 N
HETATM   21  N2  UNL     1      -7.740 -20.412  21.776  1.00  0.00    -0.257 N
ATOM     22  H1  UNL     1      -8.410 -21.621  23.353  1.00  0.00     0.187 HD
HETATM   23  C6  UNL     1      -6.641 -20.510  20.969  1.00  0.00     0.278 A
HETATM   24  O2  UNL     1      -6.372 -19.701  20.058  1.00  0.00    -0.265 OA
BRANCH  21  25
HETATM   25  C3  UNL     1      -8.779 -19.430  21.757  1.00  0.00     0.154 C
BRANCH  25  26
HETATM   26  C4  UNL     1      -9.922 -19.843  20.883  1.00  0.00     0.048 C
BRANCH  26  27
HETATM   27  C5  UNL     1      -9.825 -19.344  19.477  1.00  0.00     0.165 C
BRANCH  27  28
HETATM   28  O1  UNL     1      -8.964 -18.232  19.457  1.00  0.00    -0.401 OA
ATOM     29  H1  UNL     1      -8.458 -18.257  18.653  1.00  0.00     0.209 HD
ENDBRANCH  27  28
ENDBRANCH  26  27
ENDBRANCH  25  26
ENDBRANCH  21  25
ENDBRANCH  15  17
ENDBRANCH  14  15
ENDBRANCH   1  14
BRANCH   5  30
HETATM   30  N4  UNL     1      -3.931 -20.271  18.655  1.00  0.00    -0.379 N
ATOM     31  H42 UNL     1      -4.855 -20.482  19.034  1.00  0.00     0.158 HD
ATOM     32  H41 UNL     1      -4.060 -19.433  18.088  1.00  0.00     0.158 HD
ENDBRANCH   5  30
TORSDOF 8
ENDMDL