MODEL 1
REMARK VINA RESULT: -8.314364239      0.000      0.000
REMARK  8 active torsions:
REMARK  status: ('A' for Active; 'I' for Inactive)
REMARK    1  A    between atoms: C4_4  and  C5_5
REMARK    2  A    between atoms: C5_5  and  N1_6
REMARK    3  A    between atoms: C6_7  and  N2_8
REMARK    4  A    between atoms: C7_11  and  C8_12
REMARK       I    between atoms: C8_12  and  N3_14
REMARK    5  A    between atoms: N3_14  and  C9_16
REMARK    6  A    between atoms: C9_16  and  C10_17
REMARK    7  A    between atoms: C10_17  and  N4_18
REMARK    8  A    between atoms: C13_21  and  O2_22
ROOT
HETATM    1  N1  UNL     1      -5.701 -25.052  23.836  1.00  0.00    -0.322 N
HETATM    2  C6  UNL     1      -4.478 -25.129  23.224  1.00  0.00     0.121 A
HETATM    3  C7  UNL     1      -4.132 -24.040  22.407  1.00  0.00     0.109 A
HETATM    4  C13 UNL     1      -4.975 -22.944  22.225  1.00  0.00     0.098 A
HETATM    5  C14 UNL     1      -6.229 -22.924  22.889  1.00  0.00     0.039 A
HETATM    6  C15 UNL     1      -7.158 -21.924  22.840  1.00  0.00    -0.040 A
HETATM    7  C16 UNL     1      -7.027 -20.641  22.027  1.00  0.00     0.049 C
HETATM    8  C17 UNL     1      -8.292 -22.107  23.586  1.00  0.00     0.059 A
HETATM    9  S1  UNL     1      -8.052 -23.619  24.318  1.00  0.00    -0.083 SA
HETATM   10  C18 UNL     1      -6.512 -23.991  23.658  1.00  0.00     0.091 A
ENDROOT
BRANCH   3  11
HETATM   11  C8  UNL     1      -2.838 -24.106  21.749  1.00  0.00     0.258 C
HETATM   12  O1  UNL     1      -1.808 -23.990  22.517  1.00  0.00    -0.267 OA
HETATM   13  N3  UNL     1      -2.530 -24.278  20.392  1.00  0.00    -0.355 N
ATOM     14  H3  UNL     1      -3.295 -24.383  19.725  1.00  0.00     0.162 HD
BRANCH  13  15
HETATM   15  C9  UNL     1      -1.156 -24.314  19.895  1.00  0.00     0.153 C
BRANCH  15  16
HETATM   16  C10 UNL     1      -0.725 -22.989  19.352  1.00  0.00     0.291 C
BRANCH  16  17
HETATM   17  N4  UNL     1      -1.668 -22.567  18.308  1.00  0.00     0.081 N
HETATM   18  C11 UNL     1      -2.316 -21.319  18.723  1.00  0.00     0.309 C
HETATM   19  C12 UNL     1      -0.913 -22.253  17.109  1.00  0.00     0.309 C
ENDBRANCH  16  17
ENDBRANCH  15  16
ENDBRANCH  13  15
ENDBRANCH   3  11
BRANCH   2  20
HETATM   20  N2  UNL     1      -3.789 -26.104  23.433  1.00  0.00    -0.384 N
ATOM     21  H22 UNL     1      -4.066 -26.924  23.972  1.00  0.00     0.157 HD
ATOM     22  H21 UNL     1      -2.851 -26.128  23.035  1.00  0.00     0.157 HD
ENDBRANCH   2  20
BRANCH   4  23
HETATM   23  O2  UNL     1      -4.582 -21.950  21.437  1.00  0.00    -0.359 OA
ATOM     24  H2  UNL     1      -5.164 -21.646  20.750  1.00  0.00     0.217 HD
ENDBRANCH   4  23
BRANCH   1  25
HETATM   25  C5  UNL     1      -6.112 -26.103  24.710  1.00  0.00     0.170 C
BRANCH  25  26
HETATM   26  C4  UNL     1      -5.354 -26.166  26.024  1.00  0.00    -0.032 A
HETATM   27  C3  UNL     1      -5.679 -25.357  27.068  1.00  0.00     0.023 A
HETATM   28  C2  UNL     1      -4.939 -25.472  28.208  1.00  0.00    -0.021 A
HETATM   29  C1  UNL     1      -5.102 -24.693  29.492  1.00  0.00     0.056 C
HETATM   30  S2  UNL     1      -3.819 -26.683  27.830  1.00  0.00    -0.106 SA
HETATM   31  C19 UNL     1      -4.316 -27.023  26.217  1.00  0.00     0.058 A
ENDBRANCH  25  26
ENDBRANCH   1  25
TORSDOF 8
ENDMDL