MODEL 3
REMARK VINA RESULT: -7.317767609      2.649      5.910
REMARK  10 active torsions:
REMARK  status: ('A' for Active; 'I' for Inactive)
REMARK    1  A    between atoms: C2_2  and  C3_3
REMARK    2  A    between atoms: C4_5  and  N1_6
REMARK       I    between atoms: N1_6  and  C5_8
REMARK    3  A    between atoms: C5_8  and  O3_10
REMARK    4  A    between atoms: O3_10  and  C6_11
REMARK    5  A    between atoms: C10_15  and  C11_16
REMARK    6  A    between atoms: C11_16  and  O4_17
REMARK    7  A    between atoms: C12_19  and  C13_20
REMARK    8  A    between atoms: C15_22  and  O5_23
REMARK    9  A    between atoms: C16_25  and  O6_26
REMARK   10  A    between atoms: C19_29  and  O7_30
ROOT
HETATM    1  C3  UNL     1      -2.950 -22.682  21.738  1.00  0.00     0.133 C
HETATM    2  O1  UNL     1      -3.513 -21.499  21.246  1.00  0.00    -0.360 OA
HETATM    3  C4  UNL     1      -4.648 -21.856  20.543  1.00  0.00     0.232 C
HETATM    4  C10 UNL     1      -5.199 -23.092  21.201  1.00  0.00     0.069 C
HETATM    5  C12 UNL     1      -3.921 -23.775  21.652  1.00  0.00     0.061 C
ENDROOT
BRANCH   5   6
HETATM    6  C13 UNL     1      -4.116 -24.653  22.790  1.00  0.00    -0.015 A
HETATM    7  C14 UNL     1      -5.310 -25.095  23.304  1.00  0.00     0.049 A
HETATM    8  C15 UNL     1      -5.393 -25.948  24.402  1.00  0.00     0.099 A
HETATM    9  C16 UNL     1      -4.247 -26.378  25.016  1.00  0.00     0.103 A
HETATM   10  C18 UNL     1      -3.041 -25.950  24.523  1.00  0.00     0.076 A
HETATM   11  C19 UNL     1      -2.973 -25.109  23.438  1.00  0.00     0.077 A
BRANCH   8  12
HETATM   12  O5  UNL     1      -6.662 -26.325  24.826  1.00  0.00    -0.358 OA
ATOM     13  H5  UNL     1      -6.759 -27.192  25.201  1.00  0.00     0.217 HD
ENDBRANCH   8  12
BRANCH   9  14
HETATM   14  O6  UNL     1      -4.326 -27.219  26.099  1.00  0.00    -0.353 OA
HETATM   15  C17 UNL     1      -3.325 -28.155  26.444  1.00  0.00     0.210 C
ENDBRANCH   9  14
BRANCH  11  16
HETATM   16  O7  UNL     1      -1.724 -24.725  23.005  1.00  0.00    -0.355 OA
HETATM   17  C20 UNL     1      -0.524 -25.040  23.637  1.00  0.00     0.210 C
ENDBRANCH  11  16
ENDBRANCH   5   6
BRANCH   1  18
HETATM   18  C2  UNL     1      -1.764 -22.950  20.794  1.00  0.00     0.028 C
HETATM   19  C1  UNL     1      -0.854 -21.774  20.666  1.00  0.00     0.007 C
ENDBRANCH   1  18
BRANCH   4  20
HETATM   20  C11 UNL     1      -6.136 -22.785  22.326  1.00  0.00     0.173 C
BRANCH  20  21
HETATM   21  O4  UNL     1      -5.820 -21.627  23.009  1.00  0.00    -0.400 OA
ATOM     22  H4  UNL     1      -5.689 -21.759  23.941  1.00  0.00     0.209 HD
ENDBRANCH  20  21
ENDBRANCH   4  20
BRANCH   3  23
HETATM   23  N1  UNL     1      -5.563 -20.742  20.555  1.00  0.00    -0.310 N
HETATM   24  C5  UNL     1      -6.527 -20.532  19.526  1.00  0.00     0.363 C
HETATM   25  O2  UNL     1      -6.624 -21.319  18.546  1.00  0.00    -0.238 OA
ATOM     26  H1  UNL     1      -5.519 -20.079  21.329  1.00  0.00     0.167 HD
BRANCH  24  27
HETATM   27  O3  UNL     1      -7.404 -19.460  19.540  1.00  0.00    -0.294 OA
BRANCH  27  28
HETATM   28  C6  UNL     1      -8.648 -19.517  20.211  1.00  0.00     0.061 C
HETATM   29  C7  UNL     1      -8.593 -18.474  21.307  1.00  0.00     0.046 C
HETATM   30  C8  UNL     1      -8.960 -20.839  20.815  1.00  0.00     0.046 C
HETATM   31  C9  UNL     1      -9.788 -19.132  19.296  1.00  0.00     0.046 C
ENDBRANCH  27  28
ENDBRANCH  24  27
ENDBRANCH   3  23
TORSDOF 10
ENDMDL