MODEL 2
REMARK VINA RESULT: -7.905117743      2.873      8.192
REMARK  10 active torsions:
REMARK  status: ('A' for Active; 'I' for Inactive)
REMARK    1  A    between atoms: C2_2  and  N1_3
REMARK    2  A    between atoms: N1_3  and  C3_5
REMARK    3  A    between atoms: C4_8  and  N3_9
REMARK    4  A    between atoms: N3_9  and  N4_11
REMARK    5  A    between atoms: C5_13  and  C6_14
REMARK    6  A    between atoms: C8_17  and  C9_18
REMARK    7  A    between atoms: C9_18  and  C10_19
REMARK    8  A    between atoms: C10_19  and  N5_20
REMARK    9  A    between atoms: C13_23  and  O1_24
REMARK   10  A    between atoms: C16_31  and  C17_32
ROOT
HETATM    1  C3  UNL     1      -6.763 -21.767  21.996  1.00  0.00     0.132 A
HETATM    2  N2  UNL     1      -5.743 -22.579  21.692  1.00  0.00    -0.174 N
ATOM      3  H2  UNL     1      -5.370 -23.212  22.400  1.00  0.00     0.186 HD
HETATM    4  C4  UNL     1      -5.202 -22.565  20.449  1.00  0.00     0.700 A
HETATM    5  N6  UNL     1      -5.637 -21.763  19.473  1.00  0.00    -0.168 N
ATOM      6  H6  UNL     1      -5.203 -21.783  18.551  1.00  0.00     0.186 HD
HETATM    7  C14 UNL     1      -6.659 -20.930  19.731  1.00  0.00     0.176 A
HETATM    8  O2  UNL     1      -7.306 -20.036  19.003  1.00  0.00    -0.304 OA
HETATM    9  C15 UNL     1      -8.247 -19.465  19.714  1.00  0.00     0.152 A
HETATM   10  C16 UNL     1      -8.253 -19.985  20.996  1.00  0.00    -0.018 A
HETATM   11  C19 UNL     1      -7.242 -20.919  21.007  1.00  0.00     0.068 A
ENDROOT
BRANCH   4  12
HETATM   12  N3  UNL     1      -4.231 -23.374  20.242  1.00  0.00    -0.132 N
ATOM     13  H3  UNL     1      -3.784 -23.393  19.325  1.00  0.00     0.205 HD
BRANCH  12  14
HETATM   14  N4  UNL     1      -3.782 -24.211  21.222  1.00  0.00    -0.297 N
HETATM   15  C5  UNL     1      -2.911 -23.844  22.073  1.00  0.00     0.122 C
ATOM     16  H4  UNL     1      -4.155 -25.159  21.273  1.00  0.00     0.186 HD
BRANCH  15  17
HETATM   17  C6  UNL     1      -2.440 -24.784  23.134  1.00  0.00     0.022 A
HETATM   18  C7  UNL     1      -1.132 -24.765  23.541  1.00  0.00     0.066 A
HETATM   19  S1  UNL     1      -1.080 -25.975  24.732  1.00  0.00    -0.098 SA
HETATM   20  C8  UNL     1      -2.704 -26.479  24.692  1.00  0.00     0.040 A
HETATM   21  C13 UNL     1      -3.255 -25.670  23.728  1.00  0.00     0.095 A
BRANCH  20  22
HETATM   22  C9  UNL     1      -3.398 -27.516  25.475  1.00  0.00     0.038 C
BRANCH  22  23
HETATM   23  C10 UNL     1      -3.830 -27.262  26.687  1.00  0.00     0.086 C
BRANCH  23  24
HETATM   24  N5  UNL     1      -4.316 -26.046  27.196  1.00  0.00    -0.398 N
HETATM   25  C11 UNL     1      -3.470 -25.253  28.080  1.00  0.00     0.148 C
HETATM   26  C12 UNL     1      -5.664 -25.628  26.831  1.00  0.00     0.148 C
ENDBRANCH  23  24
ENDBRANCH  22  23
ENDBRANCH  20  22
BRANCH  21  27
HETATM   27  O1  UNL     1      -4.637 -25.798  23.403  1.00  0.00    -0.358 OA
ATOM     28  H1  UNL     1      -5.189 -26.490  23.747  1.00  0.00     0.217 HD
ENDBRANCH  21  27
ENDBRANCH  15  17
ENDBRANCH  12  14
ENDBRANCH   4  12
BRANCH   1  29
HETATM   29  N1  UNL     1      -7.343 -21.713  23.138  1.00  0.00    -0.375 N
ATOM     30  H1  UNL     1      -7.742 -20.840  23.482  1.00  0.00     0.161 HD
BRANCH  29  31
HETATM   31  C2  UNL     1      -7.416 -22.923  23.924  1.00  0.00     0.116 C
HETATM   32  C1  UNL     1      -8.760 -23.096  24.603  1.00  0.00     0.026 C
ENDBRANCH  29  31
ENDBRANCH   1  29
BRANCH  10  33
HETATM   33  C17 UNL     1      -9.122 -19.636  22.138  1.00  0.00     0.037 C
HETATM   34  C18 UNL     1     -10.355 -20.504  22.243  1.00  0.00     0.010 C
ENDBRANCH  10  33
TORSDOF 10
ENDMDL