MODEL 2
REMARK VINA RESULT: -7.764371310      3.848      5.966
REMARK  8 active torsions:
REMARK  status: ('A' for Active; 'I' for Inactive)
REMARK    1  A    between atoms: C2_2  and  C3_7
REMARK    2  A    between atoms: N1_3  and  O1_5
REMARK    3  A    between atoms: C6_11  and  C7_12
REMARK    4  A    between atoms: C7_12  and  S1_13
REMARK    5  A    between atoms: S1_13  and  C8_14
REMARK    6  A    between atoms: C9_15  and  C10_16
REMARK    7  A    between atoms: C12_22  and  C13_23
REMARK    8  A    between atoms: C13_23  and  O6_25
ROOT
HETATM    1  C8  UNL     1      -5.411 -22.340  21.798  1.00  0.00     0.018 C
HETATM    2  C9  UNL     1      -5.622 -22.024  20.516  1.00  0.00     0.128 C
HETATM    3  N2  UNL     1      -6.652 -21.077  20.475  1.00  0.00    -0.304 N
HETATM    4  C11 UNL     1      -7.534 -20.040  20.091  1.00  0.00     0.233 C
HETATM    5  O5  UNL     1      -8.032 -19.551  19.054  1.00  0.00    -0.272 OA
HETATM    6  C12 UNL     1      -7.660 -19.710  21.536  1.00  0.00     0.130 C
HETATM    7  C15 UNL     1      -7.431 -21.172  21.707  1.00  0.00     0.117 C
HETATM    8  C16 UNL     1      -6.338 -21.592  22.674  1.00  0.00     0.048 C
HETATM    9  C17 UNL     1      -7.036 -22.477  23.701  1.00  0.00     0.018 C
ENDROOT
BRANCH   1  10
HETATM   10  S1  UNL     1      -4.166 -23.505  22.283  1.00  0.00    -0.127 SA
BRANCH  10  11
HETATM   11  C7  UNL     1      -4.679 -25.174  22.426  1.00  0.00     0.121 C
BRANCH  11  12
HETATM   12  C6  UNL     1      -4.691 -25.709  23.786  1.00  0.00    -0.010 A
HETATM   13  C4  UNL     1      -5.910 -26.064  24.434  1.00  0.00     0.057 A
HETATM   14  O2  UNL     1      -5.668 -26.521  25.611  1.00  0.00    -0.312 OA
HETATM   15  C5  UNL     1      -7.240 -25.903  23.782  1.00  0.00     0.077 C
HETATM   16  C3  UNL     1      -4.349 -26.523  25.863  1.00  0.00     0.106 A
HETATM   17  C18 UNL     1      -3.747 -26.020  24.722  1.00  0.00    -0.017 A
HETATM   18  C19 UNL     1      -2.277 -25.931  24.558  1.00  0.00     0.052 C
BRANCH  16  19
HETATM   19  C2  UNL     1      -3.771 -26.976  27.123  1.00  0.00     0.062 C
HETATM   20  C1  UNL     1      -3.235 -26.127  28.178  1.00  0.00     0.073 C
HETATM   21  N1  UNL     1      -3.756 -28.278  27.348  1.00  0.00    -0.271 N
ATOM     22  H1  UNL     1      -4.115 -28.934  26.654  1.00  0.00     0.194 HD
BRANCH  21  23
HETATM   23  O1  UNL     1      -3.249 -28.719  28.532  1.00  0.00    -0.290 OA
ATOM     24  H1  UNL     1      -3.031 -29.640  28.610  1.00  0.00     0.244 HD
ENDBRANCH  21  23
ENDBRANCH  16  19
ENDBRANCH  11  12
ENDBRANCH  10  11
ENDBRANCH   1  10
BRANCH   2  25
HETATM   25  C10 UNL     1      -4.926 -22.532  19.331  1.00  0.00     0.228 C
HETATM   26  O3  UNL     1      -5.612 -23.145  18.481  1.00  0.00    -0.643 OA
HETATM   27  O4  UNL     1      -3.575 -22.356  19.136  1.00  0.00    -0.643 OA
ENDBRANCH   2  25
BRANCH   6  28
HETATM   28  C13 UNL     1      -9.014 -19.301  22.008  1.00  0.00     0.129 C
HETATM   29  C14 UNL     1      -8.990 -18.025  22.800  1.00  0.00     0.040 C
BRANCH  28  30
HETATM   30  O6  UNL     1      -9.930 -19.250  20.957  1.00  0.00    -0.395 OA
ATOM     31  H6  UNL     1     -10.267 -18.372  20.830  1.00  0.00     0.210 HD
ENDBRANCH  28  30
ENDBRANCH   6  28
TORSDOF 8
ENDMDL