MODEL 1
REMARK VINA RESULT: -9.108105792      0.000      0.000
REMARK  7 active torsions:
REMARK  status: ('A' for Active; 'I' for Inactive)
REMARK    1  A    between atoms: S1_2  and  C2_3
REMARK    2  A    between atoms: C2_3  and  C3_4
REMARK    3  A    between atoms: C3_4  and  C4_5
REMARK    4  A    between atoms: C4_5  and  N1_6
REMARK    5  A    between atoms: C4_5  and  C19_28
REMARK       I    between atoms: N1_6  and  C5_8
REMARK    6  A    between atoms: C5_8  and  C6_10
REMARK    7  A    between atoms: C7_11  and  O2_12
ROOT
HETATM    1  C6  UNL     1      -4.254 -20.905  20.517  1.00  0.00     0.141 A
HETATM    2  C7  UNL     1      -4.675 -21.724  21.597  1.00  0.00     0.100 A
HETATM    3  C8  UNL     1      -5.967 -21.675  22.034  1.00  0.00     0.034 A
HETATM    4  C9  UNL     1      -6.435 -22.445  23.077  1.00  0.00     0.026 A
HETATM    5  C10 UNL     1      -7.752 -22.396  23.521  1.00  0.00    -0.026 A
HETATM    6  C11 UNL     1      -8.204 -23.253  24.656  1.00  0.00     0.051 C
HETATM    7  C12 UNL     1      -8.600 -21.528  22.867  1.00  0.00     0.094 A
HETATM    8  O3  UNL     1      -9.876 -21.264  23.056  1.00  0.00    -0.321 OA
HETATM    9  C13 UNL     1     -10.265 -20.353  22.179  1.00  0.00     0.150 A
HETATM   10  C14 UNL     1      -9.195 -20.003  21.379  1.00  0.00    -0.024 A
HETATM   11  C15 UNL     1      -9.182 -19.018  20.269  1.00  0.00     0.051 C
HETATM   12  C16 UNL     1      -8.135 -20.761  21.831  1.00  0.00     0.041 A
HETATM   13  C17 UNL     1      -6.822 -20.807  21.382  1.00  0.00     0.106 A
HETATM   14  O4  UNL     1      -6.405 -20.068  20.395  1.00  0.00    -0.273 OA
HETATM   15  C18 UNL     1      -5.154 -20.079  19.931  1.00  0.00     0.307 A
HETATM   16  O5  UNL     1      -4.888 -19.300  18.954  1.00  0.00    -0.259 OA
ENDROOT
BRANCH   1  17
HETATM   17  C5  UNL     1      -2.886 -21.003  20.107  1.00  0.00     0.261 C
HETATM   18  N1  UNL     1      -2.414 -21.648  18.963  1.00  0.00    -0.342 N
ATOM     19  H1  UNL     1      -3.076 -22.105  18.334  1.00  0.00     0.163 HD
HETATM   20  O1  UNL     1      -1.960 -20.458  20.833  1.00  0.00    -0.267 OA
BRANCH  18  21
HETATM   21  C4  UNL     1      -0.968 -21.679  18.648  1.00  0.00     0.186 C
BRANCH  21  22
HETATM   22  C3  UNL     1      -0.394 -22.938  19.219  1.00  0.00     0.046 C
BRANCH  22  23
HETATM   23  C2  UNL     1       0.886 -22.723  19.975  1.00  0.00     0.076 C
BRANCH  23  24
HETATM   24  S1  UNL     1       0.645 -22.568  21.747  1.00  0.00    -0.173 SA
HETATM   25  C1  UNL     1      -0.487 -23.896  22.276  1.00  0.00     0.089 C
ENDBRANCH  23  24
ENDBRANCH  22  23
ENDBRANCH  21  22
BRANCH  21  26
HETATM   26  C19 UNL     1      -0.770 -21.513  17.210  1.00  0.00     0.196 C
HETATM   27  O6  UNL     1      -1.434 -20.718  16.495  1.00  0.00    -0.646 OA
HETATM   28  O7  UNL     1       0.206 -22.269  16.580  1.00  0.00    -0.646 OA
ENDBRANCH  21  26
ENDBRANCH  18  21
ENDBRANCH   1  17
BRANCH   2  29
HETATM   29  O2  UNL     1      -3.754 -22.563  22.191  1.00  0.00    -0.358 OA
ATOM     30  H2  UNL     1      -3.374 -23.263  21.673  1.00  0.00     0.217 HD
ENDBRANCH   2  29
TORSDOF 7
ENDMDL