MODEL 1
REMARK VINA RESULT: -7.971734399      0.000      0.000
REMARK  11 active torsions:
REMARK  status: ('A' for Active; 'I' for Inactive)
REMARK    1  A    between atoms: C2_2  and  C3_3
REMARK    2  A    between atoms: C8_11  and  C9_12
REMARK    3  A    between atoms: C8_11  and  C16_20
REMARK    4  A    between atoms: C9_12  and  C10_13
REMARK    5  A    between atoms: C11_14  and  C12_15
REMARK    6  A    between atoms: C13_16  and  C14_17
REMARK    7  A    between atoms: C16_20  and  C17_21
REMARK    8  A    between atoms: C17_21  and  C18_22
REMARK    9  A    between atoms: C20_24  and  O5_26
REMARK   10  A    between atoms: C22_28  and  O6_29
REMARK   11  A    between atoms: C22_28  and  O7_31
ROOT
HETATM    1  C3  UNL     1      -8.162 -20.730  22.004  1.00  0.00     0.081 A
HETATM    2  C4  UNL     1      -8.242 -20.145  20.759  1.00  0.00     0.092 A
HETATM    3  C5  UNL     1      -7.168 -20.172  19.858  1.00  0.00     0.191 A
HETATM    4  O1  UNL     1      -7.303 -19.626  18.753  1.00  0.00    -0.287 OA
HETATM    5  C6  UNL     1      -6.006 -20.805  20.245  1.00  0.00     0.115 A
HETATM    6  C7  UNL     1      -5.999 -21.367  21.501  1.00  0.00     0.202 A
HETATM    7  O2  UNL     1      -7.023 -21.320  22.311  1.00  0.00    -0.287 OA
HETATM    8  O3  UNL     1      -4.873 -22.000  21.920  1.00  0.00    -0.315 OA
HETATM    9  C8  UNL     1      -3.670 -22.183  21.204  1.00  0.00     0.109 C
HETATM   10  C20 UNL     1      -3.579 -21.298  20.014  1.00  0.00     0.147 C
HETATM   11  C21 UNL     1      -2.657 -21.801  18.922  1.00  0.00     0.055 C
HETATM   12  C22 UNL     1      -4.844 -20.874  19.362  1.00  0.00     0.232 C
ENDROOT
BRANCH   9  13
HETATM   13  C9  UNL     1      -3.515 -23.652  20.989  1.00  0.00     0.069 C
BRANCH  13  14
HETATM   14  C10 UNL     1      -3.274 -24.491  22.149  1.00  0.00    -0.015 C
HETATM   15  C11 UNL     1      -4.258 -25.104  22.769  1.00  0.00     0.061 C
BRANCH  15  16
HETATM   16  C12 UNL     1      -4.082 -25.943  23.918  1.00  0.00    -0.070 C
HETATM   17  C13 UNL     1      -3.923 -26.658  24.889  1.00  0.00    -0.025 C
BRANCH  17  18
HETATM   18  C14 UNL     1      -3.744 -27.483  26.051  1.00  0.00     0.198 C
HETATM   19  C15 UNL     1      -2.935 -28.729  26.039  1.00  0.00     0.106 C
HETATM   20  O4  UNL     1      -4.312 -27.101  27.106  1.00  0.00    -0.284 OA
ENDBRANCH  17  18
ENDBRANCH  15  16
ENDBRANCH  13  14
ENDBRANCH   9  13
BRANCH   9  21
HETATM   21  C16 UNL     1      -2.568 -21.759  22.160  1.00  0.00     0.042 C
BRANCH  21  22
HETATM   22  C17 UNL     1      -1.442 -22.695  22.324  1.00  0.00     0.003 C
BRANCH  22  23
HETATM   23  C18 UNL     1      -0.269 -22.117  21.509  1.00  0.00    -0.004 C
HETATM   24  C19 UNL     1       0.333 -23.190  20.648  1.00  0.00     0.005 C
ENDBRANCH  22  23
ENDBRANCH  21  22
ENDBRANCH   9  21
BRANCH  10  25
HETATM   25  O5  UNL     1      -2.966 -20.085  20.447  1.00  0.00    -0.381 OA
ATOM     26  H5  UNL     1      -3.648 -19.424  20.466  1.00  0.00     0.211 HD
ENDBRANCH  10  25
BRANCH  12  27
HETATM   27  O6  UNL     1      -5.162 -21.610  18.195  1.00  0.00    -0.359 OA
ATOM     28  H6  UNL     1      -5.465 -21.024  17.511  1.00  0.00     0.213 HD
ENDBRANCH  12  27
BRANCH  12  29
HETATM   29  O7  UNL     1      -4.687 -19.560  18.840  1.00  0.00    -0.359 OA
ATOM     30  H7  UNL     1      -4.711 -18.983  19.594  1.00  0.00     0.213 HD
ENDBRANCH  12  29
BRANCH   1  31
HETATM   31  C2  UNL     1      -9.247 -20.728  22.970  1.00  0.00     0.027 C
HETATM   32  C1  UNL     1     -10.384 -21.314  22.746  1.00  0.00     0.014 C
ENDBRANCH   1  31
TORSDOF 11
ENDMDL