MODEL 5
REMARK VINA RESULT: -6.171044855      1.023      1.975
REMARK  10 active torsions:
REMARK  status: ('A' for Active; 'I' for Inactive)
REMARK    1  A    between atoms: C2_2  and  C3_3
REMARK    2  A    between atoms: C3_3  and  C5_5
REMARK    3  A    between atoms: C5_5  and  C7_7
REMARK    4  A    between atoms: C7_7  and  C9_9
REMARK    5  A    between atoms: C7_7  and  C13_16
REMARK    6  A    between atoms: C12_13  and  O2_14
REMARK    7  A    between atoms: C15_19  and  O4_20
REMARK    8  A    between atoms: C16_22  and  O5_23
REMARK    9  A    between atoms: C17_25  and  O6_26
REMARK   10  A    between atoms: C19_28  and  O7_29
ROOT
HETATM    1  C13 UNL     1      -2.679 -22.108  20.229  1.00  0.00     0.144 C
HETATM    2  O3  UNL     1      -2.883 -21.479  18.975  1.00  0.00    -0.376 OA
HETATM    3  C14 UNL     1      -1.534 -21.148  18.838  1.00  0.00     0.162 C
HETATM    4  C15 UNL     1      -0.815 -21.996  17.890  1.00  0.00     0.178 C
HETATM    5  C16 UNL     1       0.059 -23.080  18.380  1.00  0.00     0.180 C
HETATM    6  C17 UNL     1      -0.058 -23.436  19.825  1.00  0.00     0.181 C
HETATM    7  C19 UNL     1      -0.132 -22.132  20.583  1.00  0.00     0.161 C
HETATM    8  C21 UNL     1      -1.392 -21.402  20.304  1.00  0.00     0.079 C
ENDROOT
BRANCH   1   9
HETATM    9  C7  UNL     1      -3.820 -21.695  21.144  1.00  0.00     0.018 C
HETATM   10  C8  UNL     1      -3.299 -20.442  21.874  1.00  0.00     0.023 C
BRANCH   9  11
HETATM   11  C5  UNL     1      -4.128 -22.698  22.186  1.00  0.00     0.001 C
HETATM   12  C6  UNL     1      -5.520 -22.671  22.703  1.00  0.00     0.011 C
BRANCH  11  13
HETATM   13  C3  UNL     1      -3.483 -24.027  22.100  1.00  0.00    -0.014 C
HETATM   14  C4  UNL     1      -4.346 -25.228  22.340  1.00  0.00     0.010 C
BRANCH  13  15
HETATM   15  C2  UNL     1      -2.197 -24.108  22.891  1.00  0.00     0.000 C
HETATM   16  C1  UNL     1      -2.083 -25.169  23.901  1.00  0.00     0.005 C
ENDBRANCH  13  15
ENDBRANCH  11  13
ENDBRANCH   9  11
BRANCH   9  17
HETATM   17  C9  UNL     1      -4.946 -21.303  20.248  1.00  0.00     0.013 A
HETATM   18  C10 UNL     1      -5.533 -20.060  20.147  1.00  0.00     0.037 A
HETATM   19  C11 UNL     1      -6.510 -20.142  19.189  1.00  0.00     0.145 A
HETATM   20  O1  UNL     1      -6.511 -21.354  18.741  1.00  0.00    -0.300 OA
HETATM   21  C12 UNL     1      -5.608 -22.088  19.330  1.00  0.00     0.190 A
BRANCH  21  22
HETATM   22  O2  UNL     1      -5.439 -23.422  19.002  1.00  0.00    -0.340 OA
ATOM     23  H2  UNL     1      -4.657 -23.961  19.002  1.00  0.00     0.220 HD
ENDBRANCH  21  22
ENDBRANCH   9  17
ENDBRANCH   1   9
BRANCH   7  24
HETATM   24  O7  UNL     1       0.202 -22.345  21.885  1.00  0.00    -0.387 OA
HETATM   25  C20 UNL     1       1.466 -21.959  22.249  1.00  0.00     0.202 C
ENDBRANCH   7  24
BRANCH   4  26
HETATM   26  O4  UNL     1      -1.782 -22.619  17.055  1.00  0.00    -0.390 OA
ATOM     27  H4  UNL     1      -1.445 -23.475  16.818  1.00  0.00     0.210 HD
ENDBRANCH   4  26
BRANCH   6  28
HETATM   28  O6  UNL     1       1.093 -24.124  20.212  1.00  0.00    -0.385 OA
HETATM   29  C18 UNL     1       0.741 -25.412  20.602  1.00  0.00     0.202 C
ENDBRANCH   6  28
BRANCH   5  30
HETATM   30  O5  UNL     1       1.411 -22.722  18.161  1.00  0.00    -0.390 OA
ATOM     31  H5  UNL     1       1.975 -23.332  18.623  1.00  0.00     0.210 HD
ENDBRANCH   5  30
TORSDOF 10
ENDMDL