MODEL 5
REMARK VINA RESULT: -6.838442247      5.941      7.956
REMARK  8 active torsions:
REMARK  status: ('A' for Active; 'I' for Inactive)
REMARK    1  A    between atoms: C2_2  and  N1_3
REMARK    2  A    between atoms: N1_3  and  C3_4
REMARK    3  A    between atoms: N1_3  and  C5_6
REMARK    4  A    between atoms: C5_6  and  C6_7
REMARK    5  A    between atoms: C6_7  and  C7_8
REMARK    6  A    between atoms: C7_8  and  N2_9
REMARK       I    between atoms: N2_9  and  C8_11
REMARK    7  A    between atoms: C8_11  and  C9_13
REMARK    8  A    between atoms: C9_13  and  N3_14
ROOT
HETATM    1  N3  UNL     1      17.960  -6.876   6.347  1.00  0.00    -0.257 N
HETATM    2  C10 UNL     1      18.098  -7.511   7.531  1.00  0.00     0.330 A
HETATM    3  O2  UNL     1      18.764  -8.585   7.566  1.00  0.00    -0.246 OA
HETATM    4  N4  UNL     1      17.562  -7.062   8.689  1.00  0.00    -0.307 N
ATOM      5  H4  UNL     1      17.702  -7.587   9.552  1.00  0.00     0.170 HD
HETATM    6  C11 UNL     1      16.848  -5.927   8.703  1.00  0.00     0.059 A
HETATM    7  C12 UNL     1      16.675  -5.231   7.501  1.00  0.00     0.038 A
HETATM    8  C13 UNL     1      17.249  -5.739   6.335  1.00  0.00     0.260 A
HETATM    9  O3  UNL     1      17.088  -5.101   5.249  1.00  0.00    -0.267 OA
HETATM   10  C14 UNL     1      15.926  -3.973   7.366  1.00  0.00     0.051 A
HETATM   11  C15 UNL     1      15.297  -3.441   8.588  1.00  0.00     0.044 A
HETATM   12  C16 UNL     1      15.529  -4.221   9.815  1.00  0.00    -0.045 A
HETATM   13  C17 UNL     1      14.959  -3.714  10.989  1.00  0.00     0.015 A
HETATM   14  C18 UNL     1      15.093  -4.343  12.206  1.00  0.00    -0.056 A
HETATM   15  C19 UNL     1      14.471  -3.765  13.420  1.00  0.00     0.049 C
HETATM   16  C20 UNL     1      15.828  -5.527  12.251  1.00  0.00    -0.055 A
HETATM   17  C21 UNL     1      15.981  -6.215  13.557  1.00  0.00     0.049 C
HETATM   18  C22 UNL     1      16.402  -6.050  11.106  1.00  0.00     0.021 A
HETATM   19  C23 UNL     1      16.245  -5.394   9.916  1.00  0.00    -0.002 A
ENDROOT
BRANCH   1  20
HETATM   20  C9  UNL     1      18.539  -7.343   5.131  1.00  0.00     0.240 C
BRANCH  20  21
HETATM   21  C8  UNL     1      19.933  -6.757   4.881  1.00  0.00     0.239 C
HETATM   22  N2  UNL     1      20.886  -6.702   5.884  1.00  0.00    -0.336 N
ATOM     23  H2  UNL     1      20.534  -7.089   6.760  1.00  0.00     0.168 HD
HETATM   24  O1  UNL     1      20.146  -6.339   3.724  1.00  0.00    -0.271 OA
BRANCH  22  25
HETATM   25  C7  UNL     1      22.208  -6.254   6.012  1.00  0.00     0.092 C
BRANCH  25  26
HETATM   26  C6  UNL     1      23.005  -6.399   7.221  1.00  0.00     0.034 C
BRANCH  26  27
HETATM   27  C5  UNL     1      24.343  -5.830   7.428  1.00  0.00     0.086 C
BRANCH  27  28
HETATM   28  N1  UNL     1      24.497  -4.637   8.155  1.00  0.00    -0.391 N
BRANCH  28  29
HETATM   29  C2  UNL     1      25.888  -4.181   8.217  1.00  0.00     0.117 C
HETATM   30  C1  UNL     1      26.341  -3.524   6.938  1.00  0.00     0.026 C
ENDBRANCH  28  29
BRANCH  28  31
HETATM   31  C3  UNL     1      23.832  -4.440   9.366  1.00  0.00     0.117 C
HETATM   32  C4  UNL     1      24.831  -3.849  10.411  1.00  0.00     0.026 C
ENDBRANCH  28  31
ENDBRANCH  27  28
ENDBRANCH  26  27
ENDBRANCH  25  26
ENDBRANCH  22  25
ENDBRANCH  20  21
ENDBRANCH   1  20
TORSDOF 8
ENDMDL