MODEL 4
REMARK VINA RESULT: -7.437206945      3.629      8.293
REMARK  10 active torsions:
REMARK  status: ('A' for Active; 'I' for Inactive)
REMARK    1  A    between atoms: C4_4  and  C5_5
REMARK    2  A    between atoms: C5_5  and  O2_7
REMARK    3  A    between atoms: O2_7  and  C6_8
REMARK    4  A    between atoms: C10_14  and  C11_15
REMARK    5  A    between atoms: C11_15  and  C12_16
REMARK    6  A    between atoms: C12_16  and  C13_17
REMARK       I    between atoms: C13_17  and  N2_19
REMARK    7  A    between atoms: N2_19  and  C15_21
REMARK    8  A    between atoms: C15_21  and  C16_22
REMARK    9  A    between atoms: C16_22  and  C17_23
REMARK       I    between atoms: C17_23  and  N3_25
REMARK   10  A    between atoms: N3_25  and  C18_27
ROOT
HETATM    1  C1  UNL     1      22.232  -5.946   4.704  1.00  0.00     0.018 C
HETATM    2  C2  UNL     1      21.941  -7.062   5.064  1.00  0.00    -0.075 C
HETATM    3  C3  UNL     1      21.581  -8.387   5.513  1.00  0.00     0.058 A
HETATM    4  C4  UNL     1      20.649  -8.717   6.500  1.00  0.00     0.128 A
HETATM    5  N1  UNL     1      20.651 -10.040   6.573  1.00  0.00    -0.353 N
ATOM      6  H1  UNL     1      20.066 -10.582   7.210  1.00  0.00     0.166 HD
HETATM    7  C8  UNL     1      21.526 -10.580   5.696  1.00  0.00     0.013 A
HETATM    8  C9  UNL     1      21.791 -12.025   5.500  1.00  0.00     0.068 C
HETATM    9  C10 UNL     1      22.134  -9.550   5.006  1.00  0.00    -0.014 A
ENDROOT
BRANCH   4  10
HETATM   10  C5  UNL     1      19.881  -7.723   7.241  1.00  0.00     0.311 C
HETATM   11  O1  UNL     1      20.152  -7.529   8.467  1.00  0.00    -0.258 OA
BRANCH  10  12
HETATM   12  O2  UNL     1      18.877  -6.968   6.713  1.00  0.00    -0.317 OA
BRANCH  12  13
HETATM   13  C6  UNL     1      18.143  -7.292   5.555  1.00  0.00     0.175 C
HETATM   14  C7  UNL     1      18.336  -6.349   4.425  1.00  0.00     0.034 C
ENDBRANCH  12  13
ENDBRANCH  10  12
ENDBRANCH   4  10
BRANCH   9  15
HETATM   15  C11 UNL     1      23.160  -9.660   3.940  1.00  0.00     0.051 C
BRANCH  15  16
HETATM   16  C12 UNL     1      24.538  -9.852   4.471  1.00  0.00     0.107 C
BRANCH  16  17
HETATM   17  C13 UNL     1      25.412  -8.719   4.053  1.00  0.00     0.219 C
HETATM   18  O3  UNL     1      25.827  -8.698   2.872  1.00  0.00    -0.273 OA
HETATM   19  N2  UNL     1      25.788  -7.681   4.923  1.00  0.00    -0.356 N
HETATM   20  C14 UNL     1      25.317  -7.677   6.285  1.00  0.00     0.152 C
BRANCH  19  21
HETATM   21  C15 UNL     1      26.651  -6.614   4.480  1.00  0.00     0.134 C
BRANCH  21  22
HETATM   22  C16 UNL     1      25.770  -5.486   3.938  1.00  0.00     0.123 C
BRANCH  22  23
HETATM   23  C17 UNL     1      25.909  -4.293   4.781  1.00  0.00     0.224 C
HETATM   24  O4  UNL     1      25.265  -3.258   4.489  1.00  0.00    -0.273 OA
HETATM   25  N3  UNL     1      26.749  -4.257   5.926  1.00  0.00    -0.312 N
ATOM     26  H3  UNL     1      27.717  -4.571   5.861  1.00  0.00     0.170 HD
BRANCH  25  27
HETATM   27  C18 UNL     1      26.282  -3.824   7.054  1.00  0.00     0.130 A
HETATM   28  C19 UNL     1      25.891  -4.524   8.166  1.00  0.00     0.084 A
HETATM   29  C20 UNL     1      25.471  -3.583   9.084  1.00  0.00     0.076 A
HETATM   30  C21 UNL     1      24.951  -3.797  10.443  1.00  0.00     0.079 C
HETATM   31  O5  UNL     1      25.616  -2.418   8.522  1.00  0.00    -0.241 OA
HETATM   32  N4  UNL     1      26.091  -2.527   7.329  1.00  0.00    -0.245 N
ATOM     33  H4  UNL     1      26.289  -1.752   6.697  1.00  0.00     0.196 HD
ENDBRANCH  25  27
ENDBRANCH  22  23
ENDBRANCH  21  22
ENDBRANCH  19  21
ENDBRANCH  16  17
ENDBRANCH  15  16
ENDBRANCH   9  15
TORSDOF 10
ENDMDL