MODEL 3
REMARK VINA RESULT: -7.659636812      3.197      5.085
REMARK  8 active torsions:
REMARK  status: ('A' for Active; 'I' for Inactive)
REMARK    1  A    between atoms: C3_3  and  N1_4
REMARK    2  A    between atoms: C10_13  and  N3_14
REMARK    3  A    between atoms: C11_16  and  C12_17
REMARK    4  A    between atoms: C12_17  and  C13_18
REMARK    5  A    between atoms: C13_18  and  N4_19
REMARK    6  A    between atoms: N5_22  and  C16_23
REMARK    7  A    between atoms: C16_23  and  C17_24
REMARK    8  A    between atoms: C17_24  and  C18_25
ROOT
HETATM    1  C1  UNL     1      26.782  -3.865   6.103  1.00  0.00     0.058 C
HETATM    2  C2  UNL     1      26.472  -5.277   5.832  1.00  0.00     0.051 A
HETATM    3  C3  UNL     1      25.788  -6.052   6.719  1.00  0.00     0.130 A
HETATM    4  N2  UNL     1      25.581  -7.347   6.356  1.00  0.00    -0.176 N
ATOM      5  H2  UNL     1      25.072  -7.951   7.001  1.00  0.00     0.186 HD
HETATM    6  C10 UNL     1      26.016  -7.886   5.180  1.00  0.00     0.686 A
HETATM    7  N6  UNL     1      26.685  -7.114   4.323  1.00  0.00    -0.155 N
ATOM      8  H6  UNL     1      27.016  -7.501   3.439  1.00  0.00     0.187 HD
HETATM    9  C23 UNL     1      26.917  -5.843   4.620  1.00  0.00     0.269 A
HETATM   10  O1  UNL     1      27.536  -5.102   3.842  1.00  0.00    -0.267 OA
ENDROOT
BRANCH   6  11
HETATM   11  N3  UNL     1      25.764  -9.071   4.977  1.00  0.00    -0.205 N
HETATM   12  C11 UNL     1      24.855  -9.999   4.566  1.00  0.00     0.080 C
ATOM     13  H3  UNL     1      26.608  -9.589   5.223  1.00  0.00     0.183 HD
BRANCH  12  14
HETATM   14  C12 UNL     1      23.476  -9.543   4.126  1.00  0.00     0.075 C
BRANCH  14  15
HETATM   15  C13 UNL     1      22.563  -9.452   5.345  1.00  0.00     0.277 C
BRANCH  15  16
HETATM   16  N4  UNL     1      22.003  -8.115   5.465  1.00  0.00     0.092 N
HETATM   17  C14 UNL     1      20.563  -8.151   5.393  1.00  0.00     0.302 C
HETATM   18  C15 UNL     1      20.135  -8.133   3.959  1.00  0.00     0.302 C
HETATM   19  N5  UNL     1      20.454  -6.892   3.318  1.00  0.00     0.091 N
HETATM   20  C21 UNL     1      21.507  -6.196   4.036  1.00  0.00     0.302 C
HETATM   21  C22 UNL     1      22.510  -7.226   4.462  1.00  0.00     0.302 C
BRANCH  19  22
HETATM   22  C16 UNL     1      19.353  -5.968   3.203  1.00  0.00     0.273 C
BRANCH  22  23
HETATM   23  C17 UNL     1      19.107  -5.519   1.797  1.00  0.00     0.034 C
BRANCH  23  24
HETATM   24  C18 UNL     1      18.002  -6.288   1.117  1.00  0.00    -0.021 C
HETATM   25  C19 UNL     1      18.210  -6.527  -0.338  1.00  0.00     0.009 C
HETATM   26  C20 UNL     1      16.708  -5.508   1.302  1.00  0.00     0.009 C
ENDBRANCH  23  24
ENDBRANCH  22  23
ENDBRANCH  19  22
ENDBRANCH  15  16
ENDBRANCH  14  15
ENDBRANCH  12  14
ENDBRANCH   6  11
BRANCH   3  27
HETATM   27  N1  UNL     1      25.298  -5.540   7.953  1.00  0.00    -0.365 N
HETATM   28  C4  UNL     1      23.847  -5.222   8.043  1.00  0.00     0.125 C
HETATM   29  C5  UNL     1      23.614  -4.594   9.373  1.00  0.00     0.030 C
HETATM   30  C6  UNL     1      24.972  -4.034   9.688  1.00  0.00    -0.030 C
HETATM   31  C7  UNL     1      25.203  -3.761  11.139  1.00  0.00     0.016 C
HETATM   32  C8  UNL     1      25.202  -2.838   8.807  1.00  0.00     0.016 C
HETATM   33  C9  UNL     1      25.827  -5.227   9.215  1.00  0.00     0.133 C
ENDBRANCH   3  27
TORSDOF 8
ENDMDL