MODEL 5
REMARK VINA RESULT: -7.472799857      1.516      2.002
REMARK  8 active torsions:
REMARK  status: ('A' for Active; 'I' for Inactive)
REMARK    1  A    between atoms: O1_2  and  C2_3
REMARK    2  A    between atoms: C8_9  and  S1_10
REMARK    3  A    between atoms: S1_10  and  N1_13
REMARK    4  A    between atoms: N1_13  and  C9_15
REMARK    5  A    between atoms: C9_15  and  C10_16
REMARK    6  A    between atoms: N3_18  and  C11_20
REMARK    7  A    between atoms: C11_20  and  C12_21
REMARK    8  A    between atoms: C12_21  and  C13_22
ROOT
HETATM    1  S1  UNL     1      26.164  -7.640   4.350  1.00  0.00     0.259 S
HETATM    2  O2  UNL     1      27.328  -8.242   3.636  1.00  0.00    -0.201 OA
HETATM    3  O3  UNL     1      25.254  -7.045   3.297  1.00  0.00    -0.201 OA
ENDROOT
BRANCH   1   4
HETATM    4  C8  UNL     1      25.266  -8.809   5.314  1.00  0.00     0.086 A
HETATM    5  C6  UNL     1      24.120  -8.509   5.998  1.00  0.00    -0.028 A
HETATM    6  C5  UNL     1      23.416  -9.453   6.749  1.00  0.00    -0.018 A
HETATM    7  C7  UNL     1      23.585  -7.134   5.969  1.00  0.00     0.050 C
HETATM    8  C4  UNL     1      22.257  -9.147   7.434  1.00  0.00     0.015 A
HETATM    9  C20 UNL     1      23.894 -10.743   6.805  1.00  0.00    -0.023 A
HETATM   10  C3  UNL     1      21.566 -10.090   8.171  1.00  0.00     0.037 A
HETATM   11  C2  UNL     1      22.039 -11.381   8.231  1.00  0.00     0.069 A
HETATM   12  C21 UNL     1      23.197 -11.684   7.547  1.00  0.00     0.049 A
HETATM   13  C19 UNL     1      25.048 -11.063   6.123  1.00  0.00     0.014 A
HETATM   14  C18 UNL     1      25.739 -10.130   5.384  1.00  0.00     0.027 A
BRANCH  11  15
HETATM   15  O1  UNL     1      21.358 -12.339   8.968  1.00  0.00    -0.356 OA
HETATM   16  C1  UNL     1      21.708 -13.695   8.999  1.00  0.00     0.210 C
ENDBRANCH  11  15
ENDBRANCH   1   4
BRANCH   1  17
HETATM   17  N1  UNL     1      26.711  -6.342   5.325  1.00  0.00    -0.309 N
ATOM     18  H1  UNL     1      27.083  -6.458   6.268  1.00  0.00     0.172 HD
BRANCH  17  19
HETATM   19  C9  UNL     1      26.587  -5.060   4.658  1.00  0.00     0.205 C
BRANCH  19  20
HETATM   20  C10 UNL     1      27.504  -4.049   5.201  1.00  0.00     0.107 C
HETATM   21  N2  UNL     1      28.887  -4.047   4.868  1.00  0.00    -0.086 NA
HETATM   22  N3  UNL     1      27.088  -3.125   5.998  1.00  0.00    -0.380 N
ATOM     23  H3  UNL     1      27.771  -2.450   6.342  1.00  0.00     0.160 HD
BRANCH  22  24
HETATM   24  C11 UNL     1      25.715  -2.983   6.438  1.00  0.00     0.125 C
BRANCH  24  25
HETATM   25  C12 UNL     1      25.738  -3.028   7.966  1.00  0.00     0.059 C
BRANCH  25  26
HETATM   26  C13 UNL     1      25.155  -4.274   8.479  1.00  0.00    -0.041 A
HETATM   27  C14 UNL     1      25.931  -5.400   8.644  1.00  0.00     0.010 A
HETATM   28  C15 UNL     1      25.370  -6.583   9.133  1.00  0.00     0.018 A
HETATM   29  C16 UNL     1      24.031  -6.571   9.436  1.00  0.00     0.087 A
HETATM   30  N4  UNL     1      23.281  -5.472   9.275  1.00  0.00    -0.375 N
HETATM   31  C17 UNL     1      23.822  -4.315   8.798  1.00  0.00     0.094 A
ATOM     32  H4  UNL     1      22.289  -5.501   9.512  1.00  0.00     0.164 HD
ENDBRANCH  25  26
ENDBRANCH  24  25
ENDBRANCH  22  24
ENDBRANCH  19  20
ENDBRANCH  17  19
ENDBRANCH   1  17
TORSDOF 8
ENDMDL