MODEL 5
REMARK VINA RESULT: -6.840679042      3.399      5.408
REMARK  8 active torsions:
REMARK  status: ('A' for Active; 'I' for Inactive)
REMARK    1  A    between atoms: C2_2  and  C3_3
REMARK    2  A    between atoms: C5_5  and  S1_6
REMARK    3  A    between atoms: S1_6  and  N1_9
REMARK    4  A    between atoms: N1_9  and  C6_10
REMARK    5  A    between atoms: N1_9  and  C11_21
REMARK    6  A    between atoms: C11_21  and  C12_22
REMARK    7  A    between atoms: C11_21  and  C14_24
REMARK    8  A    between atoms: C16_26  and  O5_27
ROOT
HETATM    1  N1  UNL     1      24.764  -9.207   4.553  1.00  0.00    -0.260 N
ENDROOT
BRANCH   1   2
HETATM    2  S1  UNL     1      25.810  -7.794   4.432  1.00  0.00     0.268 S
HETATM    3  O1  UNL     1      25.303  -7.107   3.149  1.00  0.00    -0.200 OA
HETATM    4  O2  UNL     1      27.180  -8.295   4.036  1.00  0.00    -0.200 OA
BRANCH   2   5
HETATM    5  C5  UNL     1      25.847  -6.709   5.743  1.00  0.00     0.113 A
HETATM    6  C4  UNL     1      25.066  -6.946   6.897  1.00  0.00     0.035 A
HETATM    7  C3  UNL     1      24.997  -6.114   7.968  1.00  0.00    -0.051 A
HETATM    8  C19 UNL     1      25.736  -4.952   7.947  1.00  0.00    -0.053 A
HETATM    9  C18 UNL     1      26.509  -4.674   6.859  1.00  0.00     0.045 A
HETATM   10  C20 UNL     1      25.712  -3.985   9.099  1.00  0.00     0.049 C
HETATM   11  C16 UNL     1      26.562  -5.550   5.769  1.00  0.00     0.092 A
BRANCH   7  12
HETATM   12  C2  UNL     1      24.135  -6.432   9.167  1.00  0.00     0.034 C
HETATM   13  C1  UNL     1      22.746  -6.842   8.772  1.00  0.00     0.010 C
ENDBRANCH   7  12
BRANCH  11  14
HETATM   14  O5  UNL     1      27.405  -5.148   4.726  1.00  0.00    -0.354 OA
HETATM   15  C17 UNL     1      28.026  -3.901   4.697  1.00  0.00     0.210 C
ENDBRANCH  11  14
ENDBRANCH   2   5
ENDBRANCH   1   2
BRANCH   1  16
HETATM   16  C6  UNL     1      23.706  -9.288   3.602  1.00  0.00     0.136 A
HETATM   17  C7  UNL     1      22.481  -8.736   3.831  1.00  0.00     0.043 A
HETATM   18  C8  UNL     1      22.044  -8.056   5.079  1.00  0.00     0.071 C
HETATM   19  N2  UNL     1      21.491  -8.827   2.889  1.00  0.00    -0.310 N
HETATM   20  C9  UNL     1      21.746  -9.466   1.743  1.00  0.00     0.327 A
ATOM     21  H2  UNL     1      20.575  -8.413   3.058  1.00  0.00     0.170 HD
HETATM   22  O3  UNL     1      20.857  -9.567   0.853  1.00  0.00    -0.247 OA
HETATM   23  N3  UNL     1      22.934 -10.025   1.482  1.00  0.00    -0.274 N
HETATM   24  C10 UNL     1      23.920  -9.954   2.380  1.00  0.00     0.279 A
ATOM     25  H3  UNL     1      23.087 -10.506   0.596  1.00  0.00     0.173 HD
HETATM   26  O4  UNL     1      25.034 -10.481   2.151  1.00  0.00    -0.265 OA
ENDBRANCH   1  16
BRANCH   1  27
HETATM   27  C11 UNL     1      25.000 -10.118   5.604  1.00  0.00     0.101 C
BRANCH  27  28
HETATM   28  C12 UNL     1      23.857 -10.762   6.319  1.00  0.00     0.022 C
HETATM   29  C13 UNL     1      23.544 -10.323   7.690  1.00  0.00     0.007 C
ENDBRANCH  27  28
BRANCH  27  30
HETATM   30  C14 UNL     1      25.931 -11.314   5.136  1.00  0.00     0.022 C
HETATM   31  C15 UNL     1      25.013 -12.519   5.071  1.00  0.00     0.007 C
ENDBRANCH  27  30
ENDBRANCH   1  27
TORSDOF 8
ENDMDL