MODEL 5
REMARK VINA RESULT: -6.901344779      3.033      6.276
REMARK  9 active torsions:
REMARK  status: ('A' for Active; 'I' for Inactive)
REMARK    1  A    between atoms: C2_2  and  N1_3
REMARK    2  A    between atoms: N1_3  and  C3_4
REMARK    3  A    between atoms: N1_3  and  C8_10
REMARK    4  A    between atoms: C3_4  and  C4_5
REMARK    5  A    between atoms: C4_5  and  C5_6
REMARK    6  A    between atoms: C5_6  and  N2_7
REMARK    7  A    between atoms: C8_10  and  C9_11
REMARK       I    between atoms: C9_11  and  N3_13
REMARK    8  A    between atoms: N3_13  and  C10_15
REMARK    9  A    between atoms: N6_30  and  C20_31
ROOT
HETATM    1  C10 UNL     1      24.664  -7.003   4.222  1.00  0.00     0.152 A
HETATM    2  N4  UNL     1      25.181  -6.431   3.092  1.00  0.00    -0.283 N
ATOM      3  H4  UNL     1      25.213  -6.863   2.168  1.00  0.00     0.188 HD
HETATM    4  N5  UNL     1      25.629  -5.235   3.392  1.00  0.00    -0.293 N
ATOM      5  H5  UNL     1      26.067  -4.581   2.743  1.00  0.00     0.187 HD
HETATM    6  C11 UNL     1      25.411  -5.014   4.712  1.00  0.00     0.130 A
HETATM    7  C12 UNL     1      25.703  -3.929   5.499  1.00  0.00     0.214 A
HETATM    8  O2  UNL     1      26.261  -2.937   4.964  1.00  0.00    -0.285 OA
HETATM    9  C13 UNL     1      25.363  -4.003   6.829  1.00  0.00     0.043 A
HETATM   10  C14 UNL     1      25.663  -2.924   7.630  1.00  0.00     0.018 A
HETATM   11  C15 UNL     1      25.352  -2.957   8.971  1.00  0.00     0.008 A
HETATM   12  C16 UNL     1      24.742  -4.063   9.517  1.00  0.00    -0.060 A
HETATM   13  C17 UNL     1      24.433  -4.040  10.971  1.00  0.00     0.048 C
HETATM   14  C18 UNL     1      24.431  -5.162   8.730  1.00  0.00     0.037 A
HETATM   15  C19 UNL     1      24.744  -5.122   7.382  1.00  0.00     0.049 A
HETATM   16  N6  UNL     1      24.460  -6.187   6.589  1.00  0.00    -0.341 N
HETATM   17  C22 UNL     1      24.797  -6.114   5.278  1.00  0.00     0.113 A
ENDROOT
BRANCH   1  18
HETATM   18  N3  UNL     1      24.147  -8.162   4.294  1.00  0.00    -0.309 N
HETATM   19  C9  UNL     1      24.911  -9.347   4.166  1.00  0.00     0.251 C
HETATM   20  O1  UNL     1      24.811 -10.063   3.103  1.00  0.00    -0.271 OA
ATOM     21  H3  UNL     1      23.142  -8.242   4.449  1.00  0.00     0.170 HD
BRANCH  19  22
HETATM   22  C8  UNL     1      25.853  -9.869   5.169  1.00  0.00     0.374 C
BRANCH  22  23
HETATM   23  N1  UNL     1      25.396 -11.006   5.917  1.00  0.00     0.097 N
BRANCH  23  24
HETATM   24  C2  UNL     1      24.043 -10.923   6.292  1.00  0.00     0.268 C
HETATM   25  C1  UNL     1      23.857 -10.918   7.798  1.00  0.00     0.037 C
ENDBRANCH  23  24
BRANCH  23  26
HETATM   26  C3  UNL     1      25.911 -12.181   5.346  1.00  0.00     0.275 C
BRANCH  26  27
HETATM   27  C4  UNL     1      26.992 -12.914   6.049  1.00  0.00     0.060 C
BRANCH  27  28
HETATM   28  C5  UNL     1      26.345 -13.766   7.140  1.00  0.00     0.273 C
BRANCH  28  29
HETATM   29  N2  UNL     1      26.845 -13.454   8.439  1.00  0.00     0.080 N
HETATM   30  C6  UNL     1      25.766 -13.593   9.393  1.00  0.00     0.309 C
HETATM   31  C7  UNL     1      27.948 -14.248   8.877  1.00  0.00     0.309 C
ENDBRANCH  28  29
ENDBRANCH  27  28
ENDBRANCH  26  27
ENDBRANCH  23  26
ENDBRANCH  22  23
ENDBRANCH  19  22
ENDBRANCH   1  18
BRANCH  16  32
HETATM   32  C20 UNL     1      23.782  -7.320   7.149  1.00  0.00     0.125 C
HETATM   33  C21 UNL     1      22.309  -7.175   7.011  1.00  0.00     0.027 C
ENDBRANCH  16  32
TORSDOF 9
ENDMDL