MODEL 4
REMARK VINA RESULT: -6.534207453      3.930      7.607
REMARK  9 active torsions:
REMARK  status: ('A' for Active; 'I' for Inactive)
REMARK    1  A    between atoms: N1_4  and  C4_5
REMARK    2  A    between atoms: C4_5  and  C5_6
REMARK    3  A    between atoms: C6_11  and  N4_12
REMARK    4  A    between atoms: N4_12  and  C7_14
REMARK    5  A    between atoms: C10_17  and  N5_18
REMARK    6  A    between atoms: N7_27  and  C14_28
REMARK    7  A    between atoms: C14_28  and  C15_29
REMARK    8  A    between atoms: C15_29  and  C16_30
REMARK    9  A    between atoms: C16_30  and  N8_31
ROOT
HETATM    1  C5  UNL     1      21.644  -7.755   8.974  1.00  0.00     0.130 A
HETATM    2  N2  UNL     1      21.787  -8.737   9.853  1.00  0.00    -0.273 N
ATOM      3  H2  UNL     1      22.676  -9.088  10.211  1.00  0.00     0.189 HD
HETATM    4  N3  UNL     1      20.596  -9.186  10.188  1.00  0.00    -0.131 N
ATOM      5  H3  UNL     1      20.411  -9.941  10.849  1.00  0.00     0.205 HD
HETATM    6  C6  UNL     1      19.662  -8.490   9.519  1.00  0.00     0.698 A
HETATM    7  N6  UNL     1      20.328  -7.599   8.764  1.00  0.00    -0.176 N
ATOM      8  H6  UNL     1      19.903  -6.917   8.135  1.00  0.00     0.185 HD
ENDROOT
BRANCH   1   9
HETATM    9  C4  UNL     1      22.730  -6.976   8.339  1.00  0.00     0.206 C
BRANCH   9  10
HETATM   10  N1  UNL     1      23.105  -7.540   7.073  1.00  0.00    -0.325 N
HETATM   11  C3  UNL     1      22.213  -7.913   5.996  1.00  0.00     0.153 C
HETATM   12  C2  UNL     1      22.976  -7.449   4.798  1.00  0.00     0.102 C
HETATM   13  C1  UNL     1      22.784  -5.980   4.516  1.00  0.00     0.034 C
HETATM   14  N7  UNL     1      24.369  -7.738   5.145  1.00  0.00    -0.328 N
HETATM   15  C13 UNL     1      24.408  -7.873   6.547  1.00  0.00     0.321 C
HETATM   16  O3  UNL     1      25.333  -8.213   7.331  1.00  0.00    -0.247 OA
BRANCH  14  17
HETATM   17  C14 UNL     1      25.456  -7.838   4.209  1.00  0.00     0.130 C
BRANCH  17  18
HETATM   18  C15 UNL     1      26.577  -6.891   4.389  1.00  0.00     0.048 C
BRANCH  18  19
HETATM   19  C16 UNL     1      26.419  -5.456   4.168  1.00  0.00     0.237 C
BRANCH  19  20
HETATM   20  N8  UNL     1      26.681  -4.509   5.172  1.00  0.00    -0.079 N
HETATM   21  C17 UNL     1      28.034  -3.893   4.933  1.00  0.00     0.271 C
HETATM   22  C18 UNL     1      26.715  -4.901   6.533  1.00  0.00     0.271 C
HETATM   23  C19 UNL     1      25.736  -3.387   5.046  1.00  0.00     0.271 C
ENDBRANCH  19  20
ENDBRANCH  18  19
ENDBRANCH  17  18
ENDBRANCH  14  17
ENDBRANCH   9  10
ENDBRANCH   1   9
BRANCH   6  24
HETATM   24  N4  UNL     1      18.375  -8.642   9.584  1.00  0.00    -0.190 N
ATOM     25  H4  UNL     1      17.950  -9.562   9.464  1.00  0.00     0.184 HD
BRANCH  24  26
HETATM   26  C7  UNL     1      17.578  -7.502   9.824  1.00  0.00     0.049 A
HETATM   27  C8  UNL     1      17.320  -7.117  11.125  1.00  0.00     0.032 A
HETATM   28  C9  UNL     1      16.554  -6.022  11.391  1.00  0.00     0.038 A
HETATM   29  C10 UNL     1      16.027  -5.283  10.331  1.00  0.00     0.103 A
HETATM   30  C11 UNL     1      16.283  -5.662   9.033  1.00  0.00     0.038 A
HETATM   31  C12 UNL     1      17.064  -6.782   8.778  1.00  0.00     0.032 A
BRANCH  29  32
HETATM   32  N5  UNL     1      15.235  -4.148  10.622  1.00  0.00    -0.116 N
HETATM   33  O1  UNL     1      14.750  -3.976  11.755  1.00  0.00    -0.532 OA
HETATM   34  O2  UNL     1      15.003  -3.228   9.629  1.00  0.00    -0.532 OA
ENDBRANCH  29  32
ENDBRANCH  24  26
ENDBRANCH   6  24
TORSDOF 9
ENDMDL