MODEL 5
REMARK VINA RESULT: -7.135037998      6.195      8.803
REMARK  12 active torsions:
REMARK  status: ('A' for Active; 'I' for Inactive)
REMARK    1  A    between atoms: C5_5  and  C6_6
REMARK    2  A    between atoms: C6_6  and  C7_7
REMARK    3  A    between atoms: C11_11  and  C12_12
REMARK    4  A    between atoms: C15_15  and  C16_16
REMARK    5  A    between atoms: C16_16  and  O1_17
REMARK    6  A    between atoms: O1_17  and  C17_18
REMARK    7  A    between atoms: C17_18  and  C18_19
REMARK    8  A    between atoms: C18_19  and  O2_20
REMARK    9  A    between atoms: C18_19  and  C19_22
REMARK   10  A    between atoms: C19_22  and  N1_23
REMARK   11  A    between atoms: C23_30  and  N2_31
REMARK   12  A    between atoms: N3_34  and  O5_35
ROOT
HETATM    1  C7  UNL     1      24.726  -7.573   5.434  1.00  0.00    -0.053 A
HETATM    2  C8  UNL     1      24.628  -8.805   5.994  1.00  0.00     0.007 A
HETATM    3  C9  UNL     1      23.505  -9.627   5.797  1.00  0.00     0.001 A
HETATM    4  C10 UNL     1      22.496  -9.152   5.016  1.00  0.00     0.012 A
HETATM    5  C11 UNL     1      22.574  -7.897   4.434  1.00  0.00    -0.025 A
HETATM    6  C22 UNL     1      23.670  -7.134   4.646  1.00  0.00     0.019 A
ENDROOT
BRANCH   5   7
HETATM    7  C12 UNL     1      21.440  -7.488   3.610  1.00  0.00    -0.026 A
HETATM    8  C13 UNL     1      20.718  -8.359   2.823  1.00  0.00     0.013 A
HETATM    9  C14 UNL     1      19.660  -7.954   2.049  1.00  0.00     0.010 A
HETATM   10  C15 UNL     1      19.260  -6.647   2.019  1.00  0.00    -0.035 A
HETATM   11  C20 UNL     1      19.975  -5.743   2.811  1.00  0.00     0.010 A
HETATM   12  C21 UNL     1      21.037  -6.170   3.581  1.00  0.00     0.013 A
BRANCH  10  13
HETATM   13  C16 UNL     1      18.116  -6.183   1.188  1.00  0.00     0.206 C
BRANCH  13  14
HETATM   14  O1  UNL     1      18.203  -6.799  -0.045  1.00  0.00    -0.384 OA
BRANCH  14  15
HETATM   15  C17 UNL     1      17.013  -6.724  -0.754  1.00  0.00     0.201 C
BRANCH  15  16
HETATM   16  C18 UNL     1      17.131  -7.792  -1.851  1.00  0.00     0.167 C
BRANCH  16  17
HETATM   17  O2  UNL     1      17.236  -7.105  -3.056  1.00  0.00    -0.392 OA
ATOM     18  H2  UNL     1      17.643  -6.271  -2.854  1.00  0.00     0.210 HD
ENDBRANCH  16  17
BRANCH  16  19
HETATM   19  C19 UNL     1      18.478  -8.480  -1.612  1.00  0.00     0.263 C
BRANCH  19  20
HETATM   20  N1  UNL     1      19.374  -8.302  -2.737  1.00  0.00    -0.077 N
ATOM     21  H13 UNL     1      19.000  -8.730  -3.584  1.00  0.00     0.274 HD
ATOM     22  H12 UNL     1      19.395  -7.330  -3.047  1.00  0.00     0.274 HD
ATOM     23  H11 UNL     1      20.311  -8.646  -2.528  1.00  0.00     0.274 HD
ENDBRANCH  19  20
ENDBRANCH  16  19
ENDBRANCH  15  16
ENDBRANCH  14  15
ENDBRANCH  13  14
ENDBRANCH  10  13
ENDBRANCH   5   7
BRANCH   1  24
HETATM   24  C6  UNL     1      25.918  -6.682   5.629  1.00  0.00     0.081 C
BRANCH  24  25
HETATM   25  C5  UNL     1      25.676  -5.752   6.746  1.00  0.00    -0.001 A
HETATM   26  C4  UNL     1      25.294  -6.367   7.961  1.00  0.00     0.013 A
HETATM   27  C3  UNL     1      25.173  -5.608   9.082  1.00  0.00     0.028 A
HETATM   28  C2  UNL     1      25.406  -4.254   9.092  1.00  0.00     0.038 A
HETATM   29  C1  UNL     1      25.263  -3.460  10.347  1.00  0.00     0.071 C
HETATM   30  N3  UNL     1      25.763  -3.695   7.936  1.00  0.00    -0.206 N
HETATM   31  C23 UNL     1      25.900  -4.414   6.766  1.00  0.00     0.206 A
BRANCH  30  32
HETATM   32  O5  UNL     1      25.999  -2.348   7.925  1.00  0.00    -0.281 OA
ATOM     33  H5  UNL     1      25.369  -1.786   8.361  1.00  0.00     0.245 HD
ENDBRANCH  30  32
BRANCH  31  34
HETATM   34  N2  UNL     1      26.141  -3.656   5.601  1.00  0.00    -0.095 N
HETATM   35  O3  UNL     1      25.287  -3.216   4.831  1.00  0.00    -0.530 OA
HETATM   36  O4  UNL     1      27.458  -3.282   5.281  1.00  0.00    -0.530 OA
ENDBRANCH  31  34
ENDBRANCH  24  25
ENDBRANCH   1  24
TORSDOF 12
ENDMDL