MODEL 4
REMARK VINA RESULT: -7.063322910      1.439      1.793
REMARK  8 active torsions:
REMARK  status: ('A' for Active; 'I' for Inactive)
REMARK    1  A    between atoms: C4_9  and  C5_10
REMARK    2  A    between atoms: C5_10  and  C6_12
REMARK    3  A    between atoms: C6_12  and  C7_13
REMARK    4  A    between atoms: C7_13  and  C8_14
REMARK    5  A    between atoms: C10_16  and  C11_17
REMARK    6  A    between atoms: C11_17  and  N3_18
REMARK    7  A    between atoms: N4_21  and  C14_22
REMARK    8  A    between atoms: C14_22  and  C15_23
ROOT
HETATM    1  C8  UNL     1      26.330  -4.059   7.291  1.00  0.00     0.054 A
HETATM    2  C9  UNL     1      26.044  -5.371   7.534  1.00  0.00     0.044 A
HETATM    3  C10 UNL     1      25.555  -5.524   8.846  1.00  0.00    -0.009 A
HETATM    4  C20 UNL     1      25.595  -4.208   9.339  1.00  0.00     0.057 A
HETATM    5  C21 UNL     1      25.201  -3.790  10.702  1.00  0.00     0.077 C
HETATM    6  O5  UNL     1      26.031  -3.396   8.437  1.00  0.00    -0.319 OA
ENDROOT
BRANCH   1   7
HETATM    7  C7  UNL     1      26.840  -3.270   6.171  1.00  0.00     0.073 C
BRANCH   7   8
HETATM    8  C6  UNL     1      27.299  -4.012   4.980  1.00  0.00     0.092 C
BRANCH   8   9
HETATM    9  C5  UNL     1      26.332  -4.611   4.089  1.00  0.00     0.178 C
HETATM   10  O2  UNL     1      25.790  -3.926   3.175  1.00  0.00    -0.291 OA
BRANCH   9  11
HETATM   11  C4  UNL     1      25.940  -6.002   4.217  1.00  0.00     0.105 A
HETATM   12  C2  UNL     1      24.714  -6.591   4.479  1.00  0.00     0.040 A
HETATM   13  C1  UNL     1      23.433  -5.829   4.603  1.00  0.00     0.071 C
HETATM   14  N1  UNL     1      24.874  -7.898   4.618  1.00  0.00    -0.310 N
HETATM   15  C3  UNL     1      26.149  -8.212   4.458  1.00  0.00     0.325 A
ATOM     16  H1  UNL     1      24.127  -8.563   4.818  1.00  0.00     0.170 HD
HETATM   17  O1  UNL     1      26.683  -9.365   4.511  1.00  0.00    -0.247 OA
HETATM   18  N2  UNL     1      26.799  -7.044   4.213  1.00  0.00    -0.304 N
ATOM     19  H2  UNL     1      27.803  -6.964   4.048  1.00  0.00     0.171 HD
ENDBRANCH   9  11
ENDBRANCH   8   9
ENDBRANCH   7   8
ENDBRANCH   1   7
BRANCH   3  20
HETATM   20  C11 UNL     1      24.862  -6.671   9.421  1.00  0.00     0.167 C
BRANCH  20  21
HETATM   21  N3  UNL     1      24.138  -7.534   8.535  1.00  0.00    -0.338 N
HETATM   22  C12 UNL     1      24.454  -8.784   8.059  1.00  0.00     0.146 C
HETATM   23  C13 UNL     1      23.241  -9.699   7.802  1.00  0.00     0.146 C
HETATM   24  N4  UNL     1      22.153  -9.076   7.140  1.00  0.00    -0.342 N
HETATM   25  C18 UNL     1      21.856  -7.721   7.451  1.00  0.00     0.311 C
HETATM   26  O3  UNL     1      20.755  -7.204   7.127  1.00  0.00    -0.262 OA
HETATM   27  C19 UNL     1      22.840  -6.938   8.154  1.00  0.00     0.312 C
HETATM   28  O4  UNL     1      22.624  -5.747   8.441  1.00  0.00    -0.262 OA
BRANCH  24  29
HETATM   29  C14 UNL     1      21.325  -9.703   6.159  1.00  0.00     0.130 C
BRANCH  29  30
HETATM   30  C15 UNL     1      21.951  -9.890   4.786  1.00  0.00    -0.005 C
HETATM   31  C16 UNL     1      21.642 -11.252   4.208  1.00  0.00     0.011 C
HETATM   32  C17 UNL     1      21.324  -8.840   3.870  1.00  0.00     0.011 C
ENDBRANCH  29  30
ENDBRANCH  24  29
ENDBRANCH  20  21
ENDBRANCH   3  20
TORSDOF 8
ENDMDL