MODEL 1
REMARK VINA RESULT: -8.006808355      0.000      0.000
REMARK  9 active torsions:
REMARK  status: ('A' for Active; 'I' for Inactive)
REMARK    1  A    between atoms: C2_2  and  O1_3
REMARK    2  A    between atoms: O1_3  and  N1_4
REMARK    3  A    between atoms: C3_6  and  C5_8
REMARK    4  A    between atoms: C8_11  and  C9_12
REMARK    5  A    between atoms: C9_12  and  O2_13
REMARK    6  A    between atoms: O2_13  and  C10_14
REMARK    7  A    between atoms: C10_14  and  N2_15
REMARK    8  A    between atoms: C13_18  and  C14_19
REMARK    9  A    between atoms: C18_23  and  N3_24
REMARK       I    between atoms: N3_24  and  C19_26
ROOT
HETATM    1  N2  UNL     1      21.315  -8.429   7.782  1.00  0.00    -0.345 N
HETATM    2  C11 UNL     1      21.812  -7.639   6.808  1.00  0.00     0.093 A
HETATM    3  C12 UNL     1      22.657  -6.565   7.047  1.00  0.00     0.031 A
HETATM    4  C13 UNL     1      23.020  -6.269   8.331  1.00  0.00    -0.007 A
HETATM    5  C20 UNL     1      22.504  -7.084   9.312  1.00  0.00     0.031 A
HETATM    6  C21 UNL     1      21.667  -8.145   9.041  1.00  0.00     0.093 A
ENDROOT
BRANCH   1   7
HETATM    7  C10 UNL     1      20.410  -9.526   7.460  1.00  0.00     0.297 C
BRANCH   7   8
HETATM    8  O2  UNL     1      19.208  -9.370   8.053  1.00  0.00    -0.367 OA
BRANCH   8   9
HETATM    9  C9  UNL     1      18.427  -8.332   7.605  1.00  0.00     0.208 C
BRANCH   9  10
HETATM   10  C8  UNL     1      17.864  -7.651   8.793  1.00  0.00    -0.035 A
HETATM   11  C7  UNL     1      17.043  -6.569   8.670  1.00  0.00     0.010 A
HETATM   12  C6  UNL     1      16.522  -5.938   9.806  1.00  0.00     0.014 A
HETATM   13  C5  UNL     1      16.808  -6.372  11.063  1.00  0.00    -0.012 A
HETATM   14  C23 UNL     1      17.642  -7.471  11.173  1.00  0.00     0.014 A
HETATM   15  C22 UNL     1      18.168  -8.107  10.044  1.00  0.00     0.010 A
BRANCH  13  16
HETATM   16  C3  UNL     1      16.288  -5.750  12.291  1.00  0.00     0.038 C
HETATM   17  N1  UNL     1      15.399  -4.869  12.366  1.00  0.00    -0.271 N
ATOM     18  H1  UNL     1      15.204  -4.591  13.328  1.00  0.00     0.194 HD
HETATM   19  C4  UNL     1      16.899  -6.231  13.590  1.00  0.00     0.071 C
BRANCH  17  20
HETATM   20  O1  UNL     1      14.652  -4.217  11.486  1.00  0.00    -0.281 OA
BRANCH  20  21
HETATM   21  C2  UNL     1      14.751  -2.866  11.151  1.00  0.00     0.196 C
HETATM   22  C1  UNL     1      14.693  -2.682   9.660  1.00  0.00     0.036 C
ENDBRANCH  20  21
ENDBRANCH  17  20
ENDBRANCH  13  16
ENDBRANCH   9  10
ENDBRANCH   8   9
ENDBRANCH   7   8
ENDBRANCH   1   7
BRANCH   4  23
HETATM   23  C14 UNL     1      23.912  -5.151   8.683  1.00  0.00     0.044 A
HETATM   24  C15 UNL     1      24.029  -4.775  10.014  1.00  0.00     0.030 A
HETATM   25  C16 UNL     1      24.871  -3.715  10.374  1.00  0.00     0.006 A
HETATM   26  C17 UNL     1      25.577  -3.054   9.393  1.00  0.00     0.049 A
HETATM   27  C18 UNL     1      25.454  -3.434   8.080  1.00  0.00     0.109 A
HETATM   28  N5  UNL     1      24.626  -4.462   7.802  1.00  0.00    -0.342 N
ATOM     29  H5  UNL     1      24.541  -4.735   6.823  1.00  0.00     0.167 HD
BRANCH  27  30
HETATM   30  N3  UNL     1      26.119  -2.807   7.185  1.00  0.00    -0.297 N
HETATM   31  C19 UNL     1      26.457  -3.454   5.970  1.00  0.00     0.334 C
HETATM   32  N4  UNL     1      25.769  -3.226   4.754  1.00  0.00    -0.040 NA
HETATM   33  O3  UNL     1      27.419  -4.293   5.906  1.00  0.00    -0.251 OA
ATOM     34  H3  UNL     1      26.406  -1.840   7.346  1.00  0.00     0.171 HD
ENDBRANCH  27  30
ENDBRANCH   4  23
TORSDOF 9
ENDMDL