MODEL 2
REMARK VINA RESULT: -7.178337854      1.795      2.855
REMARK  6 active torsions:
REMARK  status: ('A' for Active; 'I' for Inactive)
REMARK    1  A    between atoms: C1_2  and  C2_4
REMARK    2  A    between atoms: C2_4  and  N1_5
REMARK    3  A    between atoms: N1_5  and  C3_6
REMARK    4  A    between atoms: C3_6  and  O3_7
REMARK    5  A    between atoms: C3_6  and  C4_9
REMARK       I    between atoms: N2_13  and  C8_14
REMARK       I    between atoms: C8_14  and  N3_16
REMARK    6  A    between atoms: N3_16  and  C9_18
ROOT
HETATM    1  C4  UNL     1      27.167  -1.481  15.025  1.00  0.00     0.103 C
HETATM    2  C5  UNL     1      26.514  -2.840  15.232  1.00  0.00     0.021 C
HETATM    3  C6  UNL     1      25.235  -2.020  15.368  1.00  0.00     0.033 C
HETATM    4  C7  UNL     1      25.917  -1.188  14.252  1.00  0.00     0.102 C
HETATM    5  N2  UNL     1      25.874  -2.140  13.202  1.00  0.00    -0.328 N
HETATM    6  C8  UNL     1      25.377  -1.976  11.898  1.00  0.00     0.319 C
HETATM    7  O4  UNL     1      25.408  -2.940  11.062  1.00  0.00    -0.247 OA
HETATM    8  N3  UNL     1      24.816  -0.757  11.444  1.00  0.00    -0.334 N
ATOM      9  H3  UNL     1      24.808   0.010  12.115  1.00  0.00     0.165 HD
HETATM   10  C19 UNL     1      26.435  -3.321  13.805  1.00  0.00     0.133 C
ENDROOT
BRANCH   1  11
HETATM   11  C3  UNL     1      28.435  -1.576  14.188  1.00  0.00     0.190 C
BRANCH  11  12
HETATM   12  N1  UNL     1      28.501  -0.982  13.045  1.00  0.00    -0.418 NA
BRANCH  12  13
HETATM   13  C2  UNL     1      28.574  -0.333  11.786  1.00  0.00     0.333 C
BRANCH  13  14
HETATM   14  C1  UNL     1      27.957   1.041  11.760  1.00  0.00     0.204 C
HETATM   15  O1  UNL     1      26.851   1.236  12.231  1.00  0.00    -0.646 OA
HETATM   16  O2  UNL     1      28.700   2.039  11.182  1.00  0.00    -0.646 OA
ENDBRANCH  13  14
ENDBRANCH  12  13
ENDBRANCH  11  12
BRANCH  11  17
HETATM   17  O3  UNL     1      29.371  -2.296  14.760  1.00  0.00    -0.339 OA
ATOM     18  H3  UNL     1      29.394  -2.592  15.662  1.00  0.00     0.220 HD
ENDBRANCH  11  17
ENDBRANCH   1  11
BRANCH   8  19
HETATM   19  C9  UNL     1      24.263  -0.474  10.165  1.00  0.00     0.035 C
HETATM   20  C10 UNL     1      23.655  -1.671   9.492  1.00  0.00     0.035 C
HETATM   21  C11 UNL     1      23.102  -1.306   8.127  1.00  0.00    -0.012 C
HETATM   22  C12 UNL     1      22.114  -0.143   8.215  1.00  0.00     0.009 C
HETATM   23  C16 UNL     1      24.257  -0.896   7.249  1.00  0.00     0.009 C
HETATM   24  C13 UNL     1      22.785   1.028   8.874  1.00  0.00    -0.012 C
HETATM   25  C14 UNL     1      23.943   1.472   8.026  1.00  0.00     0.009 C
HETATM   26  C18 UNL     1      23.197   0.612  10.247  1.00  0.00     0.035 C
HETATM   27  C15 UNL     1      24.901   0.309   7.891  1.00  0.00    -0.012 C
HETATM   28  C17 UNL     1      25.400  -0.010   9.263  1.00  0.00     0.035 C
ENDBRANCH   8  19
TORSDOF 6
ENDMDL