MODEL 3
REMARK VINA RESULT: -5.471791868      3.283      4.197
REMARK  9 active torsions:
REMARK  status: ('A' for Active; 'I' for Inactive)
REMARK    1  A    between atoms: C2_2  and  C3_3
REMARK       I    between atoms: N1_6  and  C6_7
REMARK       I    between atoms: C6_7  and  N6_25
REMARK    2  A    between atoms: N2_8  and  C7_10
REMARK    3  A    between atoms: C7_10  and  N3_12
REMARK    4  A    between atoms: N3_12  and  N4_14
REMARK    5  A    between atoms: N4_14  and  C8_16
REMARK    6  A    between atoms: C8_16  and  N5_18
REMARK    7  A    between atoms: N5_18  and  C9_20
REMARK    8  A    between atoms: C9_20  and  C10_21
REMARK    9  A    between atoms: C10_21  and  C11_22
ROOT
HETATM    1  C7  UNL     1      28.725  -0.230  11.612  1.00  0.00     0.205 C
HETATM    2  S1  UNL     1      29.952   0.596  10.929  1.00  0.00    -0.039 SA
ENDROOT
BRANCH   1   3
HETATM    3  N2  UNL     1      27.400   0.088  11.298  1.00  0.00    -0.165 N
HETATM    4  C6  UNL     1      26.818  -0.312  10.223  1.00  0.00     0.678 C
HETATM    5  N1  UNL     1      25.470   0.028   9.930  1.00  0.00    -0.217 N
HETATM    6  N6  UNL     1      27.575  -1.113   9.324  1.00  0.00    -0.230 N
HETATM    7  C5  UNL     1      24.705  -0.424   8.788  1.00  0.00     0.141 C
HETATM    8  C15 UNL     1      24.625   0.889  10.734  1.00  0.00     0.145 C
HETATM    9  C4  UNL     1      23.320  -0.542   9.375  1.00  0.00     0.027 C
HETATM   10  C3  UNL     1      23.213   0.670  10.235  1.00  0.00     0.005 C
HETATM   11  C14 UNL     1      27.746  -2.538   9.436  1.00  0.00     0.165 C
ATOM     12  H6  UNL     1      28.030  -0.643   8.542  1.00  0.00     0.177 HD
ATOM     13  H2  UNL     1      26.870   0.664  11.952  1.00  0.00     0.186 HD
BRANCH  10  14
HETATM   14  C2  UNL     1      22.790   1.918   9.498  1.00  0.00     0.002 C
HETATM   15  C1  UNL     1      21.637   1.673   8.560  1.00  0.00     0.005 C
ENDBRANCH  10  14
ENDBRANCH   1   3
BRANCH   1  16
HETATM   16  N3  UNL     1      29.042  -1.280  12.534  1.00  0.00    -0.274 N
ATOM     17  H3  UNL     1      29.077  -2.243  12.200  1.00  0.00     0.189 HD
BRANCH  16  18
HETATM   18  N4  UNL     1      29.306  -1.016  13.881  1.00  0.00    -0.274 N
ATOM     19  H4  UNL     1      30.121  -0.454  14.127  1.00  0.00     0.189 HD
BRANCH  18  20
HETATM   20  C8  UNL     1      28.467  -1.508  14.918  1.00  0.00     0.186 C
HETATM   21  S2  UNL     1      28.931  -2.930  15.639  1.00  0.00    -0.040 SA
BRANCH  20  22
HETATM   22  N5  UNL     1      27.304  -0.837  15.324  1.00  0.00    -0.366 N
ATOM     23  H5  UNL     1      27.363  -0.186  16.106  1.00  0.00     0.161 HD
BRANCH  22  24
HETATM   24  C9  UNL     1      26.039  -1.028  14.687  1.00  0.00     0.122 C
BRANCH  24  25
HETATM   25  C10 UNL     1      25.189  -2.125  15.283  1.00  0.00     0.023 C
BRANCH  25  26
HETATM   26  C11 UNL     1      24.438  -2.792  14.138  1.00  0.00    -0.021 C
HETATM   27  C12 UNL     1      24.943  -4.233  14.115  1.00  0.00     0.009 C
HETATM   28  C13 UNL     1      24.827  -2.111  12.853  1.00  0.00     0.009 C
ENDBRANCH  25  26
ENDBRANCH  24  25
ENDBRANCH  22  24
ENDBRANCH  20  22
ENDBRANCH  18  20
ENDBRANCH  16  18
ENDBRANCH   1  16
TORSDOF 9
ENDMDL