MODEL 1
REMARK VINA RESULT: -7.004486785      0.000      0.000
REMARK  5 active torsions:
REMARK  status: ('A' for Active; 'I' for Inactive)
REMARK    1  A    between atoms: C9_12  and  C10_13
REMARK    2  A    between atoms: C10_13  and  N3_14
REMARK       I    between atoms: N3_14  and  C11_16
REMARK       I    between atoms: C11_16  and  N4_18
REMARK    3  A    between atoms: N4_18  and  C12_20
REMARK    4  A    between atoms: C12_20  and  C14_22
REMARK       I    between atoms: C14_22  and  N5_24
REMARK    5  A    between atoms: N5_24  and  C15_26
ROOT
HETATM    1  N3  UNL     1      25.104  -3.766  14.473  1.00  0.00    -0.343 N
ATOM      2  H3  UNL     1      24.409  -3.277  15.037  1.00  0.00     0.164 HD
HETATM    3  C11 UNL     1      25.343  -5.136  14.688  1.00  0.00     0.316 C
HETATM    4  O1  UNL     1      26.186  -5.730  13.984  1.00  0.00    -0.247 OA
HETATM    5  N4  UNL     1      24.668  -5.900  15.680  1.00  0.00    -0.330 N
ATOM      6  H4  UNL     1      23.995  -5.396  16.258  1.00  0.00     0.165 HD
ENDROOT
BRANCH   1   7
HETATM    7  C10 UNL     1      25.827  -3.061  13.476  1.00  0.00     0.130 C
BRANCH   7   8
HETATM    8  C9  UNL     1      25.014  -2.465  12.397  1.00  0.00     0.022 C
HETATM    9  C6  UNL     1      25.327  -2.954  11.008  1.00  0.00     0.002 C
HETATM   10  C4  UNL     1      24.520  -2.022  10.182  1.00  0.00     0.042 A
HETATM   11  C7  UNL     1      26.782  -2.737  10.639  1.00  0.00     0.022 C
HETATM   12  C8  UNL     1      24.915  -4.393  10.809  1.00  0.00     0.022 C
HETATM   13  C3  UNL     1      24.354  -0.852  10.920  1.00  0.00    -0.009 A
HETATM   14  N1  UNL     1      23.871  -1.830   8.994  1.00  0.00    -0.302 N
HETATM   15  C2  UNL     1      23.602  -0.021  10.110  1.00  0.00     0.032 A
HETATM   16  C19 UNL     1      25.038  -0.995  12.236  1.00  0.00     0.050 C
HETATM   17  C1  UNL     1      23.163   1.357  10.465  1.00  0.00     0.070 C
HETATM   18  N2  UNL     1      23.324  -0.629   8.959  1.00  0.00    -0.300 N
HETATM   19  C5  UNL     1      22.562  -0.082   7.858  1.00  0.00     0.177 C
ATOM     20  H1  UNL     1      23.817  -2.518   8.243  1.00  0.00     0.187 HD
ENDBRANCH   7   8
ENDBRANCH   1   7
BRANCH   5  21
HETATM   21  C12 UNL     1      24.823  -7.283  15.959  1.00  0.00     0.174 C
HETATM   22  C13 UNL     1      26.171  -7.541  16.562  1.00  0.00     0.042 C
BRANCH  21  23
HETATM   23  C14 UNL     1      23.784  -7.793  16.929  1.00  0.00     0.240 C
HETATM   24  O2  UNL     1      22.909  -8.642  16.543  1.00  0.00    -0.271 OA
HETATM   25  N5  UNL     1      23.726  -7.363  18.275  1.00  0.00    -0.351 N
ATOM     26  H5  UNL     1      24.404  -6.677  18.606  1.00  0.00     0.163 HD
BRANCH  25  27
HETATM   27  C15 UNL     1      22.735  -7.870  19.190  1.00  0.00     0.022 C
HETATM   28  C16 UNL     1      21.423  -7.120  19.055  1.00  0.00     0.037 C
HETATM   29  C17 UNL     1      23.284  -7.563  20.590  1.00  0.00     0.037 C
HETATM   30  C18 UNL     1      22.494  -9.326  18.970  1.00  0.00     0.037 C
ENDBRANCH  25  27
ENDBRANCH  21  23
ENDBRANCH   5  21
TORSDOF 5
ENDMDL