MODEL 4
REMARK VINA RESULT: -6.713210749      2.173      2.770
REMARK  3 active torsions:
REMARK  status: ('A' for Active; 'I' for Inactive)
REMARK    1  A    between atoms: C2_2  and  N1_3
REMARK    2  A    between atoms: C2_2  and  C4_8
REMARK       I    between atoms: N1_3  and  C3_5
REMARK       I    between atoms: C4_8  and  N3_10
REMARK    3  A    between atoms: N3_10  and  C5_12
ROOT
HETATM    1  C5  UNL     1      26.773  -0.988  10.136  1.00  0.00     0.102 C
HETATM    2  C6  UNL     1      26.083  -1.428  11.372  1.00  0.00    -0.017 C
HETATM    3  C7  UNL     1      24.633  -1.751  11.249  1.00  0.00     0.018 C
HETATM    4  C8  UNL     1      26.767  -2.433  12.263  1.00  0.00     0.031 C
HETATM    5  C9  UNL     1      26.849  -1.854  13.601  1.00  0.00     0.050 C
HETATM    6  C10 UNL     1      26.971  -0.368  13.393  1.00  0.00     0.026 C
HETATM    7  C11 UNL     1      26.460  -0.092  11.997  1.00  0.00     0.007 C
HETATM    8  C12 UNL     1      27.556  -0.047  10.985  1.00  0.00    -0.015 A
HETATM    9  C13 UNL     1      28.353   1.098  10.673  1.00  0.00     0.013 A
HETATM   10  C14 UNL     1      28.976  -0.167  11.278  1.00  0.00     0.013 A
HETATM   11  C15 UNL     1      25.630  -1.979  14.483  1.00  0.00     0.227 C
HETATM   12  O3  UNL     1      24.513  -2.453  14.373  1.00  0.00    -0.273 OA
HETATM   13  N4  UNL     1      26.129  -1.322  15.687  1.00  0.00    -0.360 N
ATOM     14  H4  UNL     1      25.561  -0.832  16.378  1.00  0.00     0.162 HD
HETATM   15  C16 UNL     1      27.603  -1.488  15.734  1.00  0.00     0.132 C
HETATM   16  C17 UNL     1      27.800  -2.456  14.569  1.00  0.00    -0.015 C
HETATM   17  C18 UNL     1      27.158  -3.750  15.058  1.00  0.00     0.018 C
HETATM   18  C19 UNL     1      29.173  -2.734  14.189  1.00  0.00     0.018 C
ENDROOT
BRANCH   1  19
HETATM   19  N3  UNL     1      25.992  -0.389   9.096  1.00  0.00    -0.353 N
HETATM   20  C4  UNL     1      25.294  -1.069   8.071  1.00  0.00     0.240 C
HETATM   21  O2  UNL     1      25.296  -2.271   7.882  1.00  0.00    -0.271 OA
ATOM     22  H3  UNL     1      25.934   0.629   9.093  1.00  0.00     0.163 HD
BRANCH  20  23
HETATM   23  C2  UNL     1      24.472  -0.233   7.098  1.00  0.00     0.173 C
HETATM   24  C1  UNL     1      25.563   0.547   6.301  1.00  0.00     0.042 C
BRANCH  23  25
HETATM   25  N1  UNL     1      23.646   0.743   7.712  1.00  0.00    -0.333 N
HETATM   26  C3  UNL     1      22.278   0.514   7.982  1.00  0.00     0.329 C
HETATM   27  N2  UNL     1      21.393   1.410   8.576  1.00  0.00    -0.040 NA
HETATM   28  O1  UNL     1      21.855  -0.651   7.637  1.00  0.00    -0.251 OA
ATOM     29  H1  UNL     1      24.055   1.643   7.968  1.00  0.00     0.164 HD
ENDBRANCH  23  25
ENDBRANCH  20  23
ENDBRANCH   1  19
TORSDOF 3
ENDMDL