MODEL 2
REMARK VINA RESULT: -6.672553450      2.263      3.680
REMARK  5 active torsions:
REMARK  status: ('A' for Active; 'I' for Inactive)
REMARK       I    between atoms: N1_2  and  C2_4
REMARK    1  A    between atoms: C2_4  and  C3_6
REMARK    2  A    between atoms: C9_12  and  N2_13
REMARK       I    between atoms: N2_13  and  C10_15
REMARK    3  A    between atoms: C10_15  and  C11_17
REMARK    4  A    between atoms: C11_17  and  N3_19
REMARK       I    between atoms: N3_19  and  C13_21
REMARK       I    between atoms: C13_21  and  N4_23
REMARK    5  A    between atoms: N4_23  and  C14_25
ROOT
HETATM    1  C3  UNL     1      26.042  -1.298  12.914  1.00  0.00     0.042 C
HETATM    2  C4  UNL     1      26.523  -0.592  14.168  1.00  0.00     0.024 C
HETATM    3  C5  UNL     1      26.562  -1.573  15.289  1.00  0.00    -0.013 C
HETATM    4  C6  UNL     1      25.181  -2.132  15.546  1.00  0.00     0.011 C
HETATM    5  C7  UNL     1      24.690  -2.821  14.315  1.00  0.00     0.010 C
HETATM    6  C8  UNL     1      24.646  -1.810  13.158  1.00  0.00     0.026 C
HETATM    7  C9  UNL     1      25.608  -3.913  13.821  1.00  0.00     0.092 C
HETATM    8  C17 UNL     1      27.020  -3.402  13.677  1.00  0.00     0.010 C
HETATM    9  C18 UNL     1      27.484  -2.722  14.950  1.00  0.00     0.011 C
HETATM   10  C19 UNL     1      26.977  -2.393  12.527  1.00  0.00     0.026 C
ENDROOT
BRANCH   7  11
HETATM   11  N2  UNL     1      25.658  -5.075  14.662  1.00  0.00    -0.354 N
HETATM   12  C10 UNL     1      24.757  -6.139  14.380  1.00  0.00     0.240 C
HETATM   13  O2  UNL     1      23.918  -6.118  13.460  1.00  0.00    -0.271 OA
ATOM     14  H2  UNL     1      26.318  -5.135  15.437  1.00  0.00     0.162 HD
BRANCH  12  15
HETATM   15  C11 UNL     1      24.870  -7.324  15.264  1.00  0.00     0.174 C
HETATM   16  C12 UNL     1      25.068  -8.526  14.332  1.00  0.00     0.042 C
BRANCH  15  17
HETATM   17  N3  UNL     1      23.634  -7.470  16.008  1.00  0.00    -0.330 N
HETATM   18  C13 UNL     1      23.636  -7.588  17.404  1.00  0.00     0.317 C
HETATM   19  O3  UNL     1      24.759  -7.597  18.001  1.00  0.00    -0.247 OA
HETATM   20  N4  UNL     1      22.419  -7.688  18.110  1.00  0.00    -0.339 N
ATOM     21  H4  UNL     1      21.530  -7.662  17.612  1.00  0.00     0.164 HD
ATOM     22  H3  UNL     1      22.746  -7.486  15.505  1.00  0.00     0.165 HD
BRANCH  20  23
HETATM   23  C14 UNL     1      22.447  -7.829  19.561  1.00  0.00     0.086 A
HETATM   24  C15 UNL     1      22.263  -9.162  20.162  1.00  0.00     0.027 A
HETATM   25  C16 UNL     1      21.097  -8.218  20.149  1.00  0.00     0.027 A
ENDBRANCH  20  23
ENDBRANCH  15  17
ENDBRANCH  12  15
ENDBRANCH   7  11
BRANCH   1  26
HETATM   26  C2  UNL     1      25.986  -0.341  11.750  1.00  0.00     0.226 C
HETATM   27  N1  UNL     1      25.545  -0.776  10.485  1.00  0.00    -0.365 N
HETATM   28  C1  UNL     1      25.495   0.133   9.379  1.00  0.00     0.149 C
ATOM     29  H1  UNL     1      25.261  -1.747  10.355  1.00  0.00     0.161 HD
HETATM   30  O1  UNL     1      26.330   0.872  11.880  1.00  0.00    -0.273 OA
ENDBRANCH   1  26
TORSDOF 5
ENDMDL