MODEL 1
REMARK VINA RESULT: -6.244619965      0.000      0.000
REMARK  9 active torsions:
REMARK  status: ('A' for Active; 'I' for Inactive)
REMARK    1  A    between atoms: C2_2  and  N1_3
REMARK       I    between atoms: N1_3  and  C3_5
REMARK       I    between atoms: C3_5  and  N3_7
REMARK       I    between atoms: N3_7  and  C4_8
REMARK       I    between atoms: C4_8  and  N4_9
REMARK       I    between atoms: C4_8  and  N7_21
REMARK    2  A    between atoms: N5_11  and  C5_13
REMARK    3  A    between atoms: C5_13  and  N6_15
REMARK    4  A    between atoms: N6_15  and  C6_17
REMARK    5  A    between atoms: C6_17  and  C7_18
REMARK    6  A    between atoms: C7_18  and  O1_19
REMARK    7  A    between atoms: N7_21  and  C8_23
REMARK    8  A    between atoms: C8_23  and  C9_24
REMARK    9  A    between atoms: C10_25  and  C11_26
ROOT
HETATM    1  N1  UNL     1      25.542  -8.509  10.912  1.00  0.00    -0.353 N
ATOM      2  H1  UNL     1      25.310  -9.353  10.388  1.00  0.00     0.163 HD
HETATM    3  C3  UNL     1      25.003  -7.402  10.483  1.00  0.00     0.266 C
HETATM    4  N2  UNL     1      24.163  -7.665   9.300  1.00  0.00    -0.049 NA
HETATM    5  N3  UNL     1      25.132  -6.200  10.987  1.00  0.00    -0.338 NA
HETATM    6  C4  UNL     1      25.433  -5.267  11.731  1.00  0.00     0.273 C
HETATM    7  N4  UNL     1      26.114  -5.419  12.891  1.00  0.00    -0.257 N
ATOM      8  H4  UNL     1      26.212  -6.433  12.946  1.00  0.00     0.191 HD
HETATM    9  N5  UNL     1      26.643  -5.081  13.845  1.00  0.00    -0.273 N
ATOM     10  H5  UNL     1      26.985  -5.899  14.347  1.00  0.00     0.189 HD
HETATM   11  N7  UNL     1      24.949  -3.955  11.225  1.00  0.00    -0.339 N
ATOM     12  H7  UNL     1      24.446  -3.286  11.808  1.00  0.00     0.164 HD
ENDROOT
BRANCH  11  13
HETATM   13  C8  UNL     1      25.250  -3.714   9.850  1.00  0.00     0.218 C
BRANCH  13  14
HETATM   14  C9  UNL     1      24.770  -2.395   9.441  1.00  0.00    -0.086 C
HETATM   15  C10 UNL     1      24.378  -1.293   9.169  1.00  0.00    -0.100 C
BRANCH  15  16
HETATM   16  C11 UNL     1      23.906   0.062   8.899  1.00  0.00     0.065 C
HETATM   17  C12 UNL     1      23.364   0.610  10.219  1.00  0.00     0.017 C
HETATM   18  C13 UNL     1      22.794   1.976  10.072  1.00  0.00     0.001 C
HETATM   19  C14 UNL     1      22.021   2.169   8.799  1.00  0.00     0.000 C
HETATM   20  C15 UNL     1      21.649   0.843   8.222  1.00  0.00     0.001 C
HETATM   21  C16 UNL     1      22.887   0.050   7.821  1.00  0.00     0.017 C
ENDBRANCH  15  16
ENDBRANCH  13  14
ENDBRANCH  11  13
BRANCH   9  22
HETATM   22  C5  UNL     1      26.978  -3.933  14.552  1.00  0.00     0.186 C
HETATM   23  S1  UNL     1      28.376  -3.126  14.170  1.00  0.00    -0.040 SA
BRANCH  22  24
HETATM   24  N6  UNL     1      26.155  -3.412  15.591  1.00  0.00    -0.364 N
ATOM     25  H6  UNL     1      26.109  -3.927  16.471  1.00  0.00     0.162 HD
BRANCH  24  26
HETATM   26  C6  UNL     1      25.388  -2.205  15.472  1.00  0.00     0.148 C
BRANCH  26  27
HETATM   27  C7  UNL     1      24.514  -2.229  14.240  1.00  0.00     0.183 C
BRANCH  27  28
HETATM   28  O1  UNL     1      23.848  -3.471  14.201  1.00  0.00    -0.399 OA
ATOM     29  H1  UNL     1      23.590  -3.639  13.302  1.00  0.00     0.209 HD
ENDBRANCH  27  28
ENDBRANCH  26  27
ENDBRANCH  24  26
ENDBRANCH  22  24
ENDBRANCH   9  22
BRANCH   1  30
HETATM   30  C2  UNL     1      26.409  -8.681  12.018  1.00  0.00     0.119 C
HETATM   31  C1  UNL     1      25.560  -8.990  13.252  1.00  0.00     0.026 C
ENDBRANCH   1  30
TORSDOF 9
ENDMDL