MODEL 1
REMARK VINA RESULT: -6.146100580      0.000      0.000
REMARK  5 active torsions:
REMARK  status: ('A' for Active; 'I' for Inactive)
REMARK    1  A    between atoms: C2_2  and  C3_4
REMARK    2  A    between atoms: C3_4  and  C4_5
REMARK    3  A    between atoms: C4_5  and  C5_6
REMARK    4  A    between atoms: C4_5  and  N2_8
REMARK       I    between atoms: N2_8  and  C7_10
REMARK       I    between atoms: C7_10  and  N3_12
REMARK    5  A    between atoms: N3_12  and  C8_14
REMARK       I    between atoms: N6_24  and  C14_25
REMARK       I    between atoms: C14_25  and  N7_27
ROOT
HETATM    1  C8  UNL     1      26.835  -1.026  13.911  1.00  0.00     0.134 A
HETATM    2  N4  UNL     1      26.160  -0.550  14.955  1.00  0.00    -0.285 N
ATOM      3  H4  UNL     1      26.033   0.438  15.174  1.00  0.00     0.188 HD
HETATM    4  N5  UNL     1      25.681  -1.552  15.662  1.00  0.00    -0.301 N
ATOM      5  H5  UNL     1      25.126  -1.460  16.512  1.00  0.00     0.186 HD
HETATM    6  C9  UNL     1      26.036  -2.719  15.089  1.00  0.00     0.056 A
HETATM    7  C10 UNL     1      26.764  -2.416  13.983  1.00  0.00     0.041 A
HETATM    8  C11 UNL     1      27.169  -3.661  13.345  1.00  0.00     0.063 C
HETATM    9  C12 UNL     1      26.977  -3.604  11.845  1.00  0.00     0.044 C
HETATM   10  C13 UNL     1      28.623  -4.010  13.598  1.00  0.00     0.044 C
HETATM   11  N6  UNL     1      26.366  -4.697  13.960  1.00  0.00    -0.315 N
HETATM   12  C14 UNL     1      26.111  -5.959  13.344  1.00  0.00     0.321 C
HETATM   13  O2  UNL     1      26.592  -6.162  12.168  1.00  0.00    -0.247 OA
HETATM   14  N7  UNL     1      25.385  -7.013  13.893  1.00  0.00    -0.343 N
HETATM   15  C15 UNL     1      25.236  -8.224  13.047  1.00  0.00     0.154 C
HETATM   16  C16 UNL     1      24.791  -7.030  15.195  1.00  0.00     0.154 C
HETATM   17  C17 UNL     1      25.914  -4.217  15.222  1.00  0.00     0.188 C
ENDROOT
BRANCH   1  18
HETATM   18  N3  UNL     1      27.459  -0.373  12.972  1.00  0.00    -0.293 N
HETATM   19  C7  UNL     1      26.691   0.344  12.050  1.00  0.00     0.322 C
HETATM   20  N2  UNL     1      25.729  -0.218  11.188  1.00  0.00    -0.335 N
HETATM   21  O1  UNL     1      26.880   1.602  11.990  1.00  0.00    -0.247 OA
ATOM     22  H2  UNL     1      25.561  -1.224  11.220  1.00  0.00     0.164 HD
ATOM     23  H3  UNL     1      28.477  -0.385  12.911  1.00  0.00     0.172 HD
BRANCH  20  24
HETATM   24  C4  UNL     1      24.959   0.608  10.242  1.00  0.00     0.110 C
BRANCH  24  25
HETATM   25  C3  UNL     1      25.083   0.115   8.870  1.00  0.00     0.024 C
BRANCH  25  26
HETATM   26  C2  UNL     1      24.573  -1.148   8.417  1.00  0.00     0.035 C
HETATM   27  C1  UNL     1      23.390  -1.180   7.768  1.00  0.00     0.039 C
HETATM   28  N1  UNL     1      25.142  -2.433   8.634  1.00  0.00    -0.104 NA
ENDBRANCH  25  26
ENDBRANCH  24  25
BRANCH  24  29
HETATM   29  C5  UNL     1      23.651   0.977  10.831  1.00  0.00     0.025 C
HETATM   30  C6  UNL     1      22.782   1.931  10.071  1.00  0.00     0.007 C
ENDBRANCH  24  29
ENDBRANCH  20  24
ENDBRANCH   1  18
TORSDOF 5
ENDMDL