MODEL 1
REMARK VINA RESULT: -6.510901139      0.000      0.000
REMARK  4 active torsions:
REMARK  status: ('A' for Active; 'I' for Inactive)
REMARK    1  A    between atoms: C2_2  and  C3_3
REMARK    2  A    between atoms: C3_3  and  C4_4
REMARK    3  A    between atoms: C3_3  and  N2_10
REMARK    4  A    between atoms: C4_4  and  N1_5
REMARK       I    between atoms: N1_5  and  C5_7
REMARK       I    between atoms: N2_10  and  C7_12
REMARK       I    between atoms: C7_12  and  N3_14
REMARK       I    between atoms: N4_25  and  C18_26
ROOT
HETATM    1  N2  UNL     1      24.592   0.080   9.939  1.00  0.00    -0.337 N
ATOM      2  H2  UNL     1      24.100  -0.092  10.815  1.00  0.00     0.164 HD
HETATM    3  C7  UNL     1      26.014   0.047   9.934  1.00  0.00     0.320 C
HETATM    4  O2  UNL     1      26.594   0.263   8.838  1.00  0.00    -0.247 OA
HETATM    5  N3  UNL     1      26.771  -0.214  11.094  1.00  0.00    -0.301 N
HETATM    6  C8  UNL     1      28.024  -0.382  11.746  1.00  0.00     0.217 A
HETATM    7  C9  UNL     1      26.766  -0.498  12.516  1.00  0.00     0.142 A
HETATM    8  C10 UNL     1      26.418  -1.846  13.044  1.00  0.00    -0.014 C
HETATM    9  C11 UNL     1      25.773  -2.750  12.037  1.00  0.00     0.012 C
HETATM   10  C12 UNL     1      25.472  -4.117  12.622  1.00  0.00     0.001 C
HETATM   11  C13 UNL     1      24.738  -4.030  13.921  1.00  0.00     0.000 C
HETATM   12  C14 UNL     1      24.248  -2.614  14.092  1.00  0.00     0.001 C
HETATM   13  C15 UNL     1      25.367  -1.632  14.146  1.00  0.00     0.012 C
HETATM   14  C16 UNL     1      27.599  -2.466  13.748  1.00  0.00     0.031 C
HETATM   15  C17 UNL     1      28.914  -2.237  13.097  1.00  0.00     0.128 C
HETATM   16  N4  UNL     1      28.757  -1.600  11.798  1.00  0.00    -0.332 N
HETATM   17  C18 UNL     1      29.369  -2.256  10.699  1.00  0.00     0.185 C
HETATM   18  N5  UNL     1      30.571  -2.747  10.862  1.00  0.00    -0.374 N
ATOM     19  H51 UNL     1      31.011  -3.218  10.071  1.00  0.00     0.158 HD
ATOM     20  H52 UNL     1      30.989  -2.621  11.784  1.00  0.00     0.158 HD
HETATM   21  N6  UNL     1      28.791  -2.431   9.424  1.00  0.00    -0.064 NA
ENDROOT
BRANCH   1  22
HETATM   22  C3  UNL     1      23.811   0.350   8.737  1.00  0.00     0.103 C
BRANCH  22  23
HETATM   23  C2  UNL     1      22.612   1.223   9.058  1.00  0.00     0.022 C
HETATM   24  C1  UNL     1      22.703   1.895  10.386  1.00  0.00     0.007 C
ENDBRANCH  22  23
BRANCH  22  25
HETATM   25  C4  UNL     1      23.381  -0.897   8.047  1.00  0.00     0.147 C
BRANCH  25  26
HETATM   26  N1  UNL     1      24.272  -1.254   6.997  1.00  0.00    -0.359 N
HETATM   27  C5  UNL     1      25.194  -2.324   7.098  1.00  0.00     0.213 C
HETATM   28  C6  UNL     1      26.125  -2.666   5.961  1.00  0.00     0.117 C
HETATM   29  O1  UNL     1      25.311  -3.057   8.111  1.00  0.00    -0.274 OA
ATOM     30  H1  UNL     1      24.246  -0.715   6.132  1.00  0.00     0.162 HD
ENDBRANCH  25  26
ENDBRANCH  22  25
ENDBRANCH   1  22
TORSDOF 4
ENDMDL