MODEL 2
REMARK VINA RESULT: -8.165465436      1.440      1.860
REMARK  7 active torsions:
REMARK  status: ('A' for Active; 'I' for Inactive)
REMARK    1  A    between atoms: C5_6  and  N1_7
REMARK    2  A    between atoms: N2_10  and  C8_11
REMARK    3  A    between atoms: C8_11  and  C9_12
REMARK    4  A    between atoms: C9_12  and  C10_13
REMARK    5  A    between atoms: C10_13  and  C11_14
REMARK    6  A    between atoms: C11_14  and  N3_15
REMARK       I    between atoms: N3_15  and  C12_17
REMARK       I    between atoms: C12_17  and  N4_19
REMARK    7  A    between atoms: N4_19  and  C13_21
ROOT
HETATM    1  C9  UNL     1     -10.873   0.826 -18.104  1.00  0.00     0.032 C
ENDROOT
BRANCH   1   2
HETATM    2  C8  UNL     1     -12.150   1.586 -18.316  1.00  0.00     0.272 C
BRANCH   2   3
HETATM    3  N2  UNL     1     -12.098   2.852 -17.620  1.00  0.00     0.091 N
HETATM    4  C7  UNL     1     -13.051   3.794 -18.185  1.00  0.00     0.292 C
HETATM    5  C6  UNL     1     -14.093   4.245 -17.235  1.00  0.00     0.153 C
HETATM    6  N1  UNL     1     -14.606   3.138 -16.470  1.00  0.00    -0.377 N
HETATM    7  C23 UNL     1     -13.620   2.299 -15.788  1.00  0.00     0.153 C
HETATM    8  C22 UNL     1     -12.236   2.755 -16.192  1.00  0.00     0.292 C
BRANCH   6   9
HETATM    9  C5  UNL     1     -15.976   2.825 -16.314  1.00  0.00     0.041 A
HETATM   10  C4  UNL     1     -16.442   1.757 -17.076  1.00  0.00     0.054 A
HETATM   11  C3  UNL     1     -17.764   1.394 -16.959  1.00  0.00     0.045 A
HETATM   12  C2  UNL     1     -18.603   2.078 -16.103  1.00  0.00    -0.001 A
HETATM   13 CL1  UNL     1     -18.397   0.055 -17.896  1.00  0.00    -0.084 Cl
HETATM   14  C1  UNL     1     -20.035   1.694 -15.969  1.00  0.00     0.053 C
HETATM   15  C26 UNL     1     -18.108   3.130 -15.365  1.00  0.00     0.132 A
HETATM   16  C24 UNL     1     -16.771   3.533 -15.451  1.00  0.00     0.004 A
HETATM   17  F1  UNL     1     -18.911   3.826 -14.510  1.00  0.00    -0.205 F
HETATM   18  C25 UNL     1     -16.307   4.672 -14.642  1.00  0.00     0.054 C
ENDBRANCH   6   9
ENDBRANCH   2   3
ENDBRANCH   1   2
BRANCH   1  19
HETATM   19  C10 UNL     1     -10.536  -0.004 -19.342  1.00  0.00     0.021 C
BRANCH  19  20
HETATM   20  C11 UNL     1     -11.441  -1.191 -19.444  1.00  0.00     0.124 C
BRANCH  20  21
HETATM   21  N3  UNL     1     -12.201  -1.131 -20.663  1.00  0.00    -0.343 N
HETATM   22  C12 UNL     1     -13.612  -1.176 -20.692  1.00  0.00     0.316 C
HETATM   23  O1  UNL     1     -14.299  -1.252 -19.633  1.00  0.00    -0.247 OA
HETATM   24  N4  UNL     1     -14.291  -1.135 -21.953  1.00  0.00    -0.339 N
ATOM     25  H4  UNL     1     -13.753  -1.077 -22.818  1.00  0.00     0.164 HD
ATOM     26  H3  UNL     1     -11.698  -1.052 -21.547  1.00  0.00     0.164 HD
BRANCH  24  27
HETATM   27  C13 UNL     1     -15.741  -1.175 -22.008  1.00  0.00     0.086 C
HETATM   28  C14 UNL     1     -16.242  -2.253 -22.903  1.00  0.00     0.025 C
HETATM   29  C15 UNL     1     -17.654  -2.159 -23.354  1.00  0.00     0.002 C
HETATM   30  C16 UNL     1     -18.632  -2.471 -22.292  1.00  0.00     0.000 C
HETATM   31  C17 UNL     1     -19.158  -1.365 -21.462  1.00  0.00     0.000 C
HETATM   32  C18 UNL     1     -19.313  -0.033 -22.093  1.00  0.00     0.000 C
HETATM   33  C19 UNL     1     -18.503   1.066 -21.484  1.00  0.00     0.000 C
HETATM   34  C20 UNL     1     -17.104   0.714 -21.090  1.00  0.00     0.002 C
HETATM   35  C21 UNL     1     -16.279   0.195 -22.241  1.00  0.00     0.025 C
ENDBRANCH  24  27
ENDBRANCH  20  21
ENDBRANCH  19  20
ENDBRANCH   1  19
TORSDOF 7
ENDMDL