MODEL 4
REMARK VINA RESULT: -7.713849383      2.757      5.826
REMARK  9 active torsions:
REMARK  status: ('A' for Active; 'I' for Inactive)
REMARK    1  A    between atoms: C2_2  and  C3_3
REMARK    2  A    between atoms: C3_3  and  C4_4
REMARK    3  A    between atoms: C4_4  and  N1_5
REMARK    4  A    between atoms: C11_12  and  N2_13
REMARK    5  A    between atoms: N2_13  and  C12_15
REMARK    6  A    between atoms: C12_15  and  N3_17
REMARK    7  A    between atoms: N3_17  and  C13_19
REMARK    8  A    between atoms: C16_22  and  C17_23
REMARK    9  A    between atoms: C17_23  and  C18_25
ROOT
HETATM    1  N3  UNL     1     -15.234  -1.194 -22.172  1.00  0.00    -0.363 N
ATOM      2  H3  UNL     1     -15.284  -0.397 -22.806  1.00  0.00     0.162 HD
ENDROOT
BRANCH   1   3
HETATM    3  C12 UNL     1     -13.979  -1.756 -21.901  1.00  0.00     0.168 C
HETATM    4  S1  UNL     1     -13.633  -3.244 -22.462  1.00  0.00    -0.041 SA
BRANCH   3   5
HETATM    5  N2  UNL     1     -13.015  -1.048 -21.139  1.00  0.00    -0.363 N
ATOM      6  H2  UNL     1     -12.226  -0.629 -21.631  1.00  0.00     0.162 HD
BRANCH   5   7
HETATM    7  C11 UNL     1     -13.087  -0.886 -19.707  1.00  0.00     0.088 C
HETATM    8  C10 UNL     1     -13.716   0.373 -19.254  1.00  0.00     0.061 C
HETATM    9  C9  UNL     1     -13.644   0.480 -17.743  1.00  0.00     0.225 C
HETATM   10  N1  UNL     1     -12.312   0.502 -17.262  1.00  0.00     0.098 N
HETATM   11  C8  UNL     1     -14.478  -0.582 -17.093  1.00  0.00     0.036 C
HETATM   12  C5  UNL     1     -11.689  -0.746 -17.652  1.00  0.00     0.225 C
HETATM   13  C6  UNL     1     -12.301  -1.822 -16.829  1.00  0.00     0.036 C
HETATM   14  C26 UNL     1     -11.702  -0.997 -19.116  1.00  0.00     0.061 C
HETATM   15  C7  UNL     1     -13.773  -1.809 -16.694  1.00  0.00     0.004 C
BRANCH  10  16
HETATM   16  C4  UNL     1     -11.520   1.642 -17.621  1.00  0.00     0.273 C
BRANCH  16  17
HETATM   17  C3  UNL     1     -11.634   2.689 -16.545  1.00  0.00     0.030 C
BRANCH  17  18
HETATM   18  C2  UNL     1     -11.993   4.034 -17.203  1.00  0.00    -0.003 C
HETATM   19  C1  UNL     1     -13.520   4.094 -17.132  1.00  0.00     0.005 C
ENDBRANCH  17  18
ENDBRANCH  16  17
ENDBRANCH  10  16
ENDBRANCH   5   7
ENDBRANCH   3   5
ENDBRANCH   1   3
BRANCH   1  20
HETATM   20  C13 UNL     1     -16.460  -1.690 -21.593  1.00  0.00     0.083 C
HETATM   21  C14 UNL     1     -16.713  -1.085 -20.236  1.00  0.00     0.026 C
HETATM   22  C15 UNL     1     -18.188  -0.858 -19.947  1.00  0.00     0.014 C
HETATM   23  C16 UNL     1     -18.822   0.147 -20.867  1.00  0.00     0.061 C
HETATM   24  C24 UNL     1     -17.898   0.209 -22.096  1.00  0.00     0.014 C
HETATM   25  C25 UNL     1     -17.656  -1.267 -22.451  1.00  0.00     0.026 C
BRANCH  23  26
HETATM   26  C17 UNL     1     -18.928   1.508 -20.305  1.00  0.00     0.166 C
HETATM   27  O1  UNL     1     -19.374   2.451 -21.064  1.00  0.00    -0.292 OA
BRANCH  26  28
HETATM   28  C18 UNL     1     -18.568   1.900 -18.953  1.00  0.00     0.049 A
HETATM   29  C19 UNL     1     -19.595   1.932 -17.993  1.00  0.00     0.021 A
HETATM   30  C20 UNL     1     -19.324   2.331 -16.706  1.00  0.00     0.043 A
HETATM   31  C21 UNL     1     -18.061   2.702 -16.335  1.00  0.00     0.119 A
HETATM   32  F1  UNL     1     -17.880   3.080 -15.044  1.00  0.00    -0.206 F
HETATM   33  C22 UNL     1     -17.070   2.670 -17.263  1.00  0.00     0.085 A
HETATM   34  C23 UNL     1     -17.314   2.272 -18.563  1.00  0.00     0.133 A
HETATM   35  F2  UNL     1     -16.294   2.230 -19.449  1.00  0.00    -0.205 F
ENDBRANCH  26  28
ENDBRANCH  23  26
ENDBRANCH   1  20
TORSDOF 9
ENDMDL