MODEL 4
REMARK VINA RESULT: -6.613636321      3.314      6.787
REMARK  8 active torsions:
REMARK  status: ('A' for Active; 'I' for Inactive)
REMARK    1  A    between atoms: C2_2  and  C3_3
REMARK    2  A    between atoms: C3_3  and  C4_4
REMARK    3  A    between atoms: C3_3  and  C8_12
REMARK    4  A    between atoms: C4_4  and  C5_5
REMARK    5  A    between atoms: C5_5  and  N1_6
REMARK       I    between atoms: N1_6  and  C6_8
REMARK    6  A    between atoms: C6_8  and  C7_10
REMARK    7  A    between atoms: C13_18  and  C14_19
REMARK    8  A    between atoms: C18_23  and  O2_24
ROOT
HETATM    1  C8  UNL     1     -16.151   2.923 -16.663  1.00  0.00     0.003 C
HETATM    2  C9  UNL     1     -15.371   2.027 -15.692  1.00  0.00     0.008 C
HETATM    3  C10 UNL     1     -14.434   1.193 -16.543  1.00  0.00     0.027 C
HETATM    4  C11 UNL     1     -15.285   0.881 -17.689  1.00  0.00     0.049 C
HETATM    5 CL2  UNL     1     -16.600  -0.196 -17.098  1.00  0.00    -0.118 Cl
HETATM    6  C12 UNL     1     -14.685   0.430 -18.949  1.00  0.00     0.019 C
HETATM    7  C13 UNL     1     -13.704  -0.682 -18.918  1.00  0.00    -0.003 C
HETATM    8  C17 UNL     1     -13.321  -0.924 -20.394  1.00  0.00     0.038 C
HETATM    9  C18 UNL     1     -14.454  -1.563 -21.140  1.00  0.00     0.126 C
HETATM   10  C19 UNL     1     -15.588  -0.581 -21.117  1.00  0.00    -0.018 C
HETATM   11  C20 UNL     1     -15.376   0.470 -22.187  1.00  0.00     0.018 C
HETATM   12  C21 UNL     1     -16.817  -1.382 -21.555  1.00  0.00     0.018 C
HETATM   13  C22 UNL     1     -15.898  -0.018 -19.777  1.00  0.00     0.002 C
HETATM   14  C23 UNL     1     -16.836   1.123 -19.996  1.00  0.00     0.007 C
HETATM   15  C24 UNL     1     -17.171   1.938 -18.774  1.00  0.00     0.012 C
HETATM   16  C25 UNL     1     -15.983   2.234 -17.943  1.00  0.00    -0.018 C
HETATM   17  C26 UNL     1     -15.005   3.120 -18.763  1.00  0.00     0.018 C
ENDROOT
BRANCH   1  18
HETATM   18  C3  UNL     1     -17.468   3.181 -16.062  1.00  0.00     0.014 C
BRANCH  18  19
HETATM   19  C2  UNL     1     -17.547   4.106 -14.915  1.00  0.00    -0.032 C
HETATM   20  C1  UNL     1     -16.612   5.016 -14.666  1.00  0.00     0.007 C
ENDBRANCH  18  19
BRANCH  18  21
HETATM   21  C4  UNL     1     -18.089   1.873 -15.603  1.00  0.00     0.028 C
BRANCH  21  22
HETATM   22  C5  UNL     1     -19.511   1.709 -16.069  1.00  0.00     0.123 C
BRANCH  22  23
HETATM   23  N1  UNL     1     -20.470   1.854 -14.974  1.00  0.00    -0.360 N
HETATM   24  C6  UNL     1     -21.357   2.946 -14.938  1.00  0.00     0.231 C
HETATM   25  O1  UNL     1     -21.443   3.872 -15.766  1.00  0.00    -0.272 OA
ATOM     26  H1  UNL     1     -20.496   1.157 -14.230  1.00  0.00     0.162 HD
BRANCH  24  27
HETATM   27  C7  UNL     1     -22.322   3.033 -13.785  1.00  0.00     0.217 C
HETATM   28 CL1  UNL     1     -21.483   2.453 -12.335  1.00  0.00    -0.121 Cl
ENDBRANCH  24  27
ENDBRANCH  22  23
ENDBRANCH  21  22
ENDBRANCH  18  21
ENDBRANCH   1  18
BRANCH   7  29
HETATM   29  C14 UNL     1     -12.389  -0.445 -18.276  1.00  0.00    -0.018 C
HETATM   30  C15 UNL     1     -11.245  -0.395 -19.282  1.00  0.00     0.010 C
HETATM   31  C16 UNL     1     -12.096  -1.681 -17.404  1.00  0.00     0.010 C
ENDBRANCH   7  29
BRANCH   9  32
HETATM   32  O2  UNL     1     -14.780  -2.808 -20.662  1.00  0.00    -0.395 OA
ATOM     33  H2  UNL     1     -14.914  -3.448 -21.351  1.00  0.00     0.210 HD
ENDBRANCH   9  32
TORSDOF 8
ENDMDL