MODEL 3
REMARK VINA RESULT: -8.147913518      5.139      7.845
REMARK  7 active torsions:
REMARK  status: ('A' for Active; 'I' for Inactive)
REMARK    1  A    between atoms: C10_10  and  C11_11
REMARK    2  A    between atoms: C11_11  and  N1_12
REMARK    3  A    between atoms: N1_12  and  C12_14
REMARK    4  A    between atoms: C12_14  and  C13_15
REMARK    5  A    between atoms: C13_15  and  C14_16
REMARK    6  A    between atoms: C17_19  and  N2_20
REMARK    7  A    between atoms: N2_20  and  S1_22
ROOT
HETATM    1  N1  UNL     1     -17.480   4.034 -15.748  1.00  0.00    -0.417 N
ATOM      2  H1  UNL     1     -17.575   4.645 -16.559  1.00  0.00     0.153 HD
ENDROOT
BRANCH   1   3
HETATM    3  C11 UNL     1     -16.297   4.009 -14.936  1.00  0.00     0.148 C
BRANCH   3   4
HETATM    4  C10 UNL     1     -15.228   3.301 -15.720  1.00  0.00    -0.066 C
HETATM    5  C9  UNL     1     -14.692   3.957 -16.724  1.00  0.00    -0.022 C
HETATM    6  C8  UNL     1     -13.622   3.325 -17.555  1.00  0.00     0.033 C
HETATM    7  C7  UNL     1     -13.758   1.829 -17.547  1.00  0.00    -0.002 C
HETATM    8  C6  UNL     1     -12.627   1.159 -18.240  1.00  0.00     0.002 C
HETATM    9  C22 UNL     1     -13.888   1.242 -16.171  1.00  0.00    -0.006 C
HETATM   10  C5  UNL     1     -11.311   1.211 -17.531  1.00  0.00     0.006 C
HETATM   11  C25 UNL     1     -12.961  -0.301 -18.462  1.00  0.00    -0.017 C
HETATM   12  C4  UNL     1     -10.244   0.896 -18.560  1.00  0.00     0.005 C
HETATM   13  C3  UNL     1     -10.387  -0.529 -18.970  1.00  0.00     0.034 C
HETATM   14  C2  UNL     1     -11.772  -1.057 -18.931  1.00  0.00    -0.081 C
HETATM   15  C1  UNL     1     -11.961  -2.300 -19.347  1.00  0.00     0.015 C
HETATM   16  C24 UNL     1     -13.449  -0.997 -17.224  1.00  0.00     0.014 C
HETATM   17  C26 UNL     1     -13.997  -0.330 -19.578  1.00  0.00     0.020 C
HETATM   18  C23 UNL     1     -14.318  -0.195 -16.328  1.00  0.00     0.006 C
HETATM   19  C21 UNL     1     -14.880   1.936 -15.290  1.00  0.00     0.040 C
ENDBRANCH   3   4
ENDBRANCH   1   3
BRANCH   1  20
HETATM   20  C12 UNL     1     -18.517   3.138 -15.335  1.00  0.00     0.118 C
BRANCH  20  21
HETATM   21  C13 UNL     1     -18.412   1.851 -16.098  1.00  0.00     0.061 C
BRANCH  21  22
HETATM   22  C14 UNL     1     -18.862   1.973 -17.514  1.00  0.00    -0.015 A
HETATM   23  C15 UNL     1     -20.164   2.332 -17.793  1.00  0.00     0.013 A
HETATM   24  C16 UNL     1     -20.603   2.454 -19.117  1.00  0.00     0.034 A
HETATM   25  C17 UNL     1     -19.766   2.223 -20.172  1.00  0.00     0.084 A
HETATM   26  C19 UNL     1     -18.446   1.859 -19.880  1.00  0.00     0.182 A
HETATM   27  F1  UNL     1     -17.638   1.635 -20.944  1.00  0.00    -0.200 F
HETATM   28  C20 UNL     1     -18.018   1.741 -18.576  1.00  0.00     0.163 A
HETATM   29  F2  UNL     1     -16.738   1.386 -18.342  1.00  0.00    -0.202 F
BRANCH  25  30
HETATM   30  N2  UNL     1     -20.221   2.351 -21.496  1.00  0.00    -0.282 N
ATOM     31  H2  UNL     1     -20.069   3.226 -21.997  1.00  0.00     0.178 HD
BRANCH  30  32
HETATM   32  S1  UNL     1     -21.022   1.066 -22.276  1.00  0.00     0.227 S
HETATM   33  C18 UNL     1     -22.606   0.688 -21.631  1.00  0.00     0.186 C
HETATM   34  O1  UNL     1     -21.168   1.394 -23.751  1.00  0.00    -0.206 OA
HETATM   35  O2  UNL     1     -20.166  -0.198 -22.252  1.00  0.00    -0.206 OA
ENDBRANCH  30  32
ENDBRANCH  25  30
ENDBRANCH  21  22
ENDBRANCH  20  21
ENDBRANCH   1  20
TORSDOF 7
ENDMDL