MODEL 4
REMARK VINA RESULT: -7.295441018      3.017      3.685
REMARK  7 active torsions:
REMARK  status: ('A' for Active; 'I' for Inactive)
REMARK    1  A    between atoms: C6_9  and  C7_10
REMARK    2  A    between atoms: C7_10  and  O1_11
REMARK    3  A    between atoms: O1_11  and  C8_12
REMARK    4  A    between atoms: C13_19  and  C14_20
REMARK       I    between atoms: C14_20  and  N2_22
REMARK    5  A    between atoms: N2_22  and  C15_24
REMARK    6  A    between atoms: C15_24  and  C16_25
REMARK    7  A    between atoms: C16_25  and  N3_26
ROOT
HETATM    1  C8  UNL     1     -16.873   1.446 -19.212  1.00  0.00     0.086 A
HETATM    2  C9  UNL     1     -18.088   2.042 -18.811  1.00  0.00     0.063 A
HETATM    3  C10 UNL     1     -19.170   2.032 -19.647  1.00  0.00     0.054 A
HETATM    4 CL1  UNL     1     -20.683   2.748 -19.208  1.00  0.00    -0.083 Cl
HETATM    5  C11 UNL     1     -19.020   1.429 -20.867  1.00  0.00     0.033 A
HETATM    6 BR1  UNL     1     -20.494   1.380 -22.084  1.00  0.00    -0.049 Br
HETATM    7  C12 UNL     1     -17.852   0.843 -21.278  1.00  0.00     0.040 A
HETATM    8  C13 UNL     1     -16.725   0.841 -20.433  1.00  0.00     0.066 A
ENDROOT
BRANCH   8   9
HETATM    9  C14 UNL     1     -15.496   0.224 -20.874  1.00  0.00     0.254 C
HETATM   10  O2  UNL     1     -15.338   0.239 -22.161  1.00  0.00    -0.268 OA
HETATM   11  N2  UNL     1     -14.476  -0.374 -20.115  1.00  0.00    -0.355 N
ATOM     12  H2  UNL     1     -14.583  -0.407 -19.101  1.00  0.00     0.162 HD
BRANCH  11  13
HETATM   13  C15 UNL     1     -13.278  -0.948 -20.702  1.00  0.00     0.143 C
BRANCH  13  14
HETATM   14  C16 UNL     1     -13.248  -2.413 -20.482  1.00  0.00     0.146 C
BRANCH  14  15
HETATM   15  N3  UNL     1     -12.365  -2.824 -19.418  1.00  0.00    -0.372 N
HETATM   16  C17 UNL     1     -11.471  -1.844 -18.953  1.00  0.00     0.063 C
HETATM   17  C18 UNL     1     -11.833  -1.243 -17.643  1.00  0.00     0.045 C
HETATM   18  C19 UNL     1     -12.807  -2.005 -16.814  1.00  0.00     0.010 C
HETATM   19  C20 UNL     1     -12.591  -3.483 -17.083  1.00  0.00     0.045 C
HETATM   20  C21 UNL     1     -12.921  -3.750 -18.518  1.00  0.00     0.063 C
ENDBRANCH  14  15
ENDBRANCH  13  14
ENDBRANCH  11  13
ENDBRANCH   8   9
BRANCH   1  21
HETATM   21  O1  UNL     1     -15.825   1.495 -18.311  1.00  0.00    -0.349 OA
BRANCH  21  22
HETATM   22  C7  UNL     1     -15.724   2.561 -17.407  1.00  0.00     0.186 C
BRANCH  22  23
HETATM   23  C6  UNL     1     -14.298   2.985 -17.242  1.00  0.00     0.055 C
HETATM   24  C1  UNL     1     -13.550   2.205 -16.236  1.00  0.00    -0.014 C
HETATM   25  N1  UNL     1     -14.019   1.194 -15.636  1.00  0.00    -0.405 N
HETATM   26  C2  UNL     1     -12.161   2.650 -15.931  1.00  0.00     0.052 C
ATOM     27  H12 UNL     1     -13.503   0.655 -14.942  1.00  0.00     0.155 HD
ATOM     28  H11 UNL     1     -14.970   0.889 -15.845  1.00  0.00     0.155 HD
HETATM   29  C3  UNL     1     -11.409   2.654 -17.249  1.00  0.00     0.006 C
HETATM   30  C4  UNL     1     -12.240   2.135 -18.387  1.00  0.00     0.001 C
HETATM   31  C5  UNL     1     -13.563   2.827 -18.555  1.00  0.00     0.013 C
ENDBRANCH  22  23
ENDBRANCH  21  22
ENDBRANCH   1  21
TORSDOF 7
ENDMDL