MODEL 1
REMARK VINA RESULT: -7.652276724      0.000      0.000
REMARK  9 active torsions:
REMARK  status: ('A' for Active; 'I' for Inactive)
REMARK    1  A    between atoms: C2_2  and  C3_3
REMARK    2  A    between atoms: C3_3  and  C4_4
REMARK    3  A    between atoms: C4_4  and  C5_5
REMARK    4  A    between atoms: C5_5  and  O1_6
REMARK    5  A    between atoms: C5_5  and  C6_8
REMARK    6  A    between atoms: C5_5  and  C11_13
REMARK    7  A    between atoms: C11_13  and  C12_16
REMARK    8  A    between atoms: C15_19  and  C16_20
REMARK       I    between atoms: C16_20  and  N1_22
REMARK    9  A    between atoms: C25_31  and  C26_32
ROOT
HETATM    1  C12 UNL     1     -17.072   2.475 -15.688  1.00  0.00     0.017 A
HETATM    2  C13 UNL     1     -17.451   3.591 -14.976  1.00  0.00     0.014 A
HETATM    3  C14 UNL     1     -18.803   3.907 -14.803  1.00  0.00     0.019 A
HETATM    4  C15 UNL     1     -19.780   3.108 -15.351  1.00  0.00     0.047 A
HETATM    5  C25 UNL     1     -19.448   1.988 -16.069  1.00  0.00     0.045 A
HETATM    6  C27 UNL     1     -18.102   1.701 -16.218  1.00  0.00     0.031 A
ENDROOT
BRANCH   1   7
HETATM    7  C11 UNL     1     -15.694   2.082 -15.849  1.00  0.00     0.301 C
HETATM    8  F1  UNL     1     -15.613   0.733 -15.580  1.00  0.00    -0.197 F
HETATM    9  F2  UNL     1     -14.951   2.643 -14.730  1.00  0.00    -0.197 F
BRANCH   7  10
HETATM   10  C5  UNL     1     -14.875   2.527 -17.022  1.00  0.00     0.131 C
BRANCH  10  11
HETATM   11  C4  UNL     1     -15.822   2.852 -18.180  1.00  0.00     0.045 C
BRANCH  11  12
HETATM   12  C3  UNL     1     -16.064   1.932 -19.261  1.00  0.00     0.003 C
BRANCH  12  13
HETATM   13  C2  UNL     1     -17.537   1.860 -19.690  1.00  0.00    -0.004 C
HETATM   14  C1  UNL     1     -17.734   1.057 -20.934  1.00  0.00     0.005 C
ENDBRANCH  12  13
ENDBRANCH  11  12
ENDBRANCH  10  11
BRANCH  10  15
HETATM   15  O1  UNL     1     -14.104   1.492 -17.407  1.00  0.00    -0.383 OA
ATOM     16  H1  UNL     1     -14.220   0.797 -16.769  1.00  0.00     0.210 HD
ENDBRANCH  10  15
BRANCH  10  17
HETATM   17  C6  UNL     1     -14.015   3.741 -16.767  1.00  0.00     0.026 C
HETATM   18  C7  UNL     1     -13.944   4.716 -17.903  1.00  0.00     0.008 C
HETATM   19  C8  UNL     1     -12.953   4.276 -18.919  1.00  0.00     0.001 C
HETATM   20  C9  UNL     1     -12.030   3.398 -18.137  1.00  0.00     0.001 C
HETATM   21  C10 UNL     1     -12.533   3.399 -16.674  1.00  0.00     0.008 C
ENDBRANCH  10  17
ENDBRANCH   7  10
ENDBRANCH   1   7
BRANCH   5  22
HETATM   22  C26 UNL     1     -20.463   1.148 -16.659  1.00  0.00     0.266 C
HETATM   23  N2  UNL     1     -20.994   1.531 -17.929  1.00  0.00    -0.057 NA
HETATM   24  O3  UNL     1     -20.880   0.138 -16.134  1.00  0.00    -0.271 OA
ENDBRANCH   5  22
BRANCH   4  25
HETATM   25  C16 UNL     1     -21.218   3.427 -15.141  1.00  0.00     0.255 C
HETATM   26  O2  UNL     1     -21.733   4.303 -15.890  1.00  0.00    -0.267 OA
HETATM   27  N1  UNL     1     -21.993   2.786 -14.155  1.00  0.00    -0.343 N
HETATM   28  C17 UNL     1     -23.410   2.976 -13.858  1.00  0.00     0.127 C
HETATM   29  C24 UNL     1     -21.480   1.772 -13.209  1.00  0.00     0.091 C
HETATM   30  C18 UNL     1     -23.876   1.623 -13.335  1.00  0.00     0.026 C
HETATM   31  C19 UNL     1     -22.639   0.803 -13.131  1.00  0.00     0.010 C
HETATM   32  C20 UNL     1     -22.641  -0.086 -11.948  1.00  0.00     0.007 C
HETATM   33  C21 UNL     1     -22.134   0.530 -10.697  1.00  0.00     0.001 C
HETATM   34  C22 UNL     1     -22.008   2.029 -10.774  1.00  0.00     0.002 C
HETATM   35  C23 UNL     1     -21.110   2.402 -11.925  1.00  0.00     0.026 C
ENDBRANCH   4  25
TORSDOF 9
ENDMDL