MODEL 1
REMARK VINA RESULT: -8.399929345      0.000      0.000
REMARK  8 active torsions:
REMARK  status: ('A' for Active; 'I' for Inactive)
REMARK    1  A    between atoms: C6_9  and  N2_10
REMARK    2  A    between atoms: N2_10  and  C7_12
REMARK    3  A    between atoms: C7_12  and  C8_13
REMARK    4  A    between atoms: C8_13  and  C9_14
REMARK    5  A    between atoms: C9_14  and  N3_15
REMARK    6  A    between atoms: N3_15  and  C10_16
REMARK    7  A    between atoms: N3_15  and  C18_28
REMARK    8  A    between atoms: C10_16  and  C11_17
ROOT
HETATM    1  N3  UNL     1     -14.318   2.613 -16.629  1.00  0.00     0.097 N
ENDROOT
BRANCH   1   2
HETATM    2  C9  UNL     1     -15.055   3.112 -15.421  1.00  0.00     0.275 C
BRANCH   2   3
HETATM    3  C8  UNL     1     -16.264   3.887 -15.757  1.00  0.00     0.050 C
BRANCH   3   4
HETATM    4  C7  UNL     1     -17.544   3.123 -15.450  1.00  0.00     0.121 C
BRANCH   4   5
HETATM    5  N2  UNL     1     -17.732   1.947 -16.235  1.00  0.00    -0.389 N
ATOM      6  H2  UNL     1     -17.292   1.073 -15.948  1.00  0.00     0.159 HD
BRANCH   5   7
HETATM    7  C6  UNL     1     -18.466   1.979 -17.323  1.00  0.00     0.042 A
HETATM    8  C5  UNL     1     -19.773   2.404 -17.286  1.00  0.00     0.047 A
HETATM    9  C4  UNL     1     -20.526   2.409 -18.453  1.00  0.00     0.090 A
HETATM   10  N1  UNL     1     -20.025   2.012 -19.630  1.00  0.00    -0.365 N
HETATM   11  C3  UNL     1     -18.752   1.594 -19.693  1.00  0.00     0.046 A
ATOM     12  H1  UNL     1     -20.605   2.027 -20.468  1.00  0.00     0.165 HD
HETATM   13  C2  UNL     1     -18.243   1.181 -20.917  1.00  0.00     0.056 A
HETATM   14  C24 UNL     1     -17.973   1.577 -18.539  1.00  0.00     0.019 A
HETATM   15  C1  UNL     1     -16.943   0.750 -20.976  1.00  0.00     0.058 A
HETATM   16 CL1  UNL     1     -16.263   0.223 -22.516  1.00  0.00    -0.082 Cl
HETATM   17  C26 UNL     1     -16.156   0.726 -19.844  1.00  0.00     0.056 A
HETATM   18  C25 UNL     1     -16.676   1.140 -18.634  1.00  0.00     0.041 A
HETATM   19 CL2  UNL     1     -14.486   0.165 -19.922  1.00  0.00    -0.083 Cl
ENDBRANCH   5   7
ENDBRANCH   4   5
ENDBRANCH   3   4
ENDBRANCH   2   3
ENDBRANCH   1   2
BRANCH   1  20
HETATM   20  C10 UNL     1     -13.299   1.778 -15.990  1.00  0.00     0.315 C
BRANCH  20  21
HETATM   21  C11 UNL     1     -13.109   0.428 -16.491  1.00  0.00     0.012 A
HETATM   22  C12 UNL     1     -13.755  -0.671 -16.035  1.00  0.00     0.098 A
HETATM   23  N4  UNL     1     -13.430  -1.883 -16.520  1.00  0.00    -0.374 N
HETATM   24  C13 UNL     1     -12.489  -2.096 -17.444  1.00  0.00     0.097 A
ATOM     25  H4  UNL     1     -13.935  -2.691 -16.158  1.00  0.00     0.164 HD
HETATM   26  C14 UNL     1     -11.822  -0.989 -17.916  1.00  0.00    -0.014 A
HETATM   27  C15 UNL     1     -12.112   0.272 -17.460  1.00  0.00     0.045 A
HETATM   28  C17 UNL     1     -10.729  -0.897 -18.949  1.00  0.00     0.062 C
HETATM   29  N5  UNL     1     -11.250   1.178 -18.156  1.00  0.00    -0.389 N
HETATM   30  C16 UNL     1     -10.956   0.523 -19.437  1.00  0.00     0.124 C
ATOM     31  H5  UNL     1     -10.912   2.084 -17.832  1.00  0.00     0.159 HD
ENDBRANCH  20  21
ENDBRANCH   1  20
BRANCH   1  32
HETATM   32  C18 UNL     1     -13.696   3.771 -17.244  1.00  0.00     0.223 C
HETATM   33  C19 UNL     1     -12.354   4.153 -16.725  1.00  0.00     0.036 C
HETATM   34  C20 UNL     1     -11.810   5.346 -17.484  1.00  0.00     0.002 C
HETATM   35  C21 UNL     1     -12.889   6.150 -18.168  1.00  0.00     0.000 C
HETATM   36  C22 UNL     1     -13.679   5.320 -19.148  1.00  0.00     0.002 C
HETATM   37  C23 UNL     1     -13.685   3.844 -18.736  1.00  0.00     0.036 C
ENDBRANCH   1  32
TORSDOF 8
ENDMDL