MODEL 3
REMARK VINA RESULT: -8.095647899      3.006      6.081
REMARK  10 active torsions:
REMARK  status: ('A' for Active; 'I' for Inactive)
REMARK    1  A    between atoms: C2_2  and  N1_4
REMARK    2  A    between atoms: C2_2  and  C22_31
REMARK    3  A    between atoms: N1_4  and  C4_5
REMARK    4  A    between atoms: C8_13  and  N4_14
REMARK    5  A    between atoms: N4_14  and  C9_16
REMARK    6  A    between atoms: C9_16  and  C10_17
REMARK    7  A    between atoms: C10_17  and  C11_18
REMARK    8  A    between atoms: C11_18  and  C12_19
REMARK    9  A    between atoms: C12_19  and  C13_20
REMARK   10  A    between atoms: C13_20  and  C14_21
ROOT
HETATM    1  C4  UNL     1     -12.393   1.211 -18.238  1.00  0.00     0.189 A
HETATM    2  N2  UNL     1     -11.462   1.021 -19.235  1.00  0.00    -0.327 N
ATOM      3  H2  UNL     1     -11.204   1.815 -19.822  1.00  0.00     0.169 HD
HETATM    4  C5  UNL     1     -10.883  -0.158 -19.466  1.00  0.00     0.183 A
HETATM    5  N3  UNL     1     -11.144  -1.255 -18.764  1.00  0.00    -0.351 N
ATOM      6  H3  UNL     1     -10.681  -2.140 -18.970  1.00  0.00     0.166 HD
HETATM    7  C6  UNL     1     -12.051  -1.149 -17.763  1.00  0.00     0.053 A
HETATM    8  C7  UNL     1     -12.353  -2.252 -17.000  1.00  0.00     0.078 A
HETATM    9  C8  UNL     1     -13.278  -2.154 -15.961  1.00  0.00     0.102 A
HETATM   10  N5  UNL     1     -13.860  -0.973 -15.727  1.00  0.00    -0.351 N
ATOM     11  H5  UNL     1     -14.538  -0.889 -14.971  1.00  0.00     0.166 HD
HETATM   12  C20 UNL     1     -13.567   0.098 -16.467  1.00  0.00     0.108 A
HETATM   13  C21 UNL     1     -12.670   0.048 -17.493  1.00  0.00     0.064 A
ENDROOT
BRANCH   9  14
HETATM   14  N4  UNL     1     -13.503  -3.222 -15.294  1.00  0.00    -0.376 N
ATOM     15  H4  UNL     1     -13.179  -3.231 -14.327  1.00  0.00     0.161 HD
BRANCH  14  16
HETATM   16  C9  UNL     1     -14.160  -4.406 -15.755  1.00  0.00     0.121 C
BRANCH  16  17
HETATM   17  C10 UNL     1     -15.576  -4.077 -16.151  1.00  0.00     0.020 C
BRANCH  17  18
HETATM   18  C11 UNL     1     -15.804  -4.194 -17.628  1.00  0.00     0.002 C
BRANCH  18  19
HETATM   19  C12 UNL     1     -16.106  -2.845 -18.220  1.00  0.00     0.000 C
BRANCH  19  20
HETATM   20  C13 UNL     1     -15.125  -2.650 -19.363  1.00  0.00     0.004 C
BRANCH  20  21
HETATM   21  C14 UNL     1     -15.383  -1.348 -20.085  1.00  0.00    -0.014 C
HETATM   22  C15 UNL     1     -14.190  -0.968 -20.878  1.00  0.00     0.004 C
HETATM   23  C16 UNL     1     -14.552  -0.957 -22.353  1.00  0.00     0.000 C
HETATM   24  C17 UNL     1     -15.661   0.054 -22.534  1.00  0.00     0.000 C
HETATM   25  C18 UNL     1     -16.919  -0.369 -21.806  1.00  0.00     0.000 C
HETATM   26  C19 UNL     1     -16.656  -1.531 -20.877  1.00  0.00     0.004 C
ENDBRANCH  20  21
ENDBRANCH  19  20
ENDBRANCH  18  19
ENDBRANCH  17  18
ENDBRANCH  16  17
ENDBRANCH  14  16
ENDBRANCH   9  14
BRANCH   1  27
HETATM   27  N1  UNL     1     -12.904   2.267 -18.025  1.00  0.00    -0.414 NA
BRANCH  27  28
HETATM   28  C2  UNL     1     -13.475   3.448 -17.786  1.00  0.00     0.117 C
HETATM   29  C1  UNL     1     -12.576   4.330 -16.896  1.00  0.00     0.060 C
HETATM   30  C3  UNL     1     -13.769   4.324 -19.008  1.00  0.00     0.060 C
BRANCH  28  31
HETATM   31  C22 UNL     1     -14.797   3.369 -17.049  1.00  0.00     0.004 A
HETATM   32  C23 UNL     1     -14.959   3.907 -15.782  1.00  0.00     0.015 A
HETATM   33  C24 UNL     1     -16.207   3.824 -15.197  1.00  0.00     0.043 A
HETATM   34  C25 UNL     1     -17.282   3.238 -15.809  1.00  0.00     0.118 A
HETATM   35  F1  UNL     1     -18.500   3.167 -15.220  1.00  0.00    -0.206 F
HETATM   36  C26 UNL     1     -17.086   2.714 -17.065  1.00  0.00     0.066 A
HETATM   37  C27 UNL     1     -15.841   2.774 -17.697  1.00  0.00     0.046 A
HETATM   38 CL1  UNL     1     -15.702   2.047 -19.266  1.00  0.00    -0.084 Cl
ENDBRANCH  28  31
ENDBRANCH  27  28
ENDBRANCH   1  27
TORSDOF 10
ENDMDL