MODEL 4
REMARK VINA RESULT: -6.933530008      2.983      5.624
REMARK  8 active torsions:
REMARK  status: ('A' for Active; 'I' for Inactive)
REMARK    1  A    between atoms: C5_9  and  N2_10
REMARK    2  A    between atoms: N2_10  and  C6_12
REMARK    3  A    between atoms: C6_12  and  C7_13
REMARK    4  A    between atoms: C7_13  and  C8_14
REMARK    5  A    between atoms: C8_14  and  C9_15
REMARK    6  A    between atoms: C9_15  and  N3_16
REMARK    7  A    between atoms: N3_16  and  C10_19
REMARK    8  A    between atoms: C10_19  and  C11_20
ROOT
HETATM    1  C7  UNL     1     -15.408  -0.483 -19.325  1.00  0.00     0.021 C
ENDROOT
BRANCH   1   2
HETATM    2  C6  UNL     1     -15.435   0.736 -20.276  1.00  0.00     0.121 C
BRANCH   2   3
HETATM    3  N2  UNL     1     -16.179   1.784 -19.771  1.00  0.00    -0.375 N
ATOM      4  H2  UNL     1     -15.892   2.667 -20.195  1.00  0.00     0.161 HD
BRANCH   3   5
HETATM    5  C5  UNL     1     -17.108   1.970 -18.938  1.00  0.00     0.119 A
HETATM    6  N1  UNL     1     -18.362   1.475 -19.295  1.00  0.00    -0.350 N
HETATM    7  C4  UNL     1     -19.373   1.645 -18.453  1.00  0.00     0.109 A
ATOM      8  H1  UNL     1     -18.499   0.993 -20.183  1.00  0.00     0.166 HD
HETATM    9  C3  UNL     1     -19.203   2.307 -17.228  1.00  0.00     0.033 A
HETATM   10  S1  UNL     1     -20.230   2.705 -15.927  1.00  0.00    -0.098 SA
HETATM   11  C22 UNL     1     -17.995   2.810 -16.834  1.00  0.00     0.026 A
HETATM   12  C2  UNL     1     -19.113   3.495 -14.918  1.00  0.00     0.075 A
HETATM   13  C1  UNL     1     -17.946   3.426 -15.636  1.00  0.00     0.053 A
HETATM   14 CL1  UNL     1     -16.482   4.166 -14.897  1.00  0.00    -0.083 Cl
HETATM   15  C21 UNL     1     -16.936   2.615 -17.746  1.00  0.00     0.068 A
HETATM   16 BR1  UNL     1     -15.184   3.285 -17.296  1.00  0.00    -0.046 Br
ENDBRANCH   3   5
ENDBRANCH   2   3
ENDBRANCH   1   2
BRANCH   1  17
HETATM   17  C8  UNL     1     -14.833  -1.651 -20.065  1.00  0.00     0.029 C
BRANCH  17  18
HETATM   18  C9  UNL     1     -13.704  -1.354 -20.974  1.00  0.00     0.232 C
BRANCH  18  19
HETATM   19  N3  UNL     1     -12.449  -1.707 -20.366  1.00  0.00    -0.074 N
ATOM     20  H32 UNL     1     -12.571  -2.358 -19.590  1.00  0.00     0.277 HD
ATOM     21  H31 UNL     1     -11.885  -2.301 -20.973  1.00  0.00     0.277 HD
BRANCH  19  22
HETATM   22  C10 UNL     1     -11.739  -0.520 -19.966  1.00  0.00     0.241 C
BRANCH  22  23
HETATM   23  C11 UNL     1     -11.067  -0.716 -18.609  1.00  0.00     0.045 C
HETATM   24  C12 UNL     1     -10.171   0.446 -18.272  1.00  0.00     0.011 C
HETATM   25  C13 UNL     1     -10.889   1.682 -17.848  1.00  0.00     0.005 C
HETATM   26  C14 UNL     1     -12.322   1.512 -17.474  1.00  0.00     0.039 C
HETATM   27  C15 UNL     1     -12.706   0.170 -17.015  1.00  0.00    -0.051 A
HETATM   28  C16 UNL     1     -13.687   0.035 -16.023  1.00  0.00     0.007 A
HETATM   29  C20 UNL     1     -12.098  -0.928 -17.568  1.00  0.00    -0.046 A
HETATM   30  C17 UNL     1     -14.009  -1.240 -15.634  1.00  0.00     0.001 A
HETATM   31  C18 UNL     1     -13.406  -2.350 -16.183  1.00  0.00     0.001 A
HETATM   32  C19 UNL     1     -12.432  -2.184 -17.169  1.00  0.00     0.008 A
ENDBRANCH  22  23
ENDBRANCH  19  22
ENDBRANCH  18  19
ENDBRANCH  17  18
ENDBRANCH   1  17
TORSDOF 8
ENDMDL