MODEL 2
REMARK VINA RESULT: -4.084479803      1.808      3.731
REMARK  2 active torsions:
REMARK  status: ('A' for Active; 'I' for Inactive)
REMARK    1  A    between atoms: C2_2  and  C3_3
REMARK    2  A    between atoms: C3_3  and  N1_4
ROOT
HETATM    1  N1  UNL     1       5.934 -12.300   8.526  1.00  0.00     0.142 N
HETATM    2  C4  UNL     1       5.291 -12.507   7.246  1.00  0.00     0.507 C
HETATM    3  N2  UNL     1       4.049 -12.094   7.919  1.00  0.00    -0.022 N
ATOM      4  H21 UNL     1       3.138 -12.443   7.621  1.00  0.00     0.281 HD
ATOM      5  H22 UNL     1       3.679 -11.148   7.826  1.00  0.00     0.281 HD
HETATM    6  C5  UNL     1       4.670 -12.547   9.144  1.00  0.00     0.507 C
ENDROOT
BRANCH   1   7
HETATM    7  C3  UNL     1       6.979 -13.251   8.829  1.00  0.00     0.303 C
BRANCH   7   8
HETATM    8  C2  UNL     1       6.909 -13.605  10.273  1.00  0.00    -0.007 C
HETATM    9  C1  UNL     1       7.815 -14.420  10.769  1.00  0.00     0.008 C
ENDBRANCH   7   8
ENDBRANCH   1   7
TORSDOF 2
ENDMDL