MODEL 1
REMARK VINA RESULT: -4.134198448      0.000      0.000
REMARK  2 active torsions:
REMARK  status: ('A' for Active; 'I' for Inactive)
REMARK    1  A    between atoms: C1_4  and  N2_5
REMARK    2  A    between atoms: N2_5  and  C2_7
ROOT
HETATM    1  C2  UNL     1       6.197 -13.182   8.682  1.00  0.00     0.133 C
HETATM    2  C3  UNL     1       5.026 -12.693   9.507  1.00  0.00     0.259 C
HETATM    3  N3  UNL     1       4.507 -12.097   8.286  1.00  0.00    -0.071 N
ATOM      4  H31 UNL     1       3.844 -11.322   8.309  1.00  0.00     0.277 HD
ATOM      5  H32 UNL     1       3.850 -12.596   7.685  1.00  0.00     0.277 HD
HETATM    6  C4  UNL     1       5.905 -11.899   7.896  1.00  0.00     0.259 C
ENDROOT
BRANCH   1   7
HETATM    7  N2  UNL     1       7.461 -13.183   9.362  1.00  0.00    -0.379 N
ATOM      8  H2  UNL     1       7.891 -12.279   9.557  1.00  0.00     0.160 HD
BRANCH   7   9
HETATM    9  C1  UNL     1       8.152 -14.335   9.778  1.00  0.00     0.169 C
HETATM   10  N1  UNL     1       8.109 -14.655  11.010  1.00  0.00    -0.396 N
ATOM     11  H12 UNL     1       7.581 -14.078  11.666  1.00  0.00     0.156 HD
ATOM     12  H11 UNL     1       8.610 -15.490  11.313  1.00  0.00     0.156 HD
ENDBRANCH   7   9
ENDBRANCH   1   7
TORSDOF 2
ENDMDL