MODEL 3
REMARK VINA RESULT: -3.692988916      9.025      9.437
REMARK  2 active torsions:
REMARK  status: ('A' for Active; 'I' for Inactive)
REMARK    1  A    between atoms: C1_4  and  N2_5
REMARK    2  A    between atoms: C2_7  and  C3_8
ROOT
HETATM    1  N2  UNL     1      12.395 -19.751   8.426  1.00  0.00    -0.364 N
ATOM      2  H2  UNL     1      11.934 -18.857   8.593  1.00  0.00     0.165 HD
HETATM    3  C2  UNL     1      12.863 -20.005   7.251  1.00  0.00     0.096 C
ENDROOT
BRANCH   1   4
HETATM    4  C1  UNL     1      12.504 -20.680   9.494  1.00  0.00     0.172 C
HETATM    5  N1  UNL     1      13.206 -20.326  10.512  1.00  0.00    -0.395 N
ATOM      6  H12 UNL     1      13.659 -19.412  10.535  1.00  0.00     0.156 HD
ATOM      7  H11 UNL     1      13.285 -20.993  11.279  1.00  0.00     0.156 HD
ENDBRANCH   1   4
BRANCH   3   8
HETATM    8  C3  UNL     1      12.738 -19.024   6.155  1.00  0.00     0.249 A
HETATM    9  C4  UNL     1      13.849 -18.161   5.844  1.00  0.00     0.271 A
HETATM   10  N3  UNL     1      13.443 -19.293   4.908  1.00  0.00    -0.062 N
ATOM     11  H32 UNL     1      13.902 -20.096   4.479  1.00  0.00     0.278 HD
ATOM     12  H31 UNL     1      13.192 -19.382   3.923  1.00  0.00     0.278 HD
ENDBRANCH   3   8
TORSDOF 2
ENDMDL