MODEL 3
REMARK VINA RESULT: -3.553416486      8.941      9.578
REMARK  3 active torsions:
REMARK  status: ('A' for Active; 'I' for Inactive)
REMARK    1  A    between atoms: N1_2  and  C3_4
REMARK    2  A    between atoms: C4_5  and  N2_6
REMARK    3  A    between atoms: N2_6  and  N3_8
ROOT
HETATM    1  C3  UNL     1      12.250 -19.553   6.676  1.00  0.00     0.107 C
HETATM    2  C4  UNL     1      12.940 -20.012   7.695  1.00  0.00     0.123 C
ENDROOT
BRANCH   2   3
HETATM    3  N2  UNL     1      12.341 -19.926   8.988  1.00  0.00    -0.317 N
ATOM      4  H2  UNL     1      11.451 -19.448   9.130  1.00  0.00     0.185 HD
BRANCH   3   5
HETATM    5  N3  UNL     1      13.020 -20.519  10.046  1.00  0.00    -0.345 N
ATOM      6  H32 UNL     1      14.037 -20.464  10.103  1.00  0.00     0.176 HD
ATOM      7  H31 UNL     1      12.461 -21.003  10.748  1.00  0.00     0.176 HD
ENDBRANCH   3   5
ENDBRANCH   2   3
BRANCH   1   8
HETATM    8  N1  UNL     1      12.826 -19.630   5.381  1.00  0.00    -0.379 N
HETATM    9  C1  UNL     1      12.121 -19.653   4.310  1.00  0.00     0.120 C
HETATM   10  C2  UNL     1      14.290 -19.678   5.341  1.00  0.00     0.154 C
ENDBRANCH   1   8
TORSDOF 3
ENDMDL