MODEL 5
REMARK VINA RESULT: -3.517167001      1.968      3.913
REMARK  2 active torsions:
REMARK  status: ('A' for Active; 'I' for Inactive)
REMARK    1  A    between atoms: C3_4  and  N2_5
REMARK    2  A    between atoms: N2_5  and  C4_7
ROOT
HETATM    1  N2  UNL     1      12.292 -19.416   4.021  1.00  0.00    -0.355 N
ATOM      2  H2  UNL     1      13.093 -19.664   3.439  1.00  0.00     0.162 HD
ENDROOT
BRANCH   1   3
HETATM    3  C3  UNL     1      12.481 -19.068   5.411  1.00  0.00     0.350 A
HETATM    4  N1  UNL     1      13.163 -19.986   6.295  1.00  0.00     0.112 N
HETATM    5  C1  UNL     1      12.715 -19.934   7.697  1.00  0.00     0.312 C
HETATM    6  C2  UNL     1      13.829 -18.704   5.826  1.00  0.00     0.331 A
ENDBRANCH   1   3
BRANCH   1   7
HETATM    7  C4  UNL     1      10.998 -19.409   3.480  1.00  0.00     0.170 C
HETATM    8  N3  UNL     1      10.000 -19.101   4.214  1.00  0.00    -0.395 N
ATOM      9  H32 UNL     1      10.160 -18.862   5.192  1.00  0.00     0.156 HD
ATOM     10  H31 UNL     1       9.058 -19.097   3.820  1.00  0.00     0.156 HD
ENDBRANCH   1   7
TORSDOF 2
ENDMDL