MODEL 4
REMARK VINA RESULT: -3.119136379      1.580      2.411
REMARK  3 active torsions:
REMARK  status: ('A' for Active; 'I' for Inactive)
REMARK    1  A    between atoms: C2_2  and  N1_3
REMARK    2  A    between atoms: N1_3  and  N2_4
REMARK    3  A    between atoms: N1_3  and  C3_7
ROOT
HETATM    1  N1  UNL     1       6.947 -12.938   9.534  1.00  0.00    -0.180 NA
ENDROOT
BRANCH   1   2
HETATM    2  C2  UNL     1       6.028 -12.997   8.463  1.00  0.00     0.078 C
HETATM    3  C1  UNL     1       5.812 -11.935   7.716  1.00  0.00     0.026 C
ENDBRANCH   1   2
BRANCH   1   4
HETATM    4  N2  UNL     1       7.980 -13.835   9.259  1.00  0.00    -0.355 NA
ATOM      5  H22 UNL     1       7.762 -14.405   8.442  1.00  0.00     0.171 HD
ATOM      6  H21 UNL     1       8.817 -13.290   9.053  1.00  0.00     0.171 HD
ENDBRANCH   1   4
BRANCH   1   7
HETATM    7  C3  UNL     1       6.255 -13.299  10.739  1.00  0.00     0.168 C
HETATM    8  S1  UNL     1       4.885 -12.886  10.865  1.00  0.00    -0.078 SA
ENDBRANCH   1   7
TORSDOF 3
ENDMDL