MODEL 1
REMARK VINA RESULT: -4.564049244      0.000      0.000
REMARK  2 active torsions:
REMARK  status: ('A' for Active; 'I' for Inactive)
REMARK    1  A    between atoms: N1_4  and  N2_5
REMARK    2  A    between atoms: N2_5  and  C4_7
ROOT
HETATM    1  N2  UNL     1       7.852 -13.547   9.422  1.00  0.00    -0.294 N
ATOM      2  H2  UNL     1       8.458 -12.929   8.883  1.00  0.00     0.188 HD
ENDROOT
BRANCH   1   3
HETATM    3  N1  UNL     1       6.529 -13.190   9.675  1.00  0.00    -0.289 N
HETATM    4  C2  UNL     1       5.295 -12.676   9.079  1.00  0.00     0.039 A
HETATM    5  C1  UNL     1       4.619 -12.237   8.037  1.00  0.00     0.041 C
HETATM    6  C3  UNL     1       5.351 -13.009  10.526  1.00  0.00     0.206 A
ENDBRANCH   1   3
BRANCH   1   7
HETATM    7  C4  UNL     1       8.347 -14.778   9.921  1.00  0.00     0.190 C
HETATM    8  N3  UNL     1       8.292 -14.965  11.192  1.00  0.00    -0.394 N
ATOM      9  H32 UNL     1       7.906 -14.246  11.803  1.00  0.00     0.156 HD
ATOM     10  H31 UNL     1       8.649 -15.851  11.551  1.00  0.00     0.156 HD
ENDBRANCH   1   7
TORSDOF 2
ENDMDL