MODEL 5
REMARK VINA RESULT: -3.963963096      2.161      3.663
REMARK  2 active torsions:
REMARK  status: ('A' for Active; 'I' for Inactive)
REMARK    1  A    between atoms: C1_4  and  N2_5
REMARK    2  A    between atoms: N2_5  and  C2_7
ROOT
HETATM    1  N2  UNL     1       6.137 -12.352   8.355  1.00  0.00    -0.382 N
ATOM      2  H2  UNL     1       6.890 -11.663   8.371  1.00  0.00     0.160 HD
ENDROOT
BRANCH   1   3
HETATM    3  C1  UNL     1       5.111 -12.179   7.395  1.00  0.00     0.169 C
HETATM    4  N1  UNL     1       3.850 -12.253   7.688  1.00  0.00    -0.396 N
ATOM      5  H12 UNL     1       3.604 -12.444   8.659  1.00  0.00     0.156 HD
ATOM      6  H11 UNL     1       3.112 -12.128   6.997  1.00  0.00     0.156 HD
ENDBRANCH   1   3
BRANCH   1   7
HETATM    7  C2  UNL     1       6.198 -13.421   9.305  1.00  0.00     0.082 A
HETATM    8  C3  UNL     1       6.606 -13.267  10.697  1.00  0.00     0.027 A
HETATM    9  C4  UNL     1       7.621 -13.809   9.700  1.00  0.00     0.027 A
ENDBRANCH   1   7
TORSDOF 2
ENDMDL