MODEL 3
REMARK VINA RESULT: -4.247033084      9.280     10.108
REMARK  3 active torsions:
REMARK  status: ('A' for Active; 'I' for Inactive)
REMARK    1  A    between atoms: N2_4  and  N3_6
REMARK    2  A    between atoms: C1_8  and  N4_9
REMARK    3  A    between atoms: N4_9  and  C2_11
ROOT
HETATM    1  N3  UNL     1      12.485 -19.575   6.847  1.00  0.00    -0.283 N
ATOM      2  H3  UNL     1      12.087 -20.427   6.452  1.00  0.00     0.189 HD
HETATM    3  C1  UNL     1      13.257 -18.831   6.099  1.00  0.00     0.196 C
ENDROOT
BRANCH   3   4
HETATM    4  N4  UNL     1      13.527 -19.217   4.761  1.00  0.00    -0.356 N
ATOM      5  H4  UNL     1      14.454 -19.081   4.358  1.00  0.00     0.162 HD
BRANCH   4   6
HETATM    6  C2  UNL     1      12.463 -19.807   3.978  1.00  0.00     0.310 A
HETATM    7  C3  UNL     1      12.746 -20.873   3.008  1.00  0.00     0.289 A
HETATM    8  N5  UNL     1      12.669 -19.507   2.510  1.00  0.00    -0.049 N
ATOM      9  H52 UNL     1      12.136 -19.026   1.785  1.00  0.00     0.279 HD
ATOM     10  H51 UNL     1      13.282 -18.894   1.973  1.00  0.00     0.279 HD
ENDBRANCH   4   6
ENDBRANCH   3   4
BRANCH   1  11
HETATM   11  N2  UNL     1      12.193 -19.244   8.152  1.00  0.00    -0.248 N
HETATM   12  N1  UNL     1      12.358 -20.089   9.085  1.00  0.00    -0.331 N
ATOM     13  H12 UNL     1      12.711 -21.016   8.851  1.00  0.00     0.178 HD
ATOM     14  H11 UNL     1      12.141 -19.844  10.052  1.00  0.00     0.178 HD
ATOM     15  H2  UNL     1      11.840 -18.313   8.370  1.00  0.00     0.207 HD
ENDBRANCH   1  11
TORSDOF 3
ENDMDL