MODEL 2
REMARK VINA RESULT: -4.980542726      0.756      1.070
REMARK  3 active torsions:
REMARK  status: ('A' for Active; 'I' for Inactive)
REMARK    1  A    between atoms: N2_4  and  N3_6
REMARK    2  A    between atoms: C1_8  and  N4_9
REMARK    3  A    between atoms: N4_9  and  C2_11
ROOT
HETATM    1  N3  UNL     1       7.577 -13.944  10.262  1.00  0.00    -0.283 N
ATOM      2  H3  UNL     1       7.792 -13.726   9.289  1.00  0.00     0.189 HD
HETATM    3  C1  UNL     1       6.462 -13.516  10.720  1.00  0.00     0.194 C
ENDROOT
BRANCH   1   4
HETATM    4  N2  UNL     1       8.515 -14.673  10.961  1.00  0.00    -0.248 N
HETATM    5  N1  UNL     1       8.135 -15.796  11.452  1.00  0.00    -0.331 N
ATOM      6  H12 UNL     1       7.177 -16.121  11.322  1.00  0.00     0.178 HD
ATOM      7  H11 UNL     1       8.829 -16.336  11.970  1.00  0.00     0.178 HD
ATOM      8  H2  UNL     1       9.469 -14.335  11.083  1.00  0.00     0.207 HD
ENDBRANCH   1   4
BRANCH   3   9
HETATM    9  N4  UNL     1       5.619 -12.780   9.861  1.00  0.00    -0.380 N
ATOM     10  H4  UNL     1       4.858 -12.223  10.247  1.00  0.00     0.160 HD
BRANCH   9  11
HETATM   11  C2  UNL     1       5.833 -12.816   8.446  1.00  0.00     0.082 A
HETATM   12  C3  UNL     1       4.708 -12.401   7.575  1.00  0.00     0.027 A
HETATM   13  C4  UNL     1       5.903 -11.502   7.679  1.00  0.00     0.027 A
ENDBRANCH   9  11
ENDBRANCH   3   9
TORSDOF 3
ENDMDL