MODEL 2
REMARK VINA RESULT: -6.353469347      2.253      6.055
REMARK  11 active torsions:
REMARK  status: ('A' for Active; 'I' for Inactive)
REMARK    1  A    between atoms: N1_2  and  C2_3
REMARK    2  A    between atoms: N1_2  and  C10_20
REMARK    3  A    between atoms: C2_3  and  C3_4
REMARK    4  A    between atoms: C3_4  and  C4_5
REMARK    5  A    between atoms: C4_5  and  C5_6
REMARK    6  A    between atoms: C5_6  and  C6_7
REMARK    7  A    between atoms: C6_7  and  O1_8
REMARK    8  A    between atoms: O1_8  and  C7_9
REMARK    9  A    between atoms: C8_10  and  N2_11
REMARK   10  A    between atoms: C10_20  and  C11_21
REMARK   11  A    between atoms: C13_28  and  N9_29
ROOT
HETATM    1  C2  UNL     1       8.870  20.725  12.691  1.00  0.00     0.058 C
ENDROOT
BRANCH   1   2
HETATM    2  N1  UNL     1       7.950  21.756  12.514  1.00  0.00    -0.391 N
HETATM    3  C1  UNL     1       6.776  21.598  11.775  1.00  0.00     0.149 C
BRANCH   2   4
HETATM    4  C10 UNL     1       8.586  23.041  12.484  1.00  0.00     0.198 C
BRANCH   4   5
HETATM    5  C11 UNL     1       9.340  23.409  13.681  1.00  0.00     0.119 A
HETATM    6  N7  UNL     1       8.746  23.796  14.840  1.00  0.00    -0.296 N
HETATM    7  C12 UNL     1       9.458  24.133  15.921  1.00  0.00     0.340 A
ATOM      8  H7  UNL     1       7.727  23.831  14.888  1.00  0.00     0.172 HD
HETATM    9  O2  UNL     1       8.909  24.488  16.984  1.00  0.00    -0.246 OA
HETATM   10  N8  UNL     1      10.793  24.087  15.857  1.00  0.00    -0.141 N
HETATM   11  C13 UNL     1      11.419  23.705  14.713  1.00  0.00     0.681 A
ATOM     12  H8  UNL     1      11.346  24.341  16.675  1.00  0.00     0.189 HD
HETATM   13  N10 UNL     1      10.680  23.375  13.654  1.00  0.00    -0.179 N
ATOM     14  H10 UNL     1      11.149  23.087  12.796  1.00  0.00     0.185 HD
BRANCH  11  15
HETATM   15  N9  UNL     1      12.696  23.659  14.650  1.00  0.00    -0.234 N
ATOM     16  H92 UNL     1      13.256  24.446  14.977  1.00  0.00     0.174 HD
ATOM     17  H91 UNL     1      13.171  22.839  14.273  1.00  0.00     0.174 HD
ENDBRANCH  11  15
ENDBRANCH   4   5
ENDBRANCH   2   4
ENDBRANCH   1   2
BRANCH   1  18
HETATM   18  C3  UNL     1       8.628  19.790  13.821  1.00  0.00     0.044 C
BRANCH  18  19
HETATM   19  C4  UNL     1       9.837  19.477  14.603  1.00  0.00     0.007 C
BRANCH  19  20
HETATM   20  C5  UNL     1       9.937  20.425  15.802  1.00  0.00     0.027 C
BRANCH  20  21
HETATM   21  C6  UNL     1      11.353  20.523  16.245  1.00  0.00     0.170 C
BRANCH  21  22
HETATM   22  O1  UNL     1      11.357  21.390  17.358  1.00  0.00    -0.366 OA
BRANCH  22  23
HETATM   23  C7  UNL     1      12.620  21.293  17.946  1.00  0.00     0.260 C
HETATM   24  C8  UNL     1      12.406  21.285  19.444  1.00  0.00     0.337 C
HETATM   25  N3  UNL     1      12.263  22.631  19.904  1.00  0.00    -0.091 NA
HETATM   26  N4  UNL     1      11.851  23.489  18.900  1.00  0.00    -0.020 NA
HETATM   27  N5  UNL     1      12.819  23.639  17.885  1.00  0.00    -0.036 NA
HETATM   28  N6  UNL     1      13.375  22.440  17.500  1.00  0.00    -0.189 NA
HETATM   29  C9  UNL     1      14.783  22.328  17.684  1.00  0.00     0.136 C
BRANCH  24  30
HETATM   30  N2  UNL     1      11.226  20.471  19.695  1.00  0.00    -0.056 N
ATOM     31  H23 UNL     1      11.214  19.604  19.158  1.00  0.00     0.276 HD
ATOM     32  H22 UNL     1      11.221  20.047  20.622  1.00  0.00     0.276 HD
ATOM     33  H21 UNL     1      10.416  21.065  19.519  1.00  0.00     0.276 HD
ENDBRANCH  24  30
ENDBRANCH  22  23
ENDBRANCH  21  22
ENDBRANCH  20  21
ENDBRANCH  19  20
ENDBRANCH  18  19
ENDBRANCH   1  18
TORSDOF 11
ENDMDL