MODEL 2
REMARK VINA RESULT: -6.861114607      1.973      3.553
REMARK  12 active torsions:
REMARK  status: ('A' for Active; 'I' for Inactive)
REMARK    1  A    between atoms: N1_1  and  C1_4
REMARK    2  A    between atoms: C4_12  and  N4_13
REMARK    3  A    between atoms: N5_16  and  C5_17
REMARK    4  A    between atoms: C6_19  and  C7_20
REMARK    5  A    between atoms: C7_20  and  O3_21
REMARK    6  A    between atoms: C8_23  and  C9_24
REMARK    7  A    between atoms: C9_24  and  N6_25
REMARK    8  A    between atoms: N6_25  and  C10_28
REMARK    9  A    between atoms: C10_28  and  C11_29
REMARK   10  A    between atoms: C11_29  and  C12_30
REMARK   11  A    between atoms: C12_30  and  C13_31
REMARK   12  A    between atoms: C13_31  and  N7_32
ROOT
HETATM    1  C5  UNL     1      11.002  20.812  16.139  1.00  0.00     0.397 C
HETATM    2  O2  UNL     1      10.629  20.177  17.343  1.00  0.00    -0.333 OA
HETATM    3  C6  UNL     1      11.712  20.625  18.141  1.00  0.00     0.180 C
HETATM    4  C8  UNL     1      11.685  22.101  17.752  1.00  0.00     0.183 C
HETATM    5  O4  UNL     1      11.107  22.111  16.494  1.00  0.00    -0.333 OA
ENDROOT
BRANCH   1   6
HETATM    6  N5  UNL     1      10.148  20.476  15.062  1.00  0.00    -0.114 N
HETATM    7  C4  UNL     1       9.807  19.221  14.724  1.00  0.00     0.684 A
HETATM    8  N3  UNL     1       8.984  19.224  13.665  1.00  0.00    -0.182 N
HETATM    9  C3  UNL     1       8.801  20.519  13.324  1.00  0.00     0.163 A
ATOM     10  H3  UNL     1       8.576  18.409  13.206  1.00  0.00     0.184 HD
HETATM   11  C2  UNL     1       8.075  21.154  12.336  1.00  0.00     0.290 A
HETATM   12  C14 UNL     1       9.533  21.297  14.203  1.00  0.00     0.176 A
HETATM   13  N2  UNL     1       8.100  22.496  12.260  1.00  0.00    -0.154 N
HETATM   14  O1  UNL     1       7.406  20.446  11.532  1.00  0.00    -0.265 OA
HETATM   15  C1  UNL     1       8.807  23.266  13.109  1.00  0.00     0.680 A
ATOM     16  H2  UNL     1       7.558  22.952  11.526  1.00  0.00     0.187 HD
HETATM   17  N8  UNL     1       9.509  22.634  14.063  1.00  0.00    -0.173 N
ATOM     18  H8  UNL     1      10.052  23.198  14.718  1.00  0.00     0.186 HD
BRANCH   7  19
HETATM   19  N4  UNL     1      10.206  18.132  15.326  1.00  0.00    -0.234 N
ATOM     20  H42 UNL     1       9.601  17.418  15.730  1.00  0.00     0.174 HD
ATOM     21  H41 UNL     1      11.188  17.885  15.452  1.00  0.00     0.174 HD
ENDBRANCH   7  19
BRANCH  15  22
HETATM   22  N1  UNL     1       8.786  24.559  12.978  1.00  0.00    -0.234 N
ATOM     23  H12 UNL     1       8.338  25.035  12.195  1.00  0.00     0.174 HD
ATOM     24  H11 UNL     1       9.234  25.147  13.681  1.00  0.00     0.174 HD
ENDBRANCH  15  22
ENDBRANCH   1   6
BRANCH   3  25
HETATM   25  C7  UNL     1      11.482  20.413  19.595  1.00  0.00     0.198 C
BRANCH  25  26
HETATM   26  O3  UNL     1      12.568  19.708  20.120  1.00  0.00    -0.398 OA
ATOM     27  H3  UNL     1      12.398  18.778  20.028  1.00  0.00     0.209 HD
ENDBRANCH  25  26
ENDBRANCH   3  25
BRANCH   4  28
HETATM   28  C9  UNL     1      13.080  22.673  17.636  1.00  0.00     0.266 C
BRANCH  28  29
HETATM   29  N6  UNL     1      13.134  23.907  18.350  1.00  0.00    -0.073 N
ATOM     30  H62 UNL     1      14.049  24.054  18.775  1.00  0.00     0.277 HD
ATOM     31  H61 UNL     1      13.125  24.707  17.718  1.00  0.00     0.277 HD
BRANCH  29  32
HETATM   32  C10 UNL     1      12.083  23.990  19.318  1.00  0.00     0.232 C
BRANCH  32  33
HETATM   33  C11 UNL     1      12.506  24.672  20.589  1.00  0.00     0.029 C
BRANCH  33  34
HETATM   34  C12 UNL     1      12.807  23.631  21.628  1.00  0.00     0.029 C
BRANCH  34  35
HETATM   35  C13 UNL     1      14.267  23.308  21.703  1.00  0.00     0.229 C
BRANCH  35  36
HETATM   36  N7  UNL     1      14.414  21.898  21.274  1.00  0.00    -0.079 N
ATOM     37  H73 UNL     1      14.066  21.230  21.962  1.00  0.00     0.274 HD
ATOM     38  H72 UNL     1      13.784  21.640  20.515  1.00  0.00     0.274 HD
ATOM     39  H71 UNL     1      15.399  21.762  21.044  1.00  0.00     0.274 HD
ENDBRANCH  35  36
ENDBRANCH  34  35
ENDBRANCH  33  34
ENDBRANCH  32  33
ENDBRANCH  29  32
ENDBRANCH  28  29
ENDBRANCH   4  28
TORSDOF 12
ENDMDL