MODEL 5
REMARK VINA RESULT: -6.248060319      1.964      2.463
REMARK  15 active torsions:
REMARK  status: ('A' for Active; 'I' for Inactive)
REMARK    1  A    between atoms: N1_1  and  C1_4
REMARK    2  A    between atoms: C2_7  and  C3_8
REMARK    3  A    between atoms: C4_10  and  O2_11
REMARK    4  A    between atoms: C5_13  and  O3_14
REMARK    5  A    between atoms: C6_16  and  O4_17
REMARK    6  A    between atoms: C7_21  and  N4_22
REMARK    7  A    between atoms: N4_22  and  N5_24
REMARK    8  A    between atoms: C8_26  and  C9_27
REMARK    9  A    between atoms: C9_27  and  C10_28
REMARK   10  A    between atoms: C10_28  and  C11_29
REMARK   11  A    between atoms: C11_29  and  C12_30
REMARK   12  A    between atoms: C12_30  and  C13_31
REMARK   13  A    between atoms: C13_31  and  C14_32
REMARK   14  A    between atoms: C14_32  and  C15_33
REMARK   15  A    between atoms: C15_33  and  N6_34
ROOT
HETATM    1  C1  UNL     1       8.224  20.423  12.307  1.00  0.00     0.691 A
HETATM    2  N2  UNL     1       8.175  21.759  12.373  1.00  0.00    -0.177 N
ATOM      3  H2  UNL     1       7.586  22.266  11.712  1.00  0.00     0.185 HD
HETATM    4  C2  UNL     1       8.890  22.465  13.300  1.00  0.00     0.145 A
HETATM    5  N3  UNL     1       9.632  21.738  14.127  1.00  0.00    -0.175 N
ATOM      6  H3  UNL     1      10.180  22.229  14.834  1.00  0.00     0.185 HD
HETATM    7  C7  UNL     1       9.705  20.398  14.091  1.00  0.00     0.712 A
HETATM    8  N7  UNL     1       8.999  19.725  13.177  1.00  0.00    -0.021 N
ATOM      9  H7  UNL     1       9.041  18.707  13.135  1.00  0.00     0.203 HD
ENDROOT
BRANCH   7  10
HETATM   10  N4  UNL     1      10.437  19.746  14.912  1.00  0.00    -0.132 N
ATOM     11  H4  UNL     1      11.402  20.059  15.022  1.00  0.00     0.205 HD
BRANCH  10  12
HETATM   12  N5  UNL     1      10.046  18.665  15.658  1.00  0.00    -0.301 N
HETATM   13  C8  UNL     1      10.505  18.492  16.834  1.00  0.00     0.080 C
ATOM     14  H5  UNL     1       9.382  17.995  15.269  1.00  0.00     0.186 HD
BRANCH  13  15
HETATM   15  C9  UNL     1      11.464  19.459  17.400  1.00  0.00     0.046 C
BRANCH  15  16
HETATM   16  C10 UNL     1      10.850  19.952  18.718  1.00  0.00     0.005 C
BRANCH  16  17
HETATM   17  C11 UNL     1      11.862  20.745  19.505  1.00  0.00     0.000 C
BRANCH  17  18
HETATM   18  C12 UNL     1      13.087  20.928  18.662  1.00  0.00     0.000 C
BRANCH  18  19
HETATM   19  C13 UNL     1      14.340  20.470  19.350  1.00  0.00     0.002 C
BRANCH  19  20
HETATM   20  C14 UNL     1      14.331  20.823  20.823  1.00  0.00     0.027 C
BRANCH  20  21
HETATM   21  C15 UNL     1      14.748  19.581  21.602  1.00  0.00     0.229 C
BRANCH  21  22
HETATM   22  N6  UNL     1      13.784  18.541  21.320  1.00  0.00    -0.079 N
ATOM     23  H63 UNL     1      12.825  18.826  21.517  1.00  0.00     0.274 HD
ATOM     24  H62 UNL     1      13.671  18.365  20.321  1.00  0.00     0.274 HD
ATOM     25  H61 UNL     1      14.065  17.709  21.839  1.00  0.00     0.274 HD
ENDBRANCH  21  22
ENDBRANCH  20  21
ENDBRANCH  19  20
ENDBRANCH  18  19
ENDBRANCH  17  18
ENDBRANCH  16  17
ENDBRANCH  15  16
ENDBRANCH  13  15
ENDBRANCH  10  12
ENDBRANCH   7  10
BRANCH   4  26
HETATM   26  C3  UNL     1       8.764  23.943  13.306  1.00  0.00     0.224 C
HETATM   27  O1  UNL     1       9.297  24.412  12.100  1.00  0.00    -0.343 OA
HETATM   28  C4  UNL     1       9.715  25.714  12.379  1.00  0.00     0.289 C
HETATM   29  C5  UNL     1      10.455  25.543  13.680  1.00  0.00     0.204 C
HETATM   30  C6  UNL     1       9.621  24.507  14.390  1.00  0.00     0.188 C
BRANCH  28  31
HETATM   31  O2  UNL     1       8.610  26.547  12.594  1.00  0.00    -0.368 OA
ATOM     32  H2  UNL     1       8.894  27.439  12.756  1.00  0.00     0.212 HD
ENDBRANCH  28  31
BRANCH  29  33
HETATM   33  O3  UNL     1      11.717  24.986  13.465  1.00  0.00    -0.388 OA
ATOM     34  H3  UNL     1      11.750  24.091  13.781  1.00  0.00     0.210 HD
ENDBRANCH  29  33
BRANCH  30  35
HETATM   35  O4  UNL     1       8.862  25.108  15.400  1.00  0.00    -0.390 OA
ATOM     36  H4  UNL     1       9.357  25.764  15.876  1.00  0.00     0.210 HD
ENDBRANCH  30  35
ENDBRANCH   4  26
BRANCH   1  37
HETATM   37  N1  UNL     1       7.552  19.755  11.435  1.00  0.00    -0.234 N
ATOM     38  H12 UNL     1       7.207  18.834  11.704  1.00  0.00     0.174 HD
ATOM     39  H11 UNL     1       7.362  20.121  10.503  1.00  0.00     0.174 HD
ENDBRANCH   1  37
TORSDOF 15
ENDMDL