MODEL 5
REMARK VINA RESULT: -6.166245062      4.703      5.917
REMARK  14 active torsions:
REMARK  status: ('A' for Active; 'I' for Inactive)
REMARK    1  A    between atoms: N1_1  and  C1_4
REMARK    2  A    between atoms: C2_7  and  C3_8
REMARK    3  A    between atoms: C3_8  and  C4_9
REMARK    4  A    between atoms: C4_9  and  C5_10
REMARK    5  A    between atoms: C5_10  and  C6_11
REMARK    6  A    between atoms: C6_11  and  C7_12
REMARK    7  A    between atoms: C7_12  and  C8_13
REMARK    8  A    between atoms: C8_13  and  N3_14
REMARK    9  A    between atoms: N3_14  and  C9_17
REMARK   10  A    between atoms: C10_19  and  C11_20
REMARK   11  A    between atoms: C11_20  and  O2_21
REMARK   12  A    between atoms: C12_23  and  O3_24
REMARK   13  A    between atoms: C13_26  and  O4_27
REMARK   14  A    between atoms: C14_31  and  N5_32
ROOT
HETATM    1  C5  UNL     1      11.505  19.091  18.144  1.00  0.00     0.000 C
ENDROOT
BRANCH   1   2
HETATM    2  C4  UNL     1      12.746  19.227  18.948  1.00  0.00     0.007 C
BRANCH   2   3
HETATM    3  C3  UNL     1      13.492  17.911  19.067  1.00  0.00     0.077 C
BRANCH   3   4
HETATM    4  C2  UNL     1      14.756  18.047  19.817  1.00  0.00     0.113 A
HETATM    5  N2  UNL     1      15.813  18.598  19.202  1.00  0.00    -0.180 N
HETATM    6  C1  UNL     1      16.986  18.757  19.836  1.00  0.00     0.691 A
ATOM      7  H2  UNL     1      15.723  18.903  18.232  1.00  0.00     0.185 HD
HETATM    8  N6  UNL     1      17.076  18.348  21.107  1.00  0.00    -0.023 N
HETATM    9  C14 UNL     1      16.026  17.804  21.709  1.00  0.00     0.691 A
ATOM     10  H6  UNL     1      17.954  18.455  21.614  1.00  0.00     0.203 HD
HETATM   11  N4  UNL     1      14.846  17.636  21.094  1.00  0.00    -0.180 N
ATOM     12  H4  UNL     1      14.051  17.215  21.574  1.00  0.00     0.185 HD
BRANCH   6  13
HETATM   13  N1  UNL     1      18.001  19.283  19.259  1.00  0.00    -0.234 N
ATOM     14  H12 UNL     1      18.753  18.689  18.911  1.00  0.00     0.174 HD
ATOM     15  H11 UNL     1      18.087  20.292  19.132  1.00  0.00     0.174 HD
ENDBRANCH   6  13
BRANCH   9  16
HETATM   16  N5  UNL     1      16.174  17.428  22.941  1.00  0.00    -0.234 N
ATOM     17  H52 UNL     1      16.384  18.151  23.630  1.00  0.00     0.174 HD
ATOM     18  H51 UNL     1      16.081  16.443  23.189  1.00  0.00     0.174 HD
ENDBRANCH   9  16
ENDBRANCH   3   4
ENDBRANCH   2   3
ENDBRANCH   1   2
BRANCH   1  19
HETATM   19  C6  UNL     1      11.516  20.070  16.999  1.00  0.00     0.002 C
BRANCH  19  20
HETATM   20  C7  UNL     1      10.126  20.313  16.519  1.00  0.00     0.027 C
BRANCH  20  21
HETATM   21  C8  UNL     1       9.850  19.612  15.194  1.00  0.00     0.235 C
BRANCH  21  22
HETATM   22  N3  UNL     1      10.259  20.399  14.066  1.00  0.00    -0.046 N
ATOM     23  H32 UNL     1      11.068  20.984  14.275  1.00  0.00     0.280 HD
ATOM     24  H31 UNL     1      10.677  19.832  13.329  1.00  0.00     0.280 HD
BRANCH  22  25
HETATM   25  C9  UNL     1       9.149  21.159  13.599  1.00  0.00     0.353 C
HETATM   26  O1  UNL     1       9.462  22.337  12.952  1.00  0.00    -0.347 OA
HETATM   27  C10 UNL     1       8.173  22.780  12.599  1.00  0.00     0.179 C
HETATM   28  C12 UNL     1       7.690  21.590  11.799  1.00  0.00     0.182 C
HETATM   29  C13 UNL     1       8.262  20.443  12.618  1.00  0.00     0.205 C
BRANCH  27  30
HETATM   30  C11 UNL     1       8.202  24.012  11.736  1.00  0.00     0.198 C
BRANCH  30  31
HETATM   31  O2  UNL     1       7.017  23.988  10.981  1.00  0.00    -0.398 OA
ATOM     32  H2  UNL     1       6.385  24.506  11.466  1.00  0.00     0.209 HD
ENDBRANCH  30  31
ENDBRANCH  27  30
BRANCH  28  33
HETATM   33  O3  UNL     1       6.296  21.569  11.782  1.00  0.00    -0.390 OA
ATOM     34  H3  UNL     1       5.979  20.886  12.362  1.00  0.00     0.210 HD
ENDBRANCH  28  33
BRANCH  29  35
HETATM   35  O4  UNL     1       8.924  19.526  11.829  1.00  0.00    -0.388 OA
ATOM     36  H4  UNL     1       9.806  19.786  11.591  1.00  0.00     0.210 HD
ENDBRANCH  29  35
ENDBRANCH  22  25
ENDBRANCH  21  22
ENDBRANCH  20  21
ENDBRANCH  19  20
ENDBRANCH   1  19
TORSDOF 14
ENDMDL