MODEL 1
REMARK VINA RESULT: -6.272328494      0.000      0.000
REMARK  15 active torsions:
REMARK  status: ('A' for Active; 'I' for Inactive)
REMARK    1  A    between atoms: N1_2  and  C2_4
REMARK    2  A    between atoms: C2_4  and  C3_5
REMARK    3  A    between atoms: C2_4  and  N8_24
REMARK    4  A    between atoms: C3_5  and  N2_6
REMARK    5  A    between atoms: C6_11  and  N4_12
REMARK    6  A    between atoms: C7_17  and  N6_18
REMARK    7  A    between atoms: N8_24  and  C9_26
REMARK    8  A    between atoms: C9_26  and  C10_27
REMARK    9  A    between atoms: C10_27  and  S1_28
REMARK   10  A    between atoms: S1_28  and  C11_29
REMARK   11  A    between atoms: C11_29  and  C12_30
REMARK   12  A    between atoms: C12_30  and  C13_31
REMARK   13  A    between atoms: C13_31  and  N9_32
REMARK   14  A    between atoms: C13_31  and  N10_36
REMARK   15  A    between atoms: N10_36  and  N11_38
ROOT
HETATM    1  C2  UNL     1      11.347  23.695  15.770  1.00  0.00     0.091 C
ENDROOT
BRANCH   1   2
HETATM    2  N1  UNL     1      12.012  23.936  14.693  1.00  0.00    -0.383 N
HETATM    3  C1  UNL     1      12.912  23.025  14.057  1.00  0.00     0.147 C
ATOM      4  H1  UNL     1      11.887  24.851  14.259  1.00  0.00     0.160 HD
ENDBRANCH   1   2
BRANCH   1   5
HETATM    5  C3  UNL     1       9.863  23.774  15.686  1.00  0.00     0.207 C
BRANCH   5   6
HETATM    6  N2  UNL     1       9.350  23.004  14.586  1.00  0.00    -0.320 N
HETATM    7  C4  UNL     1       8.778  23.559  13.487  1.00  0.00     0.185 A
HETATM    8  N3  UNL     1       8.431  22.536  12.698  1.00  0.00    -0.346 N
HETATM    9  C5  UNL     1       8.780  21.362  13.288  1.00  0.00     0.123 A
ATOM     10  H3  UNL     1       7.974  22.624  11.790  1.00  0.00     0.167 HD
HETATM   11  C6  UNL     1       8.630  20.059  12.868  1.00  0.00     0.145 A
HETATM   12  C8  UNL     1       9.367  21.674  14.496  1.00  0.00     0.155 A
HETATM   13  N5  UNL     1       9.085  19.082  13.688  1.00  0.00    -0.175 N
HETATM   14  C7  UNL     1       9.664  19.360  14.877  1.00  0.00     0.679 A
ATOM     15  H5  UNL     1       8.988  18.108  13.401  1.00  0.00     0.186 HD
HETATM   16  N7  UNL     1       9.797  20.641  15.263  1.00  0.00    -0.174 N
ATOM     17  H7  UNL     1      10.236  20.842  16.162  1.00  0.00     0.186 HD
BRANCH  11  18
HETATM   18  N4  UNL     1       8.081  19.822  11.742  1.00  0.00    -0.383 N
ATOM     19  H42 UNL     1       7.676  20.552  11.156  1.00  0.00     0.157 HD
ATOM     20  H41 UNL     1       8.034  18.863  11.399  1.00  0.00     0.157 HD
ENDBRANCH  11  18
BRANCH  14  21
HETATM   21  N6  UNL     1      10.067  18.364  15.594  1.00  0.00    -0.234 N
ATOM     22  H62 UNL     1      10.009  17.395  15.281  1.00  0.00     0.174 HD
ATOM     23  H61 UNL     1      10.459  18.572  16.512  1.00  0.00     0.174 HD
ENDBRANCH  14  21
ENDBRANCH   5   6
ENDBRANCH   1   5
BRANCH   1  24
HETATM   24  N8  UNL     1      12.005  23.367  16.978  1.00  0.00    -0.378 N
ATOM     25  H8  UNL     1      13.025  23.378  17.003  1.00  0.00     0.160 HD
BRANCH  24  26
HETATM   26  C9  UNL     1      11.286  23.018  18.175  1.00  0.00     0.131 C
BRANCH  26  27
HETATM   27  C10 UNL     1      11.923  21.804  18.855  1.00  0.00     0.093 C
BRANCH  27  28
HETATM   28  S1  UNL     1      10.844  20.390  18.860  1.00  0.00    -0.167 SA
BRANCH  28  29
HETATM   29  C11 UNL     1      11.611  18.799  18.868  1.00  0.00     0.077 C
BRANCH  29  30
HETATM   30  C12 UNL     1      13.093  18.738  18.746  1.00  0.00     0.066 C
BRANCH  30  31
HETATM   31  C13 UNL     1      13.762  18.079  19.929  1.00  0.00     0.296 C
BRANCH  31  32
HETATM   32  N9  UNL     1      13.471  16.661  20.020  1.00  0.00    -0.057 N
ATOM     33  H93 UNL     1      12.477  16.501  20.180  1.00  0.00     0.276 HD
ATOM     34  H92 UNL     1      13.567  16.210  19.110  1.00  0.00     0.276 HD
ATOM     35  H91 UNL     1      14.036  16.187  20.725  1.00  0.00     0.276 HD
ENDBRANCH  31  32
BRANCH  31  36
HETATM   36  N10 UNL     1      13.500  18.802  21.123  1.00  0.00    -0.313 N
ATOM     37  H10 UNL     1      12.584  19.201  21.329  1.00  0.00     0.182 HD
BRANCH  36  38
HETATM   38  N11 UNL     1      14.580  18.930  21.992  1.00  0.00    -0.348 N
ATOM     39 2H11 UNL     1      15.447  18.413  21.842  1.00  0.00     0.176 HD
ATOM     40 1H11 UNL     1      14.438  19.569  22.773  1.00  0.00     0.176 HD
ENDBRANCH  36  38
ENDBRANCH  31  36
ENDBRANCH  30  31
ENDBRANCH  29  30
ENDBRANCH  28  29
ENDBRANCH  27  28
ENDBRANCH  26  27
ENDBRANCH  24  26
ENDBRANCH   1  24
TORSDOF 15
ENDMDL