MODEL 3
REMARK VINA RESULT: -6.472422034      1.991      3.585
REMARK  14 active torsions:
REMARK  status: ('A' for Active; 'I' for Inactive)
REMARK    1  A    between atoms: N1_1  and  C1_4
REMARK    2  A    between atoms: C2_7  and  O1_8
REMARK    3  A    between atoms: O1_8  and  C3_9
REMARK    4  A    between atoms: C4_11  and  C5_12
REMARK    5  A    between atoms: C5_12  and  O3_13
REMARK    6  A    between atoms: C6_15  and  O4_16
REMARK    7  A    between atoms: C7_18  and  O5_19
REMARK    8  A    between atoms: C9_23  and  N4_24
REMARK    9  A    between atoms: N4_24  and  C10_26
REMARK   10  A    between atoms: C10_26  and  C11_27
REMARK   11  A    between atoms: C11_27  and  C12_28
REMARK   12  A    between atoms: C12_28  and  C13_29
REMARK   13  A    between atoms: C13_29  and  C14_30
REMARK   14  A    between atoms: C14_30  and  N5_31
ROOT
HETATM    1  C1  UNL     1      13.266  23.285  17.950  1.00  0.00     0.679 A
HETATM    2  N2  UNL     1      12.289  23.559  17.084  1.00  0.00    -0.169 N
ATOM      3  H2  UNL     1      12.399  24.321  16.416  1.00  0.00     0.186 HD
HETATM    4  C2  UNL     1      11.162  22.834  17.092  1.00  0.00     0.188 A
HETATM    5  C8  UNL     1      10.997  21.774  18.011  1.00  0.00     0.142 A
HETATM    6  N3  UNL     1       9.808  21.009  18.018  1.00  0.00    -0.094 NA
HETATM    7  C9  UNL     1      12.018  21.517  18.886  1.00  0.00     0.145 A
HETATM    8  N6  UNL     1      13.122  22.279  18.831  1.00  0.00    -0.175 N
ATOM      9  H6  UNL     1      13.882  22.087  19.483  1.00  0.00     0.186 HD
ENDROOT
BRANCH   4  10
HETATM   10  O1  UNL     1      10.112  23.062  16.225  1.00  0.00    -0.299 OA
BRANCH  10  11
HETATM   11  C3  UNL     1      10.101  22.788  14.881  1.00  0.00     0.300 C
HETATM   12  O2  UNL     1       9.734  21.435  14.670  1.00  0.00    -0.348 OA
HETATM   13  C4  UNL     1       9.493  21.365  13.293  1.00  0.00     0.179 C
HETATM   14  C6  UNL     1       8.740  22.621  12.954  1.00  0.00     0.182 C
HETATM   15  C7  UNL     1       8.997  23.522  14.127  1.00  0.00     0.205 C
BRANCH  13  16
HETATM   16  C5  UNL     1       8.678  20.112  13.039  1.00  0.00     0.198 C
BRANCH  16  17
HETATM   17  O3  UNL     1       8.745  19.734  11.713  1.00  0.00    -0.398 OA
ATOM     18  H3  UNL     1       7.899  19.821  11.289  1.00  0.00     0.209 HD
ENDBRANCH  16  17
ENDBRANCH  13  16
BRANCH  14  19
HETATM   19  O4  UNL     1       7.399  22.409  12.712  1.00  0.00    -0.390 OA
ATOM     20  H4  UNL     1       7.102  22.767  11.884  1.00  0.00     0.210 HD
ENDBRANCH  14  19
BRANCH  15  21
HETATM   21  O5  UNL     1       7.869  23.708  14.882  1.00  0.00    -0.388 OA
ATOM     22  H5  UNL     1       7.514  24.586  14.806  1.00  0.00     0.210 HD
ENDBRANCH  15  21
ENDBRANCH  10  11
ENDBRANCH   4  10
BRANCH   1  23
HETATM   23  N1  UNL     1      14.346  24.008  17.918  1.00  0.00    -0.234 N
ATOM     24  H12 UNL     1      14.877  24.134  17.056  1.00  0.00     0.174 HD
ATOM     25  H11 UNL     1      14.660  24.456  18.779  1.00  0.00     0.174 HD
ENDBRANCH   1  23
BRANCH   7  26
HETATM   26  N4  UNL     1      11.957  20.563  19.769  1.00  0.00    -0.374 N
ATOM     27  H4  UNL     1      11.073  20.380  20.244  1.00  0.00     0.161 HD
BRANCH  26  28
HETATM   28  C10 UNL     1      13.109  19.758  20.095  1.00  0.00     0.121 C
BRANCH  28  29
HETATM   29  C11 UNL     1      13.040  18.475  19.312  1.00  0.00     0.020 C
BRANCH  29  30
HETATM   30  C12 UNL     1      14.178  17.557  19.661  1.00  0.00     0.003 C
BRANCH  30  31
HETATM   31  C13 UNL     1      15.455  18.290  19.970  1.00  0.00     0.027 C
BRANCH  31  32
HETATM   32  C14 UNL     1      16.080  17.574  21.175  1.00  0.00     0.229 C
BRANCH  32  33
HETATM   33  N5  UNL     1      15.561  18.272  22.352  1.00  0.00    -0.079 N
ATOM     34  H53 UNL     1      14.566  18.122  22.513  1.00  0.00     0.274 HD
ATOM     35  H52 UNL     1      15.886  17.883  23.237  1.00  0.00     0.274 HD
ATOM     36  H51 UNL     1      15.813  19.252  22.217  1.00  0.00     0.274 HD
ENDBRANCH  32  33
ENDBRANCH  31  32
ENDBRANCH  30  31
ENDBRANCH  29  30
ENDBRANCH  28  29
ENDBRANCH  26  28
ENDBRANCH   7  26
TORSDOF 14
ENDMDL