MODEL 1
REMARK VINA RESULT: -6.985136293      0.000      0.000
REMARK  13 active torsions:
REMARK  status: ('A' for Active; 'I' for Inactive)
REMARK    1  A    between atoms: N1_1  and  C1_4
REMARK    2  A    between atoms: C2_7  and  N3_8
REMARK    3  A    between atoms: N6_16  and  C4_17
REMARK    4  A    between atoms: C6_22  and  C7_23
REMARK    5  A    between atoms: C7_23  and  C8_24
REMARK    6  A    between atoms: C8_24  and  C9_25
REMARK    7  A    between atoms: C9_25  and  N8_26
REMARK    8  A    between atoms: N8_26  and  C10_29
REMARK    9  A    between atoms: C10_29  and  C11_30
REMARK   10  A    between atoms: C11_30  and  C12_31
REMARK   11  A    between atoms: C12_31  and  C13_32
REMARK   12  A    between atoms: C13_32  and  N9_33
REMARK   13  A    between atoms: C14_37  and  O1_38
ROOT
HETATM    1  C4  UNL     1      10.726  20.402  16.958  1.00  0.00     0.168 C
HETATM    2  C5  UNL     1      12.165  20.799  16.700  1.00  0.00     0.262 C
HETATM    3  N7  UNL     1      12.791  20.774  17.985  1.00  0.00    -0.066 N
ATOM      4  H71 UNL     1      13.002  21.709  18.334  1.00  0.00     0.277 HD
ATOM      5  H72 UNL     1      13.747  20.419  17.946  1.00  0.00     0.277 HD
HETATM    6  C6  UNL     1      11.965  20.025  18.887  1.00  0.00     0.216 C
HETATM    7  C14 UNL     1      10.904  19.347  18.027  1.00  0.00     0.175 C
ENDROOT
BRANCH   1   8
HETATM    8  N6  UNL     1      10.115  19.889  15.764  1.00  0.00    -0.251 N
HETATM    9  N5  UNL     1       9.949  18.658  15.342  1.00  0.00    -0.238 N
HETATM   10  N4  UNL     1       9.328  18.637  14.174  1.00  0.00    -0.279 N
ATOM     11  H5  UNL     1      10.257  17.827  15.847  1.00  0.00     0.208 HD
HETATM   12  C3  UNL     1       9.065  19.904  13.793  1.00  0.00     0.140 A
ATOM     13  H4  UNL     1       9.088  17.798  13.647  1.00  0.00     0.189 HD
HETATM   14  C2  UNL     1       8.465  20.506  12.722  1.00  0.00     0.147 A
HETATM   15  C15 UNL     1       9.578  20.692  14.827  1.00  0.00     0.171 A
HETATM   16  N2  UNL     1       8.384  21.841  12.688  1.00  0.00    -0.175 N
HETATM   17  C1  UNL     1       8.866  22.631  13.664  1.00  0.00     0.679 A
ATOM     18  H2  UNL     1       7.935  22.281  11.884  1.00  0.00     0.186 HD
HETATM   19  N10 UNL     1       9.455  22.036  14.717  1.00  0.00    -0.173 N
ATOM     20  H10 UNL     1       9.826  22.623  15.465  1.00  0.00     0.186 HD
BRANCH  14  21
HETATM   21  N3  UNL     1       7.993  19.789  11.771  1.00  0.00    -0.383 N
ATOM     22  H32 UNL     1       6.988  19.628  11.709  1.00  0.00     0.157 HD
ATOM     23  H31 UNL     1       8.606  19.373  11.069  1.00  0.00     0.157 HD
ENDBRANCH  14  21
BRANCH  17  24
HETATM   24  N1  UNL     1       8.760  23.913  13.582  1.00  0.00    -0.234 N
ATOM     25  H12 UNL     1       9.394  24.467  13.005  1.00  0.00     0.174 HD
ATOM     26  H11 UNL     1       8.032  24.408  14.097  1.00  0.00     0.174 HD
ENDBRANCH  17  24
ENDBRANCH   1   8
BRANCH   7  27
HETATM   27  O1  UNL     1      11.366  18.158  17.501  1.00  0.00    -0.391 OA
ATOM     28  H1  UNL     1      11.800  17.627  18.158  1.00  0.00     0.210 HD
ENDBRANCH   7  27
BRANCH   6  29
HETATM   29  C7  UNL     1      12.837  19.011  19.585  1.00  0.00     0.037 C
BRANCH  29  30
HETATM   30  C8  UNL     1      14.243  19.574  19.610  1.00  0.00     0.029 C
BRANCH  30  31
HETATM   31  C9  UNL     1      14.557  19.893  21.063  1.00  0.00     0.232 C
BRANCH  31  32
HETATM   32  N8  UNL     1      14.666  18.647  21.767  1.00  0.00    -0.075 N
ATOM     33  H82 UNL     1      13.788  18.378  22.210  1.00  0.00     0.277 HD
ATOM     34  H81 UNL     1      14.758  17.854  21.132  1.00  0.00     0.277 HD
BRANCH  32  35
HETATM   35  C10 UNL     1      15.743  18.714  22.704  1.00  0.00     0.232 C
BRANCH  35  36
HETATM   36  C11 UNL     1      16.815  17.725  22.259  1.00  0.00     0.029 C
BRANCH  36  37
HETATM   37  C12 UNL     1      17.926  18.518  21.628  1.00  0.00     0.029 C
BRANCH  37  38
HETATM   38  C13 UNL     1      18.020  18.222  20.137  1.00  0.00     0.229 C
BRANCH  38  39
HETATM   39  N9  UNL     1      18.059  19.431  19.358  1.00  0.00    -0.079 N
ATOM     40  H93 UNL     1      18.298  20.238  19.934  1.00  0.00     0.274 HD
ATOM     41  H92 UNL     1      18.860  19.442  18.728  1.00  0.00     0.274 HD
ATOM     42  H91 UNL     1      17.186  19.580  18.852  1.00  0.00     0.274 HD
ENDBRANCH  38  39
ENDBRANCH  37  38
ENDBRANCH  36  37
ENDBRANCH  35  36
ENDBRANCH  32  35
ENDBRANCH  31  32
ENDBRANCH  30  31
ENDBRANCH  29  30
ENDBRANCH   6  29
TORSDOF 13
ENDMDL