MODEL 2
REMARK VINA RESULT: -6.534988432      1.802      2.219
REMARK  11 active torsions:
REMARK  status: ('A' for Active; 'I' for Inactive)
REMARK    1  A    between atoms: C2_2  and  N1_3
REMARK    2  A    between atoms: N1_3  and  C4_5
REMARK    3  A    between atoms: C4_5  and  C5_6
REMARK    4  A    between atoms: C5_6  and  N2_7
REMARK    5  A    between atoms: N2_7  and  N3_8
REMARK    6  A    between atoms: N2_7  and  C6_11
REMARK    7  A    between atoms: C6_11  and  C7_12
REMARK    8  A    between atoms: C7_12  and  C8_13
REMARK    9  A    between atoms: C8_13  and  N4_14
REMARK   10  A    between atoms: C9_15  and  N5_16
REMARK   11  A    between atoms: C11_22  and  N7_23
REMARK       I    between atoms: N7_23  and  C12_25
REMARK       I    between atoms: C12_25  and  N8_26
REMARK       I    between atoms: C12_25  and  N9_30
ROOT
HETATM    1  N4  UNL     1      10.119  23.460  14.587  1.00  0.00    -0.166 N
HETATM    2  C9  UNL     1       9.704  24.046  15.738  1.00  0.00     0.680 A
HETATM    3  N6  UNL     1      10.707  24.007  16.625  1.00  0.00    -0.184 N
ATOM      4  H6  UNL     1      10.679  24.375  17.576  1.00  0.00     0.184 HD
HETATM    5  C10 UNL     1      11.741  23.408  16.052  1.00  0.00     0.138 A
HETATM    6  C11 UNL     1      13.034  23.122  16.563  1.00  0.00     0.151 A
HETATM    7  N10 UNL     1      13.900  22.502  15.767  1.00  0.00    -0.175 N
ATOM      8  H10 UNL     1      14.837  22.284  16.108  1.00  0.00     0.186 HD
HETATM    9  C13 UNL     1      13.545  22.161  14.508  1.00  0.00     0.679 A
HETATM   10  N11 UNL     1      14.392  21.564  13.754  1.00  0.00    -0.234 N
ATOM     11 1H11 UNL     1      14.123  21.307  12.805  1.00  0.00     0.174 HD
ATOM     12 2H11 UNL     1      15.322  21.356  14.119  1.00  0.00     0.174 HD
HETATM   13  N12 UNL     1      12.320  22.435  14.028  1.00  0.00    -0.174 N
ATOM     14  H12 UNL     1      12.082  22.166  13.073  1.00  0.00     0.186 HD
HETATM   15  C14 UNL     1      11.390  23.068  14.801  1.00  0.00     0.170 A
ENDROOT
BRANCH   1  16
HETATM   16  C8  UNL     1       9.441  23.262  13.364  1.00  0.00     0.150 C
BRANCH  16  17
HETATM   17  C7  UNL     1       8.276  22.369  13.302  1.00  0.00     0.037 C
BRANCH  17  18
HETATM   18  C6  UNL     1       8.264  21.360  12.182  1.00  0.00     0.114 C
BRANCH  18  19
HETATM   19  N2  UNL     1       8.976  20.165  12.495  1.00  0.00    -0.236 NA
BRANCH  19  20
HETATM   20  C5  UNL     1       8.780  19.639  13.801  1.00  0.00     0.143 C
BRANCH  20  21
HETATM   21  C4  UNL     1      10.010  19.348  14.579  1.00  0.00     0.288 C
BRANCH  21  22
HETATM   22  N1  UNL     1       9.750  19.137  15.990  1.00  0.00     0.085 N
HETATM   23  C3  UNL     1      10.727  18.226  16.573  1.00  0.00     0.309 C
BRANCH  22  24
HETATM   24  C2  UNL     1       9.803  20.424  16.682  1.00  0.00     0.267 C
HETATM   25  C1  UNL     1      10.558  20.374  17.971  1.00  0.00     0.037 C
ENDBRANCH  22  24
ENDBRANCH  21  22
ENDBRANCH  20  21
ENDBRANCH  19  20
BRANCH  19  26
HETATM   26  N3  UNL     1       8.891  19.259  11.467  1.00  0.00    -0.363 NA
ATOM     27  H32 UNL     1       9.442  19.565  10.665  1.00  0.00     0.171 HD
ATOM     28  H31 UNL     1       7.957  18.904  11.265  1.00  0.00     0.171 HD
ENDBRANCH  19  26
ENDBRANCH  18  19
ENDBRANCH  17  18
ENDBRANCH  16  17
ENDBRANCH   1  16
BRANCH   2  29
HETATM   29  N5  UNL     1       8.518  24.535  15.868  1.00  0.00    -0.234 N
ATOM     30  H52 UNL     1       7.769  24.604  15.178  1.00  0.00     0.174 HD
ATOM     31  H51 UNL     1       8.191  24.933  16.747  1.00  0.00     0.174 HD
ENDBRANCH   2  29
BRANCH   6  32
HETATM   32  N7  UNL     1      13.292  23.475  17.732  1.00  0.00    -0.325 N
HETATM   33  C12 UNL     1      13.457  22.924  18.991  1.00  0.00     0.481 C
HETATM   34  N8  UNL     1      12.156  23.012  19.697  1.00  0.00    -0.033 N
HETATM   35  N9  UNL     1      13.882  21.567  19.111  1.00  0.00    -0.033 N
ATOM     36  H83 UNL     1      11.785  23.961  19.726  1.00  0.00     0.278 HD
ATOM     37  H82 UNL     1      11.392  22.583  19.174  1.00  0.00     0.278 HD
ATOM     38  H81 UNL     1      12.278  22.605  20.625  1.00  0.00     0.278 HD
ATOM     39  H93 UNL     1      13.243  20.977  18.577  1.00  0.00     0.278 HD
ATOM     40  H92 UNL     1      14.749  21.450  18.587  1.00  0.00     0.278 HD
ATOM     41  H91 UNL     1      14.003  21.161  20.038  1.00  0.00     0.278 HD
ATOM     42  H7  UNL     1      13.421  24.485  17.772  1.00  0.00     0.165 HD
ENDBRANCH   6  32
TORSDOF 11
ENDMDL