MODEL 1
REMARK VINA RESULT: -6.904208697      0.000      0.000
REMARK  12 active torsions:
REMARK  status: ('A' for Active; 'I' for Inactive)
REMARK    1  A    between atoms: C2_2  and  N1_3
REMARK    2  A    between atoms: N1_3  and  C3_6
REMARK    3  A    between atoms: C3_6  and  C4_7
REMARK    4  A    between atoms: C4_7  and  N2_8
REMARK    5  A    between atoms: N2_8  and  C5_10
REMARK    6  A    between atoms: C5_10  and  C6_11
REMARK    7  A    between atoms: C6_11  and  C7_12
REMARK    8  A    between atoms: C8_14  and  N3_15
REMARK    9  A    between atoms: C11_20  and  N5_21
REMARK   10  A    between atoms: C12_26  and  N7_27
REMARK   11  A    between atoms: C14_33  and  O2_34
REMARK   12  A    between atoms: C15_36  and  O3_37
ROOT
HETATM    1  C7  UNL     1      11.263  22.281  17.862  1.00  0.00     0.157 C
HETATM    2  O1  UNL     1      10.226  21.766  17.077  1.00  0.00    -0.355 OA
HETATM    3  C8  UNL     1      10.814  20.790  16.341  1.00  0.00     0.262 C
HETATM    4  C14 UNL     1      12.186  21.232  15.991  1.00  0.00     0.198 C
HETATM    5  C15 UNL     1      12.428  22.417  16.898  1.00  0.00     0.180 C
ENDROOT
BRANCH   3   6
HETATM    6  N3  UNL     1      10.053  20.319  15.203  1.00  0.00    -0.297 N
HETATM    7  C9  UNL     1       9.838  19.033  14.862  1.00  0.00     0.188 A
HETATM    8  N4  UNL     1       9.108  18.951  13.759  1.00  0.00    -0.346 N
HETATM    9  C10 UNL     1       8.831  20.207  13.356  1.00  0.00     0.123 A
ATOM     10  H4  UNL     1       8.809  18.092  13.297  1.00  0.00     0.167 HD
HETATM   11  C11 UNL     1       8.117  20.702  12.284  1.00  0.00     0.145 A
HETATM   12  C13 UNL     1       9.431  21.057  14.274  1.00  0.00     0.157 A
HETATM   13  N6  UNL     1       8.023  22.036  12.159  1.00  0.00    -0.175 N
HETATM   14  C12 UNL     1       8.618  22.834  13.067  1.00  0.00     0.679 A
ATOM     15  H6  UNL     1       7.505  22.443  11.381  1.00  0.00     0.186 HD
HETATM   16  N8  UNL     1       9.318  22.403  14.121  1.00  0.00    -0.174 N
ATOM     17  H8  UNL     1       9.747  23.053  14.779  1.00  0.00     0.186 HD
BRANCH  11  18
HETATM   18  N5  UNL     1       7.565  19.888  11.433  1.00  0.00    -0.383 N
ATOM     19  H52 UNL     1       8.117  19.319  10.791  1.00  0.00     0.157 HD
ATOM     20  H51 UNL     1       6.549  19.799  11.392  1.00  0.00     0.157 HD
ENDBRANCH  11  18
BRANCH  14  21
HETATM   21  N7  UNL     1       8.486  24.105  12.886  1.00  0.00    -0.234 N
ATOM     22  H72 UNL     1       7.900  24.635  13.531  1.00  0.00     0.174 HD
ATOM     23  H71 UNL     1       8.987  24.504  12.092  1.00  0.00     0.174 HD
ENDBRANCH  14  21
ENDBRANCH   3   6
BRANCH   4  24
HETATM   24  O2  UNL     1      12.335  21.670  14.680  1.00  0.00    -0.388 OA
ATOM     25  H2  UNL     1      13.176  22.067  14.490  1.00  0.00     0.210 HD
ENDBRANCH   4  24
BRANCH   1  26
HETATM   26  C6  UNL     1      11.555  21.392  19.022  1.00  0.00     0.054 C
BRANCH  26  27
HETATM   27  C5  UNL     1      12.352  22.024  20.111  1.00  0.00     0.116 C
BRANCH  27  28
HETATM   28  N2  UNL     1      13.711  21.524  20.103  1.00  0.00    -0.419 N
ATOM     29  H2  UNL     1      14.504  22.108  20.371  1.00  0.00     0.153 HD
BRANCH  28  30
HETATM   30  C4  UNL     1      13.875  20.174  19.700  1.00  0.00     0.141 C
BRANCH  30  31
HETATM   31  C3  UNL     1      13.918  19.184  20.813  1.00  0.00     0.251 C
BRANCH  31  32
HETATM   32  N1  UNL     1      13.052  18.074  20.492  1.00  0.00    -0.074 N
ATOM     33  H12 UNL     1      12.143  18.192  20.939  1.00  0.00     0.277 HD
ATOM     34  H11 UNL     1      13.370  17.227  20.964  1.00  0.00     0.277 HD
BRANCH  32  35
HETATM   35  C2  UNL     1      12.892  17.834  19.090  1.00  0.00     0.228 C
HETATM   36  C1  UNL     1      13.572  16.581  18.595  1.00  0.00     0.034 C
ENDBRANCH  32  35
ENDBRANCH  31  32
ENDBRANCH  30  31
ENDBRANCH  28  30
ENDBRANCH  27  28
ENDBRANCH  26  27
ENDBRANCH   1  26
BRANCH   5  37
HETATM   37  O3  UNL     1      12.269  23.626  16.219  1.00  0.00    -0.390 OA
ATOM     38  H3  UNL     1      12.181  23.423  15.295  1.00  0.00     0.210 HD
ENDBRANCH   5  37
TORSDOF 12
ENDMDL