MODEL 3
REMARK VINA RESULT: -6.677949625      1.795      8.290
REMARK  12 active torsions:
REMARK  status: ('A' for Active; 'I' for Inactive)
REMARK    1  A    between atoms: C1_4  and  N2_5
REMARK    2  A    between atoms: N2_5  and  C2_7
REMARK    3  A    between atoms: C2_7  and  C3_8
REMARK    4  A    between atoms: C3_8  and  C4_9
REMARK    5  A    between atoms: C4_9  and  O1_10
REMARK    6  A    between atoms: O1_10  and  N3_11
REMARK    7  A    between atoms: N3_11  and  C5_13
REMARK    8  A    between atoms: C5_13  and  C6_14
REMARK    9  A    between atoms: C8_16  and  N4_17
REMARK   10  A    between atoms: C9_21  and  N5_22
REMARK   11  A    between atoms: C12_27  and  N7_28
REMARK   12  A    between atoms: C13_33  and  N9_34
ROOT
HETATM    1  C6  UNL     1      10.461  19.962  15.735  1.00  0.00     0.146 C
HETATM    2  C7  UNL     1      11.692  20.579  15.170  1.00  0.00     0.071 C
HETATM    3  C8  UNL     1      12.003  21.584  16.295  1.00  0.00     0.234 C
HETATM    4  C9  UNL     1      11.297  20.983  17.456  1.00  0.00     0.261 C
HETATM    5  O2  UNL     1      10.716  19.781  17.057  1.00  0.00    -0.357 OA
ENDROOT
BRANCH   4   6
HETATM    6  N5  UNL     1      12.067  20.828  18.679  1.00  0.00    -0.297 N
HETATM    7  C10 UNL     1      12.342  21.809  19.611  1.00  0.00     0.188 A
HETATM    8  N6  UNL     1      13.080  21.232  20.515  1.00  0.00    -0.346 N
HETATM    9  C11 UNL     1      13.306  19.927  20.217  1.00  0.00     0.123 A
ATOM     10  H6  UNL     1      13.443  21.702  21.344  1.00  0.00     0.167 HD
HETATM   11  C12 UNL     1      14.044  18.971  20.839  1.00  0.00     0.145 A
HETATM   12  C14 UNL     1      12.658  19.687  19.044  1.00  0.00     0.157 A
HETATM   13  N8  UNL     1      14.086  17.738  20.194  1.00  0.00    -0.175 N
HETATM   14  C13 UNL     1      13.478  17.466  19.064  1.00  0.00     0.679 A
ATOM     15  H8  UNL     1      14.629  16.993  20.631  1.00  0.00     0.186 HD
HETATM   16  N10 UNL     1      12.742  18.477  18.481  1.00  0.00    -0.174 N
ATOM     17  H10 UNL     1      12.252  18.299  17.604  1.00  0.00     0.186 HD
BRANCH  11  18
HETATM   18  N7  UNL     1      14.654  19.052  21.932  1.00  0.00    -0.383 N
ATOM     19  H72 UNL     1      14.849  19.992  22.277  1.00  0.00     0.157 HD
ATOM     20  H71 UNL     1      15.012  18.293  22.512  1.00  0.00     0.157 HD
ENDBRANCH  11  18
BRANCH  14  21
HETATM   21  N9  UNL     1      13.535  16.337  18.474  1.00  0.00    -0.234 N
ATOM     22  H92 UNL     1      12.662  15.882  18.208  1.00  0.00     0.174 HD
ATOM     23  H91 UNL     1      14.404  15.856  18.241  1.00  0.00     0.174 HD
ENDBRANCH  14  21
ENDBRANCH   4   6
BRANCH   3  24
HETATM   24  N4  UNL     1      13.411  21.784  16.392  1.00  0.00    -0.071 N
ATOM     25  H43 UNL     1      13.922  21.247  15.692  1.00  0.00     0.274 HD
ATOM     26  H42 UNL     1      13.686  22.719  16.094  1.00  0.00     0.274 HD
ATOM     27  H41 UNL     1      13.727  21.575  17.340  1.00  0.00     0.274 HD
ENDBRANCH   3  24
BRANCH   1  28
HETATM   28  C5  UNL     1       9.921  18.752  15.018  1.00  0.00     0.178 C
BRANCH  28  29
HETATM   29  N3  UNL     1       8.632  19.077  14.374  1.00  0.00    -0.300 N
ATOM     30  H3  UNL     1       7.752  18.827  14.826  1.00  0.00     0.187 HD
BRANCH  29  31
HETATM   31  O1  UNL     1       8.630  19.620  13.345  1.00  0.00    -0.285 OA
BRANCH  31  32
HETATM   32  C4  UNL     1       8.632  20.201  12.240  1.00  0.00     0.202 C
BRANCH  32  33
HETATM   33  C3  UNL     1       7.521  21.304  12.102  1.00  0.00     0.048 C
BRANCH  33  34
HETATM   34  C2  UNL     1       7.989  22.533  12.757  1.00  0.00     0.122 C
BRANCH  34  35
HETATM   35  N2  UNL     1       9.259  22.535  13.410  1.00  0.00    -0.386 N
ATOM     36  H2  UNL     1      10.005  21.892  13.143  1.00  0.00     0.160 HD
BRANCH  35  37
HETATM   37  C1  UNL     1       9.424  23.491  14.457  1.00  0.00     0.168 C
HETATM   38  N1  UNL     1       8.507  24.123  15.023  1.00  0.00    -0.396 N
ATOM     39  H12 UNL     1       7.562  23.928  14.695  1.00  0.00     0.156 HD
ATOM     40  H11 UNL     1       8.625  24.806  15.771  1.00  0.00     0.156 HD
ENDBRANCH  35  37
ENDBRANCH  34  35
ENDBRANCH  33  34
ENDBRANCH  32  33
ENDBRANCH  31  32
ENDBRANCH  29  31
ENDBRANCH  28  29
ENDBRANCH   1  28
TORSDOF 12
ENDMDL