MODEL 3
REMARK VINA RESULT: -5.682228845      0.683      1.480
REMARK  3 active torsions:
REMARK  status: ('A' for Active; 'I' for Inactive)
REMARK    1  A    between atoms: N1_3  and  C4_5
REMARK    2  A    between atoms: C9_10  and  C10_11
REMARK    3  A    between atoms: N2_12  and  N3_14
ROOT
HETATM    1  C1  UNL     1     -41.737   3.880  -4.292  1.00  0.00     0.123 C
HETATM    2  C2  UNL     1     -41.421   3.443  -3.196  1.00  0.00    -0.073 C
HETATM    3  N1  UNL     1     -41.061   2.957  -1.931  1.00  0.00    -0.321 N
HETATM    4  C3  UNL     1     -39.740   2.380  -1.778  1.00  0.00     0.166 C
ENDROOT
BRANCH   3   5
HETATM    5  C4  UNL     1     -42.018   3.061  -0.883  1.00  0.00     0.052 A
HETATM    6  C5  UNL     1     -42.714   1.923  -0.455  1.00  0.00     0.031 A
HETATM    7  C6  UNL     1     -43.668   1.962   0.529  1.00  0.00     0.002 A
HETATM    8  C7  UNL     1     -43.925   3.178   1.094  1.00  0.00     0.001 A
HETATM    9  C8  UNL     1     -43.234   4.315   0.671  1.00  0.00     0.015 A
HETATM   10  C9  UNL     1     -42.273   4.298  -0.313  1.00  0.00     0.008 A
BRANCH  10  11
HETATM   11  C10 UNL     1     -41.520   5.451  -0.751  1.00  0.00     0.120 C
HETATM   12  N2  UNL     1     -41.938   6.397  -1.449  1.00  0.00    -0.309 N
ATOM     13  H2  UNL     1     -41.192   7.076  -1.605  1.00  0.00     0.186 HD
BRANCH  12  14
HETATM   14  N3  UNL     1     -43.058   6.796  -2.054  1.00  0.00    -0.276 N
HETATM   15  C11 UNL     1     -43.088   7.646  -3.021  1.00  0.00     0.215 C
HETATM   16  N4  UNL     1     -41.860   8.190  -3.469  1.00  0.00    -0.065 NA
HETATM   17  N5  UNL     1     -44.353   7.976  -3.568  1.00  0.00    -0.065 NA
ATOM     18  H3  UNL     1     -43.943   6.404  -1.732  1.00  0.00     0.189 HD
ENDBRANCH  12  14
ENDBRANCH  10  11
ENDBRANCH   3   5
TORSDOF 3
ENDMDL