MODEL 3
REMARK VINA RESULT: -4.830886476      1.014      1.285
REMARK  3 active torsions:
REMARK  status: ('A' for Active; 'I' for Inactive)
REMARK    1  A    between atoms: O1_2  and  C2_3
REMARK    2  A    between atoms: C2_3  and  C3_4
REMARK    3  A    between atoms: N1_5  and  C4_7
ROOT
HETATM    1  C4  UNL     1     -41.744   4.770  -1.425  1.00  0.00     0.135 A
HETATM    2  N2  UNL     1     -42.370   4.190  -0.345  1.00  0.00    -0.330 N
ATOM      3  H2  UNL     1     -42.090   3.243  -0.091  1.00  0.00     0.168 HD
HETATM    4  C5  UNL     1     -43.303   4.765   0.383  1.00  0.00     0.079 A
HETATM    5  C6  UNL     1     -43.965   4.105   1.553  1.00  0.00     0.089 C
HETATM    6  N3  UNL     1     -43.683   6.009   0.060  1.00  0.00    -0.344 N
ATOM      7  H3  UNL     1     -44.405   6.475   0.609  1.00  0.00     0.167 HD
HETATM    8  C7  UNL     1     -43.118   6.656  -0.990  1.00  0.00     0.071 A
HETATM    9  C8  UNL     1     -43.340   7.913  -1.502  1.00  0.00    -0.017 A
HETATM   10  C9  UNL     1     -44.305   8.914  -0.998  1.00  0.00     0.052 C
HETATM   11  C10 UNL     1     -42.487   8.038  -2.566  1.00  0.00     0.097 A
HETATM   12  N4  UNL     1     -41.767   6.926  -2.720  1.00  0.00    -0.360 N
ATOM     13  H4  UNL     1     -41.060   6.761  -3.437  1.00  0.00     0.165 HD
HETATM   14  C11 UNL     1     -42.137   6.067  -1.765  1.00  0.00     0.104 A
ENDROOT
BRANCH   1  15
HETATM   15  N1  UNL     1     -40.887   4.166  -2.047  1.00  0.00    -0.352 N
HETATM   16  C3  UNL     1     -40.484   3.004  -2.642  1.00  0.00     0.088 C
ATOM     17  H1  UNL     1     -40.125   4.829  -2.186  1.00  0.00     0.166 HD
BRANCH  16  18
HETATM   18  C2  UNL     1     -41.062   2.696  -4.004  1.00  0.00     0.211 C
BRANCH  18  19
HETATM   19  O1  UNL     1     -42.387   2.308  -3.950  1.00  0.00    -0.391 OA
HETATM   20  C1  UNL     1     -42.581   1.173  -3.174  1.00  0.00     0.201 C
ENDBRANCH  18  19
ENDBRANCH  16  18
ENDBRANCH   1  15
TORSDOF 3
ENDMDL