MODEL 3
REMARK VINA RESULT: -5.685292124      0.036      1.179
REMARK  4 active torsions:
REMARK  status: ('A' for Active; 'I' for Inactive)
REMARK    1  A    between atoms: N1_1  and  C1_5
REMARK    2  A    between atoms: C1_5  and  C2_6
REMARK    3  A    between atoms: N2_7  and  C3_9
REMARK    4  A    between atoms: C5_11  and  C6_12
ROOT
HETATM    1  C3  UNL     1     -41.770   5.556  -1.880  1.00  0.00     0.120 A
HETATM    2  C4  UNL     1     -42.546   5.161  -0.761  1.00  0.00     0.063 A
HETATM    3  C5  UNL     1     -42.618   3.846  -0.397  1.00  0.00    -0.005 A
HETATM    4  C12 UNL     1     -41.951   2.852  -1.087  1.00  0.00     0.119 A
HETATM    5  N3  UNL     1     -41.229   3.262  -2.136  1.00  0.00    -0.309 N
ATOM      6  H3  UNL     1     -40.718   2.565  -2.677  1.00  0.00     0.186 HD
HETATM    7  N4  UNL     1     -41.146   4.549  -2.510  1.00  0.00    -0.286 N
ATOM      8  H4  UNL     1     -40.574   4.775  -3.324  1.00  0.00     0.188 HD
ENDROOT
BRANCH   1   9
HETATM    9  N2  UNL     1     -41.710   6.756  -2.204  1.00  0.00    -0.353 N
HETATM   10  C2  UNL     1     -42.361   7.930  -2.383  1.00  0.00     0.089 C
ATOM     11  H2  UNL     1     -40.733   6.936  -2.438  1.00  0.00     0.166 HD
BRANCH  10  12
HETATM   12  C1  UNL     1     -43.610   8.211  -1.588  1.00  0.00     0.274 C
BRANCH  12  13
HETATM   13  N1  UNL     1     -43.434   9.178  -0.550  1.00  0.00    -0.075 N
ATOM     14  H13 UNL     1     -43.744   8.801   0.346  1.00  0.00     0.274 HD
ATOM     15  H12 UNL     1     -42.443   9.311  -0.349  1.00  0.00     0.274 HD
ATOM     16  H11 UNL     1     -43.885  10.074  -0.737  1.00  0.00     0.274 HD
ENDBRANCH  12  13
ENDBRANCH  10  12
ENDBRANCH   1   9
BRANCH   3  17
HETATM   17  C6  UNL     1     -43.417   3.459   0.751  1.00  0.00    -0.025 A
HETATM   18  C7  UNL     1     -44.072   2.256   0.820  1.00  0.00     0.012 A
HETATM   19  C8  UNL     1     -44.828   1.901   1.916  1.00  0.00     0.001 A
HETATM   20  C9  UNL     1     -44.953   2.751   2.986  1.00  0.00     0.000 A
HETATM   21  C10 UNL     1     -44.304   3.967   2.940  1.00  0.00     0.001 A
HETATM   22  C11 UNL     1     -43.540   4.314   1.822  1.00  0.00     0.012 A
ENDBRANCH   3  17
TORSDOF 4
ENDMDL