MODEL 5
REMARK VINA RESULT: -5.762308269      3.505      5.656
REMARK  5 active torsions:
REMARK  status: ('A' for Active; 'I' for Inactive)
REMARK    1  A    between atoms: O1_1  and  C1_3
REMARK    2  A    between atoms: C1_3  and  C2_4
REMARK    3  A    between atoms: C5_9  and  N2_10
REMARK    4  A    between atoms: N2_10  and  C6_12
REMARK    5  A    between atoms: C6_12  and  C7_13
ROOT
HETATM    1  C2  UNL     1     -41.252   4.388  -3.556  1.00  0.00     0.106 A
HETATM    2  N1  UNL     1     -41.201   3.507  -2.546  1.00  0.00    -0.354 N
ATOM      3  H1  UNL     1     -41.046   2.518  -2.745  1.00  0.00     0.166 HD
HETATM    4  C3  UNL     1     -41.355   3.922  -1.263  1.00  0.00     0.093 A
HETATM    5  C4  UNL     1     -41.567   5.257  -0.959  1.00  0.00     0.065 A
HETATM    6  C5  UNL     1     -41.617   6.148  -2.011  1.00  0.00     0.103 A
HETATM    7  N3  UNL     1     -41.457   5.683  -3.286  1.00  0.00    -0.331 N
ATOM      8  H3  UNL     1     -41.495   6.347  -4.059  1.00  0.00     0.168 HD
ENDROOT
BRANCH   6   9
HETATM    9  N2  UNL     1     -41.809   7.393  -1.816  1.00  0.00    -0.372 N
ATOM     10  H2  UNL     1     -41.293   7.861  -1.072  1.00  0.00     0.161 HD
BRANCH   9  11
HETATM   11  C6  UNL     1     -42.725   8.154  -2.606  1.00  0.00     0.159 C
BRANCH  11  12
HETATM   12  C7  UNL     1     -43.921   8.563  -1.840  1.00  0.00    -0.041 A
HETATM   13  C8  UNL     1     -45.206   8.524  -2.339  1.00  0.00     0.009 A
HETATM   14  C9  UNL     1     -46.299   8.921  -1.581  1.00  0.00     0.001 A
HETATM   15  C10 UNL     1     -46.126   9.372  -0.285  1.00  0.00     0.000 A
HETATM   16  C11 UNL     1     -44.853   9.416   0.224  1.00  0.00     0.001 A
HETATM   17  C12 UNL     1     -43.761   9.017  -0.547  1.00  0.00     0.009 A
ENDBRANCH  11  12
ENDBRANCH   9  11
ENDBRANCH   6   9
BRANCH   1  18
HETATM   18  C1  UNL     1     -41.076   3.882  -4.951  1.00  0.00     0.240 C
BRANCH  18  19
HETATM   19  O1  UNL     1     -42.072   4.349  -5.773  1.00  0.00    -0.393 OA
ATOM     20  H1  UNL     1     -41.901   4.119  -6.679  1.00  0.00     0.209 HD
ENDBRANCH  18  19
ENDBRANCH   1  18
TORSDOF 5
ENDMDL