MODEL 1
REMARK VINA RESULT: -5.593191534      0.000      0.000
REMARK  4 active torsions:
REMARK  status: ('A' for Active; 'I' for Inactive)
REMARK    1  A    between atoms: C4_7  and  C5_8
REMARK    2  A    between atoms: C5_8  and  C6_9
REMARK    3  A    between atoms: C6_9  and  N3_10
REMARK    4  A    between atoms: N3_10  and  C7_12
ROOT
HETATM    1  N1  UNL     1     -42.357   8.134  -3.637  1.00  0.00    -0.188 NA
HETATM    2  C1  UNL     1     -42.038   7.125  -3.171  1.00  0.00     0.137 C
HETATM    3  C2  UNL     1     -41.631   5.874  -2.603  1.00  0.00     0.188 A
HETATM    4  N2  UNL     1     -41.651   5.567  -1.284  1.00  0.00    -0.342 N
ATOM      5  H2  UNL     1     -41.958   6.186  -0.533  1.00  0.00     0.167 HD
HETATM    6  C3  UNL     1     -41.194   4.299  -1.130  1.00  0.00     0.115 A
HETATM    7  C4  UNL     1     -40.902   3.866  -2.412  1.00  0.00     0.028 A
HETATM    8  N5  UNL     1     -41.167   4.825  -3.311  1.00  0.00    -0.336 N
ATOM      9  H5  UNL     1     -41.042   4.773  -4.322  1.00  0.00     0.168 HD
ENDROOT
BRANCH   7  10
HETATM   10  C5  UNL     1     -40.361   2.511  -2.760  1.00  0.00     0.078 C
BRANCH  10  11
HETATM   11  C6  UNL     1     -39.945   2.512  -4.235  1.00  0.00     0.127 C
BRANCH  11  12
HETATM   12  N3  UNL     1     -38.585   2.104  -4.313  1.00  0.00    -0.376 N
ATOM     13  H3  UNL     1     -37.879   2.763  -3.986  1.00  0.00     0.161 HD
BRANCH  12  14
HETATM   14  C7  UNL     1     -38.170   0.968  -4.763  1.00  0.00     0.100 A
HETATM   15  C8  UNL     1     -36.829   0.656  -4.681  1.00  0.00     0.048 A
HETATM   16  C9  UNL     1     -36.323  -0.547  -5.147  1.00  0.00     0.005 A
HETATM   17  C10 UNL     1     -37.182  -1.466  -5.713  1.00  0.00     0.017 A
HETATM   18  C11 UNL     1     -38.519  -1.132  -5.783  1.00  0.00     0.089 A
HETATM   19  N4  UNL     1     -38.992   0.058  -5.318  1.00  0.00    -0.353 N
ATOM     20  H4  UNL     1     -39.988   0.264  -5.391  1.00  0.00     0.166 HD
ENDBRANCH  12  14
ENDBRANCH  11  12
ENDBRANCH  10  11
ENDBRANCH   7  10
TORSDOF 4
ENDMDL