MODEL 1
REMARK VINA RESULT: -5.415737790      0.000      0.000
REMARK  5 active torsions:
REMARK  status: ('A' for Active; 'I' for Inactive)
REMARK    1  A    between atoms: N1_1  and  C1_5
REMARK    2  A    between atoms: C1_5  and  C2_6
REMARK    3  A    between atoms: C5_9  and  C6_10
REMARK    4  A    between atoms: C6_10  and  N2_11
REMARK    5  A    between atoms: N2_11  and  C7_13
ROOT
HETATM    1  C2  UNL     1     -40.611   3.408  -1.998  1.00  0.00    -0.033 A
HETATM    2  C3  UNL     1     -40.714   3.678  -3.346  1.00  0.00     0.009 A
HETATM    3  C4  UNL     1     -41.279   4.871  -3.767  1.00  0.00     0.009 A
HETATM    4  C5  UNL     1     -41.741   5.793  -2.856  1.00  0.00    -0.040 A
HETATM    5  C11 UNL     1     -41.640   5.526  -1.507  1.00  0.00     0.009 A
HETATM    6  C12 UNL     1     -41.078   4.338  -1.083  1.00  0.00     0.009 A
ENDROOT
BRANCH   4   7
HETATM    7  C6  UNL     1     -42.332   7.044  -3.384  1.00  0.00     0.176 C
BRANCH   7   8
HETATM    8  N2  UNL     1     -42.286   8.106  -2.401  1.00  0.00    -0.222 N
ATOM      9  H2  UNL     1     -41.395   8.510  -2.114  1.00  0.00     0.178 HD
BRANCH   8  10
HETATM   10  C7  UNL     1     -43.385   8.528  -1.901  1.00  0.00     0.677 A
HETATM   11  N3  UNL     1     -43.419   9.124  -0.706  1.00  0.00    -0.202 N
HETATM   12  C8  UNL     1     -44.597   9.569  -0.183  1.00  0.00     0.107 A
ATOM     13  H3  UNL     1     -42.555   9.247  -0.178  1.00  0.00     0.183 HD
HETATM   14  C9  UNL     1     -45.765   9.399  -0.905  1.00  0.00     0.035 A
HETATM   15  C10 UNL     1     -45.720   8.786  -2.133  1.00  0.00     0.107 A
HETATM   16  N4  UNL     1     -44.519   8.368  -2.591  1.00  0.00    -0.202 N
ATOM     17  H4  UNL     1     -44.475   7.910  -3.502  1.00  0.00     0.183 HD
ENDBRANCH   8  10
ENDBRANCH   7   8
ENDBRANCH   4   7
BRANCH   1  18
HETATM   18  C1  UNL     1     -40.007   2.128  -1.503  1.00  0.00     0.268 C
BRANCH  18  19
HETATM   19  N1  UNL     1     -39.192   1.595  -2.567  1.00  0.00    -0.075 N
ATOM     20  H13 UNL     1     -38.910   2.302  -3.245  1.00  0.00     0.274 HD
ATOM     21  H12 UNL     1     -38.257   1.328  -2.258  1.00  0.00     0.274 HD
ATOM     22  H11 UNL     1     -39.706   0.822  -2.989  1.00  0.00     0.274 HD
ENDBRANCH  18  19
ENDBRANCH   1  18
TORSDOF 5
ENDMDL