MODEL 1
REMARK VINA RESULT: -5.315212818      0.000      0.000
REMARK  4 active torsions:
REMARK  status: ('A' for Active; 'I' for Inactive)
REMARK    1  A    between atoms: C3_3  and  C4_4
REMARK    2  A    between atoms: C4_4  and  N1_5
REMARK    3  A    between atoms: N1_5  and  C5_7
REMARK    4  A    between atoms: C8_16  and  C9_17
ROOT
HETATM    1  C1  UNL     1     -43.633   4.389   2.374  1.00  0.00     0.012 C
HETATM    2  C2  UNL     1     -43.731   3.956   1.255  1.00  0.00    -0.116 C
HETATM    3  C3  UNL     1     -43.866   3.422  -0.080  1.00  0.00     0.112 C
ENDROOT
BRANCH   3   4
HETATM    4  C4  UNL     1     -42.461   3.146  -0.630  1.00  0.00     0.133 C
BRANCH   4   5
HETATM    5  N1  UNL     1     -41.804   4.410  -0.726  1.00  0.00    -0.373 N
ATOM      6  H1  UNL     1     -41.310   4.732   0.107  1.00  0.00     0.161 HD
BRANCH   5   7
HETATM    7  C5  UNL     1     -41.768   5.172  -1.734  1.00  0.00     0.133 A
HETATM    8  N2  UNL     1     -41.226   4.779  -2.893  1.00  0.00    -0.337 N
HETATM    9  C6  UNL     1     -41.196   5.617  -3.975  1.00  0.00     0.183 A
ATOM     10  H2  UNL     1     -40.830   3.842  -2.970  1.00  0.00     0.168 HD
HETATM   11  N3  UNL     1     -41.701   6.856  -3.928  1.00  0.00    -0.337 N
HETATM   12  C7  UNL     1     -42.258   7.295  -2.778  1.00  0.00     0.138 A
ATOM     13  H3  UNL     1     -41.665   7.461  -4.749  1.00  0.00     0.168 HD
HETATM   14  N4  UNL     1     -42.841   8.441  -2.386  1.00  0.00    -0.327 N
HETATM   15  C11 UNL     1     -42.293   6.441  -1.663  1.00  0.00     0.122 A
HETATM   16  C8  UNL     1     -43.221   8.319  -1.105  1.00  0.00     0.106 A
ATOM     17  H4  UNL     1     -42.973   9.269  -2.967  1.00  0.00     0.169 HD
HETATM   18  N5  UNL     1     -42.882   7.085  -0.660  1.00  0.00    -0.336 N
ATOM     19  H5  UNL     1     -43.049   6.716   0.276  1.00  0.00     0.168 HD
BRANCH  16  20
HETATM   20  C9  UNL     1     -43.883   9.322  -0.306  1.00  0.00     0.038 C
HETATM   21  C10 UNL     1     -45.114   9.705  -0.607  1.00  0.00     0.015 C
ENDBRANCH  16  20
ENDBRANCH   5   7
ENDBRANCH   4   5
ENDBRANCH   3   4
TORSDOF 4
ENDMDL