MODEL 1
REMARK VINA RESULT: -5.983336012      0.000      0.000
REMARK  3 active torsions:
REMARK  status: ('A' for Active; 'I' for Inactive)
REMARK    1  A    between atoms: C4_4  and  C5_5
REMARK    2  A    between atoms: N1_6  and  N2_8
REMARK    3  A    between atoms: C9_15  and  N5_16
ROOT
HETATM    1  C1  UNL     1     -46.926  12.009  -1.195  1.00  0.00     0.050 C
HETATM    2  C2  UNL     1     -46.539  10.849  -0.348  1.00  0.00    -0.035 A
HETATM    3  C3  UNL     1     -45.492  10.049  -0.764  1.00  0.00     0.022 A
HETATM    4  C4  UNL     1     -45.060   8.957  -0.054  1.00  0.00    -0.019 A
HETATM    5  C7  UNL     1     -45.731   8.679   1.129  1.00  0.00     0.015 A
HETATM    6  C8  UNL     1     -46.780   9.471   1.559  1.00  0.00     0.031 A
HETATM    7  C9  UNL     1     -47.179  10.551   0.820  1.00  0.00     0.035 A
ENDROOT
BRANCH   4   8
HETATM    8  C5  UNL     1     -43.956   8.141  -0.525  1.00  0.00     0.118 C
HETATM    9  N1  UNL     1     -43.185   8.587  -1.442  1.00  0.00    -0.309 N
ATOM     10  H1  UNL     1     -43.359   9.514  -1.830  1.00  0.00     0.186 HD
BRANCH   9  11
HETATM   11  N2  UNL     1     -42.114   7.840  -1.925  1.00  0.00    -0.276 N
HETATM   12  C6  UNL     1     -42.081   7.458  -3.156  1.00  0.00     0.215 C
HETATM   13  N3  UNL     1     -43.146   7.803  -4.025  1.00  0.00    -0.065 NA
HETATM   14  N4  UNL     1     -40.983   6.698  -3.633  1.00  0.00    -0.065 NA
ATOM     15  H2  UNL     1     -41.349   7.591  -1.298  1.00  0.00     0.189 HD
ENDBRANCH   9  11
ENDBRANCH   4   8
BRANCH   7  16
HETATM   16  N5  UNL     1     -48.252  11.336   1.287  1.00  0.00    -0.389 N
HETATM   17  C10 UNL     1     -47.973  12.564   2.005  1.00  0.00     0.149 C
HETATM   18  C11 UNL     1     -49.591  10.890   1.034  1.00  0.00     0.149 C
ENDBRANCH   7  16
TORSDOF 3
ENDMDL