MODEL 4
REMARK VINA RESULT: -5.090036156      4.522      8.101
REMARK  2 active torsions:
REMARK  status: ('A' for Active; 'I' for Inactive)
REMARK    1  A    between atoms: C2_2  and  N1_3
REMARK    2  A    between atoms: N4_16  and  C10_18
ROOT
HETATM    1  N1  UNL     1     -40.212   2.218  -2.221  1.00  0.00    -0.377 N
ATOM      2  H1  UNL     1     -39.610   2.491  -2.998  1.00  0.00     0.161 HD
HETATM    3  C3  UNL     1     -41.013   3.098  -1.728  1.00  0.00     0.103 A
HETATM    4  C4  UNL     1     -41.137   4.471  -2.191  1.00  0.00     0.066 A
HETATM    5  C5  UNL     1     -42.065   5.109  -1.453  1.00  0.00     0.039 A
HETATM    6  C6  UNL     1     -42.451   6.488  -1.631  1.00  0.00     0.063 A
HETATM    7  C7  UNL     1     -43.385   7.180  -0.912  1.00  0.00     0.050 A
HETATM    8  C8  UNL     1     -43.430   8.476  -1.427  1.00  0.00     0.109 A
HETATM    9  N2  UNL     1     -42.536   8.529  -2.426  1.00  0.00    -0.311 N
ATOM     10  H2  UNL     1     -42.337   9.348  -3.001  1.00  0.00     0.186 HD
HETATM   11  N3  UNL     1     -41.959   7.353  -2.545  1.00  0.00    -0.300 N
ATOM     12  H3  UNL     1     -41.239   7.126  -3.231  1.00  0.00     0.187 HD
HETATM   13  C9  UNL     1     -42.604   4.193  -0.466  1.00  0.00     0.115 A
HETATM   14  N4  UNL     1     -43.496   4.397   0.421  1.00  0.00    -0.376 N
ATOM     15  H4  UNL     1     -43.929   5.317   0.494  1.00  0.00     0.161 HD
HETATM   16  N5  UNL     1     -41.930   2.936  -0.657  1.00  0.00    -0.328 N
ATOM     17  H5  UNL     1     -42.084   2.084  -0.119  1.00  0.00     0.169 HD
ENDROOT
BRANCH  14  18
HETATM   18  C10 UNL     1     -43.903   3.350   1.318  1.00  0.00     0.116 C
HETATM   19  C11 UNL     1     -44.010   3.932   2.706  1.00  0.00     0.026 C
ENDBRANCH  14  18
BRANCH   1  20
HETATM   20  C2  UNL     1     -40.123   0.864  -1.729  1.00  0.00     0.116 C
HETATM   21  C1  UNL     1     -39.024   0.696  -0.710  1.00  0.00     0.026 C
ENDBRANCH   1  20
TORSDOF 2
ENDMDL