MODEL 4
REMARK VINA RESULT: -5.976303401      1.258      1.541
REMARK  4 active torsions:
REMARK  status: ('A' for Active; 'I' for Inactive)
REMARK    1  A    between atoms: O1_1  and  C1_3
REMARK    2  A    between atoms: C7_9  and  N1_10
REMARK    3  A    between atoms: N1_10  and  C8_12
REMARK    4  A    between atoms: C8_12  and  C9_13
ROOT
HETATM    1  C1  UNL     1     -41.229   3.939  -5.219  1.00  0.00     0.066 A
HETATM    2  C2  UNL     1     -40.371   2.966  -4.727  1.00  0.00     0.037 A
HETATM    3  C3  UNL     1     -40.223   2.889  -3.361  1.00  0.00     0.015 A
HETATM    4  C4  UNL     1     -40.900   3.744  -2.520  1.00  0.00    -0.021 A
HETATM    5  C5  UNL     1     -41.760   4.720  -2.998  1.00  0.00     0.003 A
HETATM    6  C6  UNL     1     -41.907   4.794  -4.377  1.00  0.00     0.051 A
HETATM    7  C7  UNL     1     -42.078   5.178  -1.796  1.00  0.00     0.040 A
HETATM    8  C13 UNL     1     -41.187   4.167  -1.299  1.00  0.00     0.042 A
ENDROOT
BRANCH   7   9
HETATM    9  N1  UNL     1     -42.939   6.224  -1.301  1.00  0.00    -0.385 N
ATOM     10  H1  UNL     1     -43.855   5.993  -0.917  1.00  0.00     0.160 HD
BRANCH   9  11
HETATM   11  C8  UNL     1     -42.506   7.577  -1.350  1.00  0.00     0.160 C
BRANCH  11  12
HETATM   12  C9  UNL     1     -43.616   8.498  -1.120  1.00  0.00    -0.017 A
HETATM   13  C10 UNL     1     -44.763   8.583  -1.918  1.00  0.00     0.035 A
HETATM   14  C11 UNL     1     -45.550   9.555  -1.374  1.00  0.00     0.142 A
HETATM   15  O2  UNL     1     -44.972  10.061  -0.316  1.00  0.00    -0.334 OA
HETATM   16  C12 UNL     1     -43.807   9.440  -0.143  1.00  0.00     0.150 A
ENDBRANCH  11  12
ENDBRANCH   9  11
ENDBRANCH   7   9
BRANCH   1  17
HETATM   17  O1  UNL     1     -41.407   4.050  -6.598  1.00  0.00    -0.361 OA
ATOM     18  H1  UNL     1     -42.285   4.170  -6.940  1.00  0.00     0.217 HD
ENDBRANCH   1  17
TORSDOF 4
ENDMDL