MODEL 5
REMARK VINA RESULT: -6.768913462      1.230      1.658
REMARK  5 active torsions:
REMARK  status: ('A' for Active; 'I' for Inactive)
REMARK       I    between atoms: N1_2  and  C2_4
REMARK       I    between atoms: C2_4  and  N2_6
REMARK    1  A    between atoms: N2_6  and  C3_8
REMARK    2  A    between atoms: C3_8  and  N3_10
REMARK    3  A    between atoms: N3_10  and  C5_12
REMARK    4  A    between atoms: C5_12  and  O2_13
REMARK    5  A    between atoms: C5_12  and  C6_15
ROOT
HETATM    1  N3  UNL     1      12.305   6.709  11.137  1.00  0.00    -0.308 N
HETATM    2  C4  UNL     1      11.723   7.073  12.394  1.00  0.00     0.161 C
ENDROOT
BRANCH   1   3
HETATM    3  C3  UNL     1      11.759   5.557  10.502  1.00  0.00     0.183 C
HETATM    4  S1  UNL     1      12.227   4.085  11.001  1.00  0.00    -0.040 SA
BRANCH   3   5
HETATM    5  N2  UNL     1      10.812   5.643   9.477  1.00  0.00    -0.285 N
HETATM    6  C2  UNL     1      11.194   5.522   8.088  1.00  0.00     0.322 C
HETATM    7  N1  UNL     1      10.215   5.612   7.057  1.00  0.00    -0.347 N
HETATM    8  O1  UNL     1      12.396   5.335   7.756  1.00  0.00    -0.247 OA
HETATM    9  C1  UNL     1      10.640   5.487   5.690  1.00  0.00     0.151 C
ATOM     10  H1  UNL     1       9.233   5.763   7.284  1.00  0.00     0.163 HD
ATOM     11  H2  UNL     1       9.831   5.794   9.715  1.00  0.00     0.173 HD
ENDBRANCH   3   5
ENDBRANCH   1   3
BRANCH   1  12
HETATM   12  C5  UNL     1      13.269   7.478  10.490  1.00  0.00     0.154 C
BRANCH  12  13
HETATM   13  O2  UNL     1      13.924   6.948   9.491  1.00  0.00    -0.345 OA
ATOM     14  H2  UNL     1      13.458   6.785   8.679  1.00  0.00     0.219 HD
ENDBRANCH  12  13
BRANCH  12  15
HETATM   15  C6  UNL     1      13.660   8.826  10.778  1.00  0.00     0.015 A
HETATM   16  C7  UNL     1      12.948   9.947  10.448  1.00  0.00     0.016 A
HETATM   17  C8  UNL     1      13.493  11.210  10.721  1.00  0.00     0.001 A
HETATM   18  C9  UNL     1      14.723  11.370  11.314  1.00  0.00     0.000 A
HETATM   19  C10 UNL     1      15.432  10.236  11.646  1.00  0.00     0.001 A
HETATM   20  C11 UNL     1      14.926   8.994  11.390  1.00  0.00     0.016 A
ENDBRANCH  12  15
ENDBRANCH   1  12
TORSDOF 5
ENDMDL