MODEL 5
REMARK VINA RESULT: -6.639194790      2.909      5.683
REMARK  1 active torsions:
REMARK  status: ('A' for Active; 'I' for Inactive)
REMARK    1  A    between atoms: C14_18  and  C15_19
ROOT
HETATM    1  C1  UNL     1      14.655   8.925  12.023  1.00  0.00     0.015 C
HETATM    2  C2  UNL     1      13.941   8.003  11.383  1.00  0.00    -0.082 C
HETATM    3  C3  UNL     1      13.217   6.956  12.163  1.00  0.00     0.040 C
HETATM    4  C4  UNL     1      12.283   6.145  11.374  1.00  0.00     0.013 C
HETATM    5  C5  UNL     1      12.623   4.677  11.268  1.00  0.00     0.069 C
HETATM    6  C6  UNL     1      13.896   4.546  10.469  1.00  0.00     0.125 C
HETATM    7  C7  UNL     1      14.897   3.657  11.169  1.00  0.00     0.040 C
HETATM    8  O1  UNL     1      14.528   5.773  10.237  1.00  0.00    -0.379 OA
HETATM    9  C8  UNL     1      13.739   6.597   9.426  1.00  0.00     0.141 C
HETATM   10  C9  UNL     1      13.652   8.020   9.928  1.00  0.00     0.044 C
HETATM   11  C10 UNL     1      12.129   7.894   9.672  1.00  0.00     0.026 C
HETATM   12  C11 UNL     1      12.318   6.453   9.897  1.00  0.00     0.028 C
HETATM   13  C12 UNL     1      11.487   5.397   9.313  1.00  0.00     0.178 A
HETATM   14  C13 UNL     1      11.410   5.144   7.850  1.00  0.00     0.051 C
HETATM   15  N1  UNL     1      10.343   5.074  10.109  1.00  0.00    -0.041 N
ATOM     16  H11 UNL     1       9.382   4.844   9.854  1.00  0.00     0.280 HD
ATOM     17  H12 UNL     1       9.765   5.642  10.728  1.00  0.00     0.280 HD
HETATM   18  C14 UNL     1      11.470   4.257  10.362  1.00  0.00     0.253 A
ENDROOT
BRANCH  18  19
HETATM   19  C15 UNL     1      11.436   2.878   9.878  1.00  0.00     0.214 C
HETATM   20  O2  UNL     1      12.390   2.252   9.296  1.00  0.00    -0.646 OA
HETATM   21  O3  UNL     1      10.251   2.173  10.020  1.00  0.00    -0.646 OA
ENDBRANCH  18  19
TORSDOF 1
ENDMDL