MODEL 4
REMARK VINA RESULT: -5.895392078      3.718      4.755
REMARK  5 active torsions:
REMARK  status: ('A' for Active; 'I' for Inactive)
REMARK    1  A    between atoms: C2_3  and  N2_4
REMARK    2  A    between atoms: N2_4  and  C3_6
REMARK    3  A    between atoms: C3_6  and  N3_8
REMARK    4  A    between atoms: N3_8  and  C4_10
REMARK    5  A    between atoms: C4_10  and  N4_12
ROOT
HETATM    1  N1  UNL     1       8.096   4.769   6.606  1.00  0.00    -0.196 NA
HETATM    2  C1  UNL     1       8.826   4.358   7.394  1.00  0.00     0.078 C
HETATM    3  C2  UNL     1       9.724   3.836   8.397  1.00  0.00     0.246 C
ENDROOT
BRANCH   3   4
HETATM    4  N2  UNL     1       9.920   4.736   9.501  1.00  0.00    -0.355 N
ATOM      5  H2  UNL     1       9.126   5.023  10.072  1.00  0.00     0.162 HD
BRANCH   4   6
HETATM    6  C3  UNL     1      11.212   5.223   9.795  1.00  0.00     0.174 C
HETATM    7  S1  UNL     1      12.445   4.163   9.795  1.00  0.00    -0.041 SA
BRANCH   6   8
HETATM    8  N3  UNL     1      11.370   6.595  10.072  1.00  0.00    -0.310 N
ATOM      9  H3  UNL     1      11.036   7.270   9.384  1.00  0.00     0.170 HD
BRANCH   8  10
HETATM   10  C4  UNL     1      11.963   7.080  11.244  1.00  0.00     0.176 C
HETATM   11  S2  UNL     1      11.209   6.921  12.710  1.00  0.00    -0.041 SA
BRANCH  10  12
HETATM   12  N4  UNL     1      13.252   7.738  11.213  1.00  0.00    -0.358 N
HETATM   13  C5  UNL     1      14.285   7.004  11.902  1.00  0.00     0.125 C
HETATM   14  C6  UNL     1      15.578   7.196  11.151  1.00  0.00     0.020 C
HETATM   15  C7  UNL     1      16.323   8.425  11.637  1.00  0.00     0.002 C
HETATM   16  C8  UNL     1      15.399   9.647  11.615  1.00  0.00     0.002 C
HETATM   17  C9  UNL     1      14.552   9.672  10.391  1.00  0.00     0.020 C
HETATM   18  C10 UNL     1      13.225   8.974  10.508  1.00  0.00     0.125 C
ENDBRANCH  10  12
ENDBRANCH   8  10
ENDBRANCH   6   8
ENDBRANCH   4   6
ENDBRANCH   3   4
TORSDOF 5
ENDMDL