MODEL 4
REMARK VINA RESULT: -6.270748456      3.880      5.915
REMARK  2 active torsions:
REMARK  status: ('A' for Active; 'I' for Inactive)
REMARK    1  A    between atoms: C2_2  and  N1_4
REMARK       I    between atoms: N1_4  and  C4_6
REMARK       I    between atoms: C4_6  and  N2_8
REMARK    2  A    between atoms: N2_8  and  C5_10
ROOT
HETATM    1  C5  UNL     1      12.902   6.370   9.881  1.00  0.00     0.162 C
HETATM    2  C6  UNL     1      13.692   5.215  10.415  1.00  0.00     0.165 C
HETATM    3  O2  UNL     1      14.903   5.239  10.539  1.00  0.00    -0.294 OA
HETATM    4  C7  UNL     1      12.716   4.123  10.730  1.00  0.00     0.081 C
HETATM    5  C8  UNL     1      13.146   3.169  11.744  1.00  0.00     0.032 C
HETATM    6  C9  UNL     1      11.515   4.994  11.149  1.00  0.00     0.033 C
HETATM    7  C10 UNL     1      11.512   5.823   9.851  1.00  0.00     0.032 C
HETATM    8  C11 UNL     1      11.391   4.659   8.850  1.00  0.00     0.020 C
HETATM    9  C12 UNL     1      11.921   5.049   7.504  1.00  0.00     0.023 C
HETATM   10  C13 UNL     1       9.916   4.325   8.759  1.00  0.00     0.023 C
HETATM   11  C14 UNL     1      12.169   3.558   9.476  1.00  0.00     0.151 C
HETATM   12  O3  UNL     1      12.321   2.445   9.054  1.00  0.00    -0.296 OA
ENDROOT
BRANCH   1  13
HETATM   13  N2  UNL     1      12.928   7.484  10.794  1.00  0.00    -0.331 N
HETATM   14  C4  UNL     1      13.911   8.516  10.640  1.00  0.00     0.317 C
HETATM   15  N1  UNL     1      13.982   9.624  11.502  1.00  0.00    -0.339 N
HETATM   16  O1  UNL     1      14.753   8.442   9.699  1.00  0.00    -0.247 OA
ATOM     17  H1  UNL     1      13.308   9.696  12.265  1.00  0.00     0.164 HD
ATOM     18  H2  UNL     1      12.246   7.538  11.550  1.00  0.00     0.165 HD
BRANCH  15  19
HETATM   19  C2  UNL     1      14.960  10.655  11.352  1.00  0.00     0.078 C
HETATM   20  C1  UNL     1      16.090  10.548  12.351  1.00  0.00     0.032 C
HETATM   21  C3  UNL     1      14.326  12.017  11.537  1.00  0.00     0.032 C
ENDBRANCH  15  19
ENDBRANCH   1  13
TORSDOF 2
ENDMDL