MODEL 2
REMARK VINA RESULT: -5.315278991      2.932      3.956
REMARK  5 active torsions:
REMARK  status: ('A' for Active; 'I' for Inactive)
REMARK    1  A    between atoms: S1_2  and  C2_3
REMARK    2  A    between atoms: C2_3  and  N1_4
REMARK    3  A    between atoms: C2_3  and  N3_11
REMARK    4  A    between atoms: N1_4  and  N2_6
REMARK    5  A    between atoms: N2_6  and  C3_8
ROOT
HETATM    1  C2  UNL     1      11.920   6.754   9.973  1.00  0.00     0.167 C
ENDROOT
BRANCH   1   2
HETATM    2  S1  UNL     1      11.464   6.029  11.369  1.00  0.00    -0.096 SA
HETATM    3  C1  UNL     1      11.368   7.056  12.887  1.00  0.00     0.099 C
ENDBRANCH   1   2
BRANCH   1   4
HETATM    4  N1  UNL     1      11.176   6.563   8.767  1.00  0.00    -0.278 N
ATOM      5  H1  UNL     1      10.993   7.375   8.176  1.00  0.00     0.189 HD
BRANCH   4   6
HETATM    6  N2  UNL     1      10.692   5.333   8.362  1.00  0.00    -0.292 N
ATOM      7  H2  UNL     1      10.620   4.576   9.042  1.00  0.00     0.187 HD
BRANCH   6   8
HETATM    8  C3  UNL     1      10.289   5.099   7.006  1.00  0.00     0.088 C
HETATM    9  C4  UNL     1      11.141   5.427   5.853  1.00  0.00     0.083 C
HETATM   10  S2  UNL     1       8.828   4.446   6.727  1.00  0.00    -0.064 SA
ENDBRANCH   6   8
ENDBRANCH   4   6
ENDBRANCH   1   4
BRANCH   1  11
HETATM   11  N3  UNL     1      13.072   7.566  10.014  1.00  0.00    -0.299 N
HETATM   12  C5  UNL     1      14.447   7.207   9.776  1.00  0.00     0.149 C
HETATM   13  C6  UNL     1      15.267   8.001  10.738  1.00  0.00    -0.013 A
HETATM   14  C7  UNL     1      15.118   7.569  12.212  1.00  0.00     0.013 A
HETATM   15  C8  UNL     1      16.409   7.529  11.468  1.00  0.00     0.013 A
HETATM   16  C9  UNL     1      14.940   9.452  10.486  1.00  0.00     0.108 C
HETATM   17  S3  UNL     1      13.102   9.290  10.382  1.00  0.00    -0.051 SA
ENDBRANCH   1  11
TORSDOF 5
ENDMDL