MODEL 4
REMARK VINA RESULT: -6.002600975      5.879      7.776
REMARK  3 active torsions:
REMARK  status: ('A' for Active; 'I' for Inactive)
REMARK    1  A    between atoms: C2_2  and  C5_5
REMARK    2  A    between atoms: C5_5  and  C6_6
REMARK       I    between atoms: C6_6  and  N1_8
REMARK    3  A    between atoms: N1_8  and  N2_10
REMARK       I    between atoms: N2_10  and  C7_12
REMARK       I    between atoms: C7_12  and  N3_14
ROOT
HETATM    1  N2  UNL     1      14.275   3.981  12.762  1.00  0.00    -0.249 N
ATOM      2  H2  UNL     1      14.551   3.917  13.741  1.00  0.00     0.192 HD
HETATM    3  C7  UNL     1      14.560   2.906  11.878  1.00  0.00     0.343 C
HETATM    4  O2  UNL     1      14.217   2.993  10.687  1.00  0.00    -0.245 OA
HETATM    5  N3  UNL     1      15.217   1.770  12.354  1.00  0.00    -0.267 N
HETATM    6  C8  UNL     1      15.650   0.523  11.753  1.00  0.00     0.155 C
HETATM    7  C9  UNL     1      16.638   0.434  12.914  1.00  0.00     0.051 C
HETATM    8  C10 UNL     1      16.623  -0.905  13.554  1.00  0.00     0.027 C
HETATM    9  C11 UNL     1      17.956   1.013  12.497  1.00  0.00     0.027 C
HETATM   10  C12 UNL     1      15.735   1.387  13.621  1.00  0.00     0.237 C
HETATM   11  O3  UNL     1      15.587   1.649  14.835  1.00  0.00    -0.272 OA
ENDROOT
BRANCH   1  12
HETATM   12  N1  UNL     1      13.618   5.127  12.298  1.00  0.00    -0.266 N
HETATM   13  C6  UNL     1      14.167   6.426  12.490  1.00  0.00     0.236 C
HETATM   14  O1  UNL     1      15.266   6.489  13.098  1.00  0.00    -0.272 OA
ATOM     15  H1  UNL     1      12.726   5.029  11.811  1.00  0.00     0.190 HD
BRANCH  13  16
HETATM   16  C5  UNL     1      13.417   7.575  11.974  1.00  0.00     0.112 C
BRANCH  16  17
HETATM   17  C2  UNL     1      13.940   8.217  10.746  1.00  0.00    -0.043 C
HETATM   18  C1  UNL     1      12.770   9.011  10.136  1.00  0.00     0.015 C
HETATM   19  C3  UNL     1      15.013   9.240  11.089  1.00  0.00     0.015 C
HETATM   20  C4  UNL     1      14.458   7.291   9.707  1.00  0.00     0.015 C
ENDBRANCH  16  17
ENDBRANCH  13  16
ENDBRANCH   1  12
TORSDOF 3
ENDMDL