MODEL 1
REMARK VINA RESULT: -7.112536528      0.000      0.000
REMARK  5 active torsions:
REMARK  status: ('A' for Active; 'I' for Inactive)
REMARK    1  A    between atoms: O1_1  and  C1_3
REMARK    2  A    between atoms: C1_3  and  N1_4
REMARK    3  A    between atoms: C1_3  and  C6_9
REMARK    4  A    between atoms: C10_13  and  O2_14
REMARK    5  A    between atoms: C12_17  and  O3_18
ROOT
HETATM    1  C6  UNL     1      12.066   6.009  10.059  1.00  0.00     0.030 C
HETATM    2  C7  UNL     1      13.223   6.153   9.053  1.00  0.00     0.023 C
HETATM    3  C8  UNL     1      14.371   6.877   9.655  1.00  0.00    -0.008 C
HETATM    4  C9  UNL     1      14.833   6.068  10.856  1.00  0.00     0.042 C
HETATM    5  C10 UNL     1      13.748   6.068  11.877  1.00  0.00     0.062 C
HETATM    6  C11 UNL     1      13.277   7.463  12.249  1.00  0.00     0.075 C
HETATM    7  C12 UNL     1      12.773   8.161  11.024  1.00  0.00     0.062 C
HETATM    8  C13 UNL     1      13.899   8.263  10.040  1.00  0.00     0.042 C
HETATM    9  C14 UNL     1      11.592   7.411  10.440  1.00  0.00     0.056 C
HETATM   10  C15 UNL     1      12.531   5.339  11.322  1.00  0.00     0.056 C
ENDROOT
BRANCH   1  11
HETATM   11  C1  UNL     1      11.046   5.233   9.328  1.00  0.00     0.122 C
BRANCH  11  12
HETATM   12  O1  UNL     1      10.013   4.781   9.977  1.00  0.00    -0.349 OA
ATOM     13  H1  UNL     1       9.877   5.164  10.836  1.00  0.00     0.219 HD
ENDBRANCH  11  12
BRANCH  11  14
HETATM   14  N1  UNL     1      11.073   4.921   7.966  1.00  0.00    -0.365 N
HETATM   15  C2  UNL     1      10.490   5.849   6.960  1.00  0.00     0.124 C
HETATM   16  C3  UNL     1      11.214   5.438   5.673  1.00  0.00     0.021 C
HETATM   17  C4  UNL     1      11.159   3.939   5.857  1.00  0.00     0.021 C
HETATM   18  C5  UNL     1      11.615   3.798   7.292  1.00  0.00     0.124 C
ENDBRANCH  11  14
ENDBRANCH   1  11
BRANCH   7  19
HETATM   19  O3  UNL     1      12.314   9.438  11.356  1.00  0.00    -0.390 OA
ATOM     20  H3  UNL     1      12.425  10.025  10.617  1.00  0.00     0.210 HD
ENDBRANCH   7  19
BRANCH   5  21
HETATM   21  O2  UNL     1      14.184   5.386  13.007  1.00  0.00    -0.390 OA
ATOM     22  H2  UNL     1      15.025   5.737  13.278  1.00  0.00     0.210 HD
ENDBRANCH   5  21
TORSDOF 5
ENDMDL