MODEL 3
REMARK VINA RESULT: -6.167210491      2.176      4.624
REMARK  3 active torsions:
REMARK  status: ('A' for Active; 'I' for Inactive)
REMARK    1  A    between atoms: C5_5  and  O1_6
REMARK    2  A    between atoms: C6_8  and  O2_9
REMARK    3  A    between atoms: C10_14  and  C11_15
ROOT
HETATM    1  C1  UNL     1      12.669   3.592  10.197  1.00  0.00     0.015 C
HETATM    2  C2  UNL     1      13.400   4.938  10.437  1.00  0.00     0.012 C
HETATM    3  C3  UNL     1      13.626   5.073  11.861  1.00  0.00    -0.016 C
HETATM    4  C4  UNL     1      13.852   6.345  12.542  1.00  0.00    -0.047 C
HETATM    5  C5  UNL     1      12.669   7.291  12.575  1.00  0.00     0.176 C
HETATM    6  C6  UNL     1      12.288   7.869  11.289  1.00  0.00     0.156 C
HETATM    7  C7  UNL     1      12.956   7.387  10.060  1.00  0.00     0.026 C
HETATM    8  C8  UNL     1      14.394   7.575   9.903  1.00  0.00     0.014 C
HETATM    9  C9  UNL     1      15.231   7.869  11.069  1.00  0.00     0.006 A
HETATM   10  C10 UNL     1      16.227   6.746  11.502  1.00  0.00     0.060 A
HETATM   11  C12 UNL     1      15.060   7.141  12.314  1.00  0.00     0.033 A
HETATM   12  C13 UNL     1      12.581   5.933   9.727  1.00  0.00    -0.035 C
HETATM   13  C14 UNL     1      12.911   5.800   8.226  1.00  0.00     0.016 C
HETATM   14  C15 UNL     1      11.091   5.726   9.821  1.00  0.00     0.016 C
ENDROOT
BRANCH   5  15
HETATM   15  O1  UNL     1      11.627   6.689  13.299  1.00  0.00    -0.389 OA
ATOM     16  H1  UNL     1      12.000   6.080  13.925  1.00  0.00     0.210 HD
ENDBRANCH   5  15
BRANCH   6  17
HETATM   17  O2  UNL     1      12.338   9.285  11.297  1.00  0.00    -0.392 OA
ATOM     18  H2  UNL     1      11.585   9.676  10.869  1.00  0.00     0.210 HD
ENDBRANCH   6  17
BRANCH  10  19
HETATM   19  C11 UNL     1      17.601   7.155  11.906  1.00  0.00     0.236 C
HETATM   20  O3  UNL     1      17.959   6.813  13.035  1.00  0.00    -0.306 OA
ENDBRANCH  10  19
TORSDOF 3
ENDMDL