MODEL 4
REMARK VINA RESULT: -6.606833702      3.008      6.387
REMARK  2 active torsions:
REMARK  status: ('A' for Active; 'I' for Inactive)
REMARK       I    between atoms: C1_2  and  N1_3
REMARK       I    between atoms: C1_2  and  N2_17
REMARK    1  A    between atoms: N1_3  and  C2_5
REMARK    2  A    between atoms: C9_12  and  O2_13
ROOT
HETATM    1  C2  UNL     1      13.761   7.436  10.158  1.00  0.00     0.094 C
HETATM    2  C3  UNL     1      13.803   6.075   9.506  1.00  0.00     0.012 C
HETATM    3  C4  UNL     1      12.788   6.037   8.383  1.00  0.00     0.011 C
HETATM    4  C5  UNL     1      11.414   6.271   8.979  1.00  0.00    -0.011 C
HETATM    5  C6  UNL     1      11.355   7.568   9.749  1.00  0.00     0.011 C
HETATM    6  C7  UNL     1      12.412   7.585  10.826  1.00  0.00     0.012 C
HETATM    7  C8  UNL     1      12.177   6.483  11.808  1.00  0.00     0.044 C
HETATM    8  C9  UNL     1      12.123   5.173  11.072  1.00  0.00     0.059 C
HETATM    9  C10 UNL     1      11.111   5.154   9.965  1.00  0.00     0.042 C
HETATM   10  C11 UNL     1      13.492   4.955  10.449  1.00  0.00     0.044 C
ENDROOT
BRANCH   1  11
HETATM   11  N1  UNL     1      14.855   7.686  11.032  1.00  0.00    -0.338 N
HETATM   12  C1  UNL     1      15.362   8.993  11.226  1.00  0.00     0.318 C
HETATM   13  O1  UNL     1      14.822   9.971  10.599  1.00  0.00    -0.247 OA
HETATM   14  N2  UNL     1      16.448   9.283  12.086  1.00  0.00    -0.334 N
HETATM   15  C12 UNL     1      17.305   8.498  12.946  1.00  0.00     0.129 C
HETATM   16  C14 UNL     1      17.181  10.459  12.492  1.00  0.00     0.129 C
HETATM   17  C13 UNL     1      18.356   9.586  12.816  1.00  0.00     0.040 C
ATOM     18  H1  UNL     1      15.284   6.905  11.531  1.00  0.00     0.164 HD
ENDBRANCH   1  11
BRANCH   8  19
HETATM   19  O2  UNL     1      11.829   4.167  11.973  1.00  0.00    -0.390 OA
ATOM     20  H2  UNL     1      11.952   4.497  12.855  1.00  0.00     0.210 HD
ENDBRANCH   8  19
TORSDOF 2
ENDMDL