MODEL 5
REMARK VINA RESULT: -6.244272022      4.146      7.386
REMARK  4 active torsions:
REMARK  status: ('A' for Active; 'I' for Inactive)
REMARK    1  A    between atoms: C4_11  and  C5_12
REMARK    2  A    between atoms: C5_12  and  N4_13
REMARK    3  A    between atoms: N5_16  and  C8_17
REMARK    4  A    between atoms: C8_17  and  C9_18
ROOT
HETATM    1  C1  UNL     1       1.328   8.485  -1.463  1.00  0.00     0.070 C
HETATM    2  C2  UNL     1       0.977   8.137  -0.049  1.00  0.00     0.037 A
HETATM    3  N1  UNL     1       0.440   7.014   0.359  1.00  0.00    -0.303 N
ATOM      4  H1  UNL     1       0.164   6.231  -0.234  1.00  0.00     0.186 HD
HETATM    5  N2  UNL     1       0.319   7.076   1.673  1.00  0.00    -0.285 N
ATOM      6  H2  UNL     1      -0.083   6.344   2.260  1.00  0.00     0.188 HD
HETATM    7  C3  UNL     1       0.798   8.230   2.117  1.00  0.00     0.127 A
HETATM    8  N3  UNL     1       0.675   8.476   3.412  1.00  0.00    -0.384 N
ATOM      9  H31 UNL     1       1.043   9.365   3.753  1.00  0.00     0.157 HD
ATOM     10  H32 UNL     1       0.343   7.909   4.191  1.00  0.00     0.157 HD
HETATM   11  C4  UNL     1       1.238   8.981   1.084  1.00  0.00     0.048 A
ENDROOT
BRANCH  11  12
HETATM   12  C5  UNL     1       1.729  10.309   0.920  1.00  0.00     0.104 C
BRANCH  12  13
HETATM   13  N4  UNL     1       2.904  10.735   1.549  1.00  0.00    -0.362 N
HETATM   14  C6  UNL     1       4.081  11.228   1.127  1.00  0.00     0.154 C
HETATM   15  C7  UNL     1       4.773  11.761   2.428  1.00  0.00     0.294 C
HETATM   16  N5  UNL     1       3.642  12.387   3.064  1.00  0.00     0.107 N
HETATM   17  C12 UNL     1       2.519  11.502   2.799  1.00  0.00     0.397 C
BRANCH  16  18
HETATM   18  C8  UNL     1       3.851  12.671   4.434  1.00  0.00     0.279 C
BRANCH  18  19
HETATM   19  C9  UNL     1       4.828  13.800   4.604  1.00  0.00     0.014 A
HETATM   20  C10 UNL     1       5.046  14.455   5.926  1.00  0.00     0.007 A
HETATM   21  C11 UNL     1       6.050  13.475   5.497  1.00  0.00     0.007 A
ENDBRANCH  18  19
ENDBRANCH  16  18
ENDBRANCH  12  13
ENDBRANCH  11  12
TORSDOF 4
ENDMDL