MODEL 2
REMARK VINA RESULT: -6.279062888      5.223      7.324
REMARK  5 active torsions:
REMARK  status: ('A' for Active; 'I' for Inactive)
REMARK    1  A    between atoms: C4_9  and  O1_10
REMARK    2  A    between atoms: O1_10  and  C5_11
REMARK    3  A    between atoms: C5_11  and  C6_12
REMARK    4  A    between atoms: C6_12  and  C7_13
REMARK    5  A    between atoms: C7_13  and  N3_14
ROOT
HETATM    1  N1  UNL     1       1.476  15.255   4.249  1.00  0.00    -0.235 N
ATOM      2  H11 UNL     1       1.141  15.989   3.627  1.00  0.00     0.174 HD
ATOM      3  H12 UNL     1       0.896  14.695   4.873  1.00  0.00     0.174 HD
HETATM    4  C1  UNL     1       2.749  15.019   4.240  1.00  0.00     0.667 C
HETATM    5  N2  UNL     1       3.225  13.978   5.122  1.00  0.00    -0.227 N
ATOM      6  H2  UNL     1       2.554  13.264   5.408  1.00  0.00     0.177 HD
HETATM    7  C2  UNL     1       4.572  13.863   5.632  1.00  0.00     0.140 C
HETATM    8  C3  UNL     1       5.500  13.490   4.514  1.00  0.00     0.054 C
HETATM    9  C4  UNL     1       5.143  13.954   3.150  1.00  0.00     0.141 C
HETATM   10  C12 UNL     1       4.932  15.447   3.009  1.00  0.00     0.170 C
HETATM   11  N4  UNL     1       3.559  15.800   3.369  1.00  0.00    -0.224 N
ATOM     12  H4  UNL     1       3.161  16.652   2.975  1.00  0.00     0.177 HD
ENDROOT
BRANCH   9  13
HETATM   13  O1  UNL     1       4.117  13.211   2.651  1.00  0.00    -0.384 OA
BRANCH  13  14
HETATM   14  C5  UNL     1       4.329  11.912   2.339  1.00  0.00     0.170 C
BRANCH  14  15
HETATM   15  C6  UNL     1       3.019  11.202   2.113  1.00  0.00     0.056 C
BRANCH  15  16
HETATM   16  C7  UNL     1       3.068  10.324   0.876  1.00  0.00     0.274 C
BRANCH  16  17
HETATM   17  N3  UNL     1       2.079   9.266   0.947  1.00  0.00     0.088 N
HETATM   18  C8  UNL     1       0.876   9.727   1.560  1.00  0.00     0.272 C
HETATM   19  C9  UNL     1      -0.277   9.340   0.660  1.00  0.00     0.032 C
HETATM   20  C10 UNL     1       0.308   8.508  -0.435  1.00  0.00     0.032 C
HETATM   21  C11 UNL     1       1.774   8.867  -0.403  1.00  0.00     0.272 C
ENDBRANCH  16  17
ENDBRANCH  15  16
ENDBRANCH  14  15
ENDBRANCH  13  14
ENDBRANCH   9  13
TORSDOF 5
ENDMDL