MODEL 5
REMARK VINA RESULT: -7.736266985      1.432      1.674
REMARK  5 active torsions:
REMARK  status: ('A' for Active; 'I' for Inactive)
REMARK    1  A    between atoms: C3_3  and  C4_4
REMARK    2  A    between atoms: C4_4  and  C5_5
REMARK    3  A    between atoms: C5_5  and  C6_6
REMARK    4  A    between atoms: C6_6  and  N1_7
REMARK    5  A    between atoms: C11_18  and  N4_19
ROOT
HETATM    1  C4  UNL     1       3.379   9.063  -1.385  1.00  0.00     0.073 C
ENDROOT
BRANCH   1   2
HETATM    2  C3  UNL     1       2.048   8.711  -0.835  1.00  0.00     0.086 A
HETATM    3  C2  UNL     1       1.562   9.277   0.359  1.00  0.00     0.015 A
HETATM    4  C1  UNL     1       2.211  10.261   1.240  1.00  0.00     0.055 C
HETATM    5  C11 UNL     1       0.307   8.750   0.601  1.00  0.00     0.127 A
HETATM    6  N3  UNL     1       0.091   7.904  -0.431  1.00  0.00    -0.245 N
HETATM    7  O2  UNL     1       1.103   7.918  -1.215  1.00  0.00    -0.240 OA
ATOM      8  H3  UNL     1      -0.750   7.342  -0.565  1.00  0.00     0.196 HD
BRANCH   5   9
HETATM    9  N4  UNL     1      -0.516   8.957   1.549  1.00  0.00    -0.384 N
ATOM     10  H42 UNL     1      -1.247   9.668   1.534  1.00  0.00     0.157 HD
ATOM     11  H41 UNL     1      -0.621   8.501   2.455  1.00  0.00     0.157 HD
ENDBRANCH   5   9
ENDBRANCH   1   2
BRANCH   1  12
HETATM   12  C5  UNL     1       3.399   9.039  -2.888  1.00  0.00     0.051 C
BRANCH  12  13
HETATM   13  C6  UNL     1       4.097  10.113  -3.566  1.00  0.00     0.069 C
BRANCH  13  14
HETATM   14  N1  UNL     1       4.209  10.229  -4.952  1.00  0.00    -0.314 N
HETATM   15  C7  UNL     1       3.483   9.296  -5.790  1.00  0.00     0.134 C
HETATM   16  C8  UNL     1       2.958   9.999  -7.049  1.00  0.00     0.040 C
HETATM   17  C9  UNL     1       4.125  10.370  -7.904  1.00  0.00     0.126 C
HETATM   18  N2  UNL     1       5.078  11.108  -7.098  1.00  0.00    -0.343 N
HETATM   19  C10 UNL     1       4.967  11.193  -5.671  1.00  0.00     0.322 C
ATOM     20  H2  UNL     1       5.853  11.582  -7.561  1.00  0.00     0.164 HD
HETATM   21  O1  UNL     1       5.519  12.089  -5.038  1.00  0.00    -0.247 OA
ENDBRANCH  13  14
ENDBRANCH  12  13
ENDBRANCH   1  12
TORSDOF 5
ENDMDL