MODEL 1
REMARK VINA RESULT: -7.177053686      0.000      0.000
REMARK  7 active torsions:
REMARK  status: ('A' for Active; 'I' for Inactive)
REMARK    1  A    between atoms: C2_2  and  N1_3
REMARK    2  A    between atoms: N1_3  and  C3_5
REMARK    3  A    between atoms: C4_8  and  N3_9
REMARK    4  A    between atoms: C6_14  and  N5_15
REMARK    5  A    between atoms: N5_15  and  C7_17
REMARK    6  A    between atoms: C7_17  and  C8_18
REMARK    7  A    between atoms: C8_18  and  C9_19
ROOT
HETATM    1  C3  UNL     1       3.721   9.372  -4.782  1.00  0.00     0.707 A
HETATM    2  N2  UNL     1       4.546  10.432  -4.763  1.00  0.00    -0.022 N
ATOM      3  H2  UNL     1       4.758  10.882  -5.653  1.00  0.00     0.203 HD
HETATM    4  C4  UNL     1       5.110  10.943  -3.656  1.00  0.00     0.706 A
HETATM    5  N4  UNL     1       4.801  10.317  -2.486  1.00  0.00    -0.022 N
ATOM      6  H4  UNL     1       5.201  10.663  -1.613  1.00  0.00     0.203 HD
HETATM    7  C6  UNL     1       3.981   9.252  -2.456  1.00  0.00     0.707 A
HETATM    8  N6  UNL     1       3.441   8.779  -3.592  1.00  0.00    -0.022 N
ATOM      9  H6  UNL     1       2.818   7.972  -3.561  1.00  0.00     0.203 HD
ENDROOT
BRANCH   7  10
HETATM   10  N5  UNL     1       3.675   8.644  -1.363  1.00  0.00    -0.225 N
ATOM     11  H5  UNL     1       4.183   7.814  -1.059  1.00  0.00     0.177 HD
BRANCH  10  12
HETATM   12  C7  UNL     1       2.582   9.184  -0.579  1.00  0.00     0.138 C
BRANCH  12  13
HETATM   13  C8  UNL     1       1.295   8.438  -0.810  1.00  0.00     0.025 C
BRANCH  13  14
HETATM   14  C9  UNL     1       0.297   8.888   0.223  1.00  0.00    -0.013 A
HETATM   15  C10 UNL     1       0.700   9.820   1.306  1.00  0.00     0.005 A
HETATM   16  C11 UNL     1       0.547   8.339   1.618  1.00  0.00     0.005 A
ENDBRANCH  13  14
ENDBRANCH  12  13
ENDBRANCH  10  12
ENDBRANCH   7  10
BRANCH   4  17
HETATM   17  N3  UNL     1       5.894  11.965  -3.705  1.00  0.00    -0.229 N
HETATM   18  C5  UNL     1       7.122  12.013  -4.427  1.00  0.00     0.165 C
ATOM     19  H3  UNL     1       5.615  12.801  -3.191  1.00  0.00     0.177 HD
ENDBRANCH   4  17
BRANCH   1  20
HETATM   20  N1  UNL     1       3.207   8.927  -5.897  1.00  0.00    -0.225 N
ATOM     21  H1  UNL     1       2.934   7.950  -6.003  1.00  0.00     0.177 HD
BRANCH  20  22
HETATM   22  C2  UNL     1       3.039   9.876  -6.981  1.00  0.00     0.133 C
HETATM   23  C1  UNL     1       4.002   9.456  -8.080  1.00  0.00     0.027 C
ENDBRANCH  20  22
ENDBRANCH   1  20
TORSDOF 7
ENDMDL