MODEL 4
REMARK VINA RESULT: -5.728895488      6.780      8.867
REMARK  6 active torsions:
REMARK  status: ('A' for Active; 'I' for Inactive)
REMARK    1  A    between atoms: O1_2  and  C2_3
REMARK    2  A    between atoms: C2_3  and  C3_4
REMARK    3  A    between atoms: C3_4  and  N1_5
REMARK    4  A    between atoms: N1_5  and  C4_7
REMARK    5  A    between atoms: C4_7  and  N2_9
REMARK    6  A    between atoms: N2_9  and  C5_11
ROOT
HETATM    1  N2  UNL     1       2.606  11.927   2.705  1.00  0.00    -0.363 N
ATOM      2  H2  UNL     1       1.873  12.472   2.251  1.00  0.00     0.162 HD
ENDROOT
BRANCH   1   3
HETATM    3  C4  UNL     1       3.548  12.617   3.478  1.00  0.00     0.168 C
HETATM    4  S1  UNL     1       5.066  12.956   2.971  1.00  0.00    -0.041 SA
BRANCH   3   5
HETATM    5  N1  UNL     1       3.228  13.077   4.784  1.00  0.00    -0.365 N
ATOM      6  H1  UNL     1       2.257  13.148   5.090  1.00  0.00     0.161 HD
BRANCH   5   7
HETATM    7  C3  UNL     1       4.320  13.443   5.676  1.00  0.00     0.148 C
BRANCH   7   8
HETATM    8  C2  UNL     1       3.910  14.539   6.633  1.00  0.00     0.186 C
BRANCH   8   9
HETATM    9  O1  UNL     1       2.977  14.060   7.549  1.00  0.00    -0.394 OA
HETATM   10  C1  UNL     1       2.875  14.862   8.668  1.00  0.00     0.201 C
ENDBRANCH   8   9
ENDBRANCH   7   8
ENDBRANCH   5   7
ENDBRANCH   3   5
ENDBRANCH   1   3
BRANCH   1  11
HETATM   11  C5  UNL     1       2.600  10.482   2.504  1.00  0.00     0.085 C
HETATM   12  C6  UNL     1       1.976  10.172   1.174  1.00  0.00     0.027 C
HETATM   13  C7  UNL     1       0.501   9.945   1.201  1.00  0.00     0.029 C
HETATM   14  C8  UNL     1       0.190   8.457   1.327  1.00  0.00     0.232 C
HETATM   15  N3  UNL     1       1.167   7.950   2.267  1.00  0.00    -0.075 N
HETATM   16  C9  UNL     1       1.072   8.692   3.461  1.00  0.00     0.234 C
ATOM     17  H32 UNL     1       1.073   6.946   2.422  1.00  0.00     0.277 HD
ATOM     18  H31 UNL     1       2.112   7.946   1.884  1.00  0.00     0.277 HD
HETATM   19  C10 UNL     1       2.001   9.818   3.680  1.00  0.00     0.052 C
ENDBRANCH   1  11
TORSDOF 6
ENDMDL