MODEL 4
REMARK VINA RESULT: -7.178684487      2.377      7.927
REMARK  4 active torsions:
REMARK  status: ('A' for Active; 'I' for Inactive)
REMARK    1  A    between atoms: N3_8  and  C4_10
REMARK    2  A    between atoms: C4_10  and  C5_11
REMARK    3  A    between atoms: C5_11  and  C6_12
REMARK    4  A    between atoms: C6_12  and  N4_13
ROOT
HETATM    1  C4  UNL     1       4.304   9.182  -1.826  1.00  0.00     0.139 C
ENDROOT
BRANCH   1   2
HETATM    2  N3  UNL     1       4.327  10.105  -2.937  1.00  0.00    -0.225 N
HETATM    3  C3  UNL     1       3.967   9.718  -4.115  1.00  0.00     0.694 A
HETATM    4  N2  UNL     1       3.538   8.513  -4.534  1.00  0.00    -0.131 N
HETATM    5  N6  UNL     1       3.948  10.490  -5.221  1.00  0.00    -0.179 N
HETATM    6  N1  UNL     1       3.273   8.548  -5.825  1.00  0.00    -0.275 N
ATOM      7  H2  UNL     1       3.434   7.691  -3.939  1.00  0.00     0.205 HD
HETATM    8  C2  UNL     1       3.523   9.786  -6.284  1.00  0.00     0.108 A
ATOM      9  H1  UNL     1       2.933   7.764  -6.383  1.00  0.00     0.189 HD
HETATM   10  C1  UNL     1       3.360  10.280  -7.697  1.00  0.00     0.091 C
ATOM     11  H6  UNL     1       4.219  11.473  -5.248  1.00  0.00     0.185 HD
ATOM     12  H3  UNL     1       4.630  11.068  -2.789  1.00  0.00     0.177 HD
ENDBRANCH   1   2
BRANCH   1  13
HETATM   13  C5  UNL     1       2.909   8.907  -1.335  1.00  0.00     0.040 C
BRANCH  13  14
HETATM   14  C6  UNL     1       2.718   9.344   0.101  1.00  0.00     0.122 C
BRANCH  14  15
HETATM   15  N4  UNL     1       3.562  10.452   0.456  1.00  0.00    -0.380 N
HETATM   16  C7  UNL     1       3.474  11.121   1.541  1.00  0.00     0.072 C
HETATM   17  C8  UNL     1       2.454  10.777   2.535  1.00  0.00     0.076 C
HETATM   18  N5  UNL     1       4.398  12.208   1.756  1.00  0.00    -0.380 N
HETATM   19  C9  UNL     1       2.872  11.150   3.945  1.00  0.00     0.009 C
HETATM   20  C10 UNL     1       3.344  12.604   3.881  1.00  0.00     0.020 C
HETATM   21  C11 UNL     1       4.648  12.603   3.133  1.00  0.00     0.121 C
ATOM     22  H5  UNL     1       4.856  12.679   0.976  1.00  0.00     0.160 HD
ATOM     23  H4  UNL     1       4.287  10.725  -0.208  1.00  0.00     0.160 HD
ENDBRANCH  14  15
ENDBRANCH  13  14
ENDBRANCH   1  13
TORSDOF 4
ENDMDL