MODEL 4
REMARK VINA RESULT: -4.661143748      1.889      3.594
REMARK  6 active torsions:
REMARK  status: ('A' for Active; 'I' for Inactive)
REMARK    1  A    between atoms: C2_2  and  C3_3
REMARK    2  A    between atoms: C3_3  and  C4_4
REMARK    3  A    between atoms: C5_5  and  N1_6
REMARK    4  A    between atoms: N1_6  and  C7_8
REMARK    5  A    between atoms: C10_13  and  N3_14
REMARK    6  A    between atoms: C11_19  and  N5_20
ROOT
HETATM    1  C4  UNL     1       4.757  11.744  -5.363  1.00  0.00     0.031 A
HETATM    2  C5  UNL     1       5.555  12.616  -6.050  1.00  0.00     0.129 A
HETATM    3  N2  UNL     1       6.835  12.772  -5.639  1.00  0.00    -0.176 N
ATOM      4  H2  UNL     1       7.434  13.422  -6.148  1.00  0.00     0.186 HD
HETATM    5  C10 UNL     1       7.350  12.114  -4.595  1.00  0.00     0.679 A
HETATM    6  N4  UNL     1       6.594  11.251  -3.899  1.00  0.00    -0.177 N
ATOM      7  H4  UNL     1       6.979  10.745  -3.102  1.00  0.00     0.186 HD
HETATM    8  C11 UNL     1       5.320  11.069  -4.277  1.00  0.00     0.126 A
ENDROOT
BRANCH   2   9
HETATM    9  N1  UNL     1       5.144  13.378  -7.172  1.00  0.00    -0.367 N
HETATM   10  C6  UNL     1       5.690  13.031  -8.474  1.00  0.00     0.151 C
BRANCH   9  11
HETATM   11  C7  UNL     1       4.193  14.465  -7.076  1.00  0.00     0.077 C
HETATM   12  C8  UNL     1       4.701  15.462  -6.062  1.00  0.00     0.032 C
HETATM   13  C9  UNL     1       4.096  15.233  -8.393  1.00  0.00     0.032 C
ENDBRANCH   9  11
ENDBRANCH   2   9
BRANCH   1  14
HETATM   14  C3  UNL     1       3.348  11.487  -5.715  1.00  0.00     0.046 C
BRANCH  14  15
HETATM   15  C2  UNL     1       3.130  10.452  -6.765  1.00  0.00     0.000 C
HETATM   16  C1  UNL     1       2.538  11.178  -7.978  1.00  0.00     0.005 C
ENDBRANCH  14  15
ENDBRANCH   1  14
BRANCH   8  17
HETATM   17  N5  UNL     1       4.621  10.236  -3.586  1.00  0.00    -0.380 N
HETATM   18  C12 UNL     1       4.680  10.131  -2.157  1.00  0.00     0.147 C
ATOM     19  H5  UNL     1       3.986   9.614  -4.086  1.00  0.00     0.160 HD
ENDBRANCH   8  17
BRANCH   5  20
HETATM   20  N3  UNL     1       8.596  12.311  -4.251  1.00  0.00    -0.234 N
ATOM     21  H32 UNL     1       8.950  13.263  -4.148  1.00  0.00     0.174 HD
ATOM     22  H31 UNL     1       9.210  11.513  -4.085  1.00  0.00     0.174 HD
ENDBRANCH   5  20
TORSDOF 6
ENDMDL