MODEL 3
REMARK VINA RESULT: -7.127739088      0.793      1.083
REMARK  7 active torsions:
REMARK  status: ('A' for Active; 'I' for Inactive)
REMARK    1  A    between atoms: C2_2  and  N1_3
REMARK    2  A    between atoms: N1_3  and  C3_5
REMARK    3  A    between atoms: C4_8  and  N3_9
REMARK    4  A    between atoms: C6_14  and  N5_15
REMARK    5  A    between atoms: N5_15  and  C7_17
REMARK    6  A    between atoms: C7_17  and  C8_18
REMARK    7  A    between atoms: C8_18  and  C9_19
ROOT
HETATM    1  C3  UNL     1       3.317   9.814  -4.930  1.00  0.00     0.707 A
HETATM    2  N2  UNL     1       4.466  10.517  -4.895  1.00  0.00    -0.022 N
ATOM      3  H2  UNL     1       4.812  10.965  -5.745  1.00  0.00     0.203 HD
HETATM    4  C4  UNL     1       5.160  10.635  -3.749  1.00  0.00     0.706 A
HETATM    5  N4  UNL     1       4.725  10.056  -2.622  1.00  0.00    -0.022 N
ATOM      6  H4  UNL     1       5.262  10.154  -1.760  1.00  0.00     0.203 HD
HETATM    7  C6  UNL     1       3.588   9.349  -2.619  1.00  0.00     0.707 A
HETATM    8  N6  UNL     1       2.918   9.250  -3.779  1.00  0.00    -0.022 N
ATOM      9  H6  UNL     1       2.052   8.713  -3.787  1.00  0.00     0.203 HD
ENDROOT
BRANCH   7  10
HETATM   10  N5  UNL     1       3.108   8.772  -1.600  1.00  0.00    -0.225 N
ATOM     11  H5  UNL     1       2.806   7.804  -1.710  1.00  0.00     0.177 HD
BRANCH  10  12
HETATM   12  C7  UNL     1       2.951   9.370  -0.290  1.00  0.00     0.138 C
BRANCH  12  13
HETATM   13  C8  UNL     1       1.540   9.155   0.132  1.00  0.00     0.024 C
BRANCH  13  14
HETATM   14  C9  UNL     1       1.208   9.656   1.500  1.00  0.00    -0.021 C
HETATM   15  C10 UNL     1       2.272  10.645   1.926  1.00  0.00     0.009 C
HETATM   16  C11 UNL     1       1.085   8.604   2.539  1.00  0.00     0.009 C
ENDBRANCH  13  14
ENDBRANCH  12  13
ENDBRANCH  10  12
ENDBRANCH   7  10
BRANCH   4  17
HETATM   17  N3  UNL     1       6.276  11.330  -3.759  1.00  0.00    -0.229 N
HETATM   18  C5  UNL     1       6.971  11.572  -4.996  1.00  0.00     0.165 C
ATOM     19  H3  UNL     1       6.651  11.700  -2.885  1.00  0.00     0.177 HD
ENDBRANCH   4  17
BRANCH   1  20
HETATM   20  N1  UNL     1       2.633   9.690  -6.029  1.00  0.00    -0.225 N
ATOM     21  H1  UNL     1       1.648   9.430  -5.976  1.00  0.00     0.177 HD
BRANCH  20  22
HETATM   22  C2  UNL     1       3.226   9.908  -7.312  1.00  0.00     0.133 C
HETATM   23  C1  UNL     1       2.644  11.162  -7.910  1.00  0.00     0.027 C
ENDBRANCH  20  22
ENDBRANCH   1  20
TORSDOF 7
ENDMDL