MODEL 1
REMARK VINA RESULT: -6.535764516      0.000      0.000
REMARK  7 active torsions:
REMARK  status: ('A' for Active; 'I' for Inactive)
REMARK    1  A    between atoms: C2_2  and  C3_3
REMARK    2  A    between atoms: C3_3  and  N1_4
REMARK    3  A    between atoms: N1_4  and  C4_6
REMARK    4  A    between atoms: C5_9  and  N3_10
REMARK    5  A    between atoms: N3_10  and  C6_12
REMARK    6  A    between atoms: C8_16  and  N5_17
REMARK    7  A    between atoms: N5_17  and  C9_19
ROOT
HETATM    1  C4  UNL     1       3.806   9.281  -2.338  1.00  0.00     0.707 A
HETATM    2  N2  UNL     1       3.287   8.830  -3.489  1.00  0.00    -0.022 N
ATOM      3  H2  UNL     1       2.597   8.079  -3.464  1.00  0.00     0.203 HD
HETATM    4  C5  UNL     1       3.659   9.348  -4.689  1.00  0.00     0.707 A
HETATM    5  N4  UNL     1       4.564  10.334  -4.751  1.00  0.00    -0.022 N
ATOM      6  H4  UNL     1       4.845  10.725  -5.650  1.00  0.00     0.203 HD
HETATM    7  C8  UNL     1       5.095  10.798  -3.607  1.00  0.00     0.707 A
HETATM    8  N6  UNL     1       4.710  10.267  -2.416  1.00  0.00    -0.022 N
ATOM      9  H6  UNL     1       5.121  10.631  -1.556  1.00  0.00     0.203 HD
ENDROOT
BRANCH   1  10
HETATM   10  N1  UNL     1       3.456   8.794  -1.200  1.00  0.00    -0.225 N
ATOM     11  H1  UNL     1       4.156   8.447  -0.545  1.00  0.00     0.177 HD
BRANCH  10  12
HETATM   12  C3  UNL     1       2.046   8.749  -0.870  1.00  0.00     0.137 C
BRANCH  12  13
HETATM   13  C2  UNL     1       1.764   9.472   0.430  1.00  0.00     0.016 C
HETATM   14  C1  UNL     1       0.320   9.371   0.791  1.00  0.00     0.006 C
ENDBRANCH  12  13
ENDBRANCH  10  12
ENDBRANCH   1  10
BRANCH   4  15
HETATM   15  N3  UNL     1       3.172   8.928  -5.807  1.00  0.00    -0.225 N
ATOM     16  H3  UNL     1       2.882   7.957  -5.922  1.00  0.00     0.177 HD
BRANCH  15  17
HETATM   17  C6  UNL     1       3.047   9.879  -6.899  1.00  0.00     0.133 C
HETATM   18  C7  UNL     1       3.961   9.469  -8.048  1.00  0.00     0.027 C
ENDBRANCH  15  17
ENDBRANCH   4  15
BRANCH   7  19
HETATM   19  N5  UNL     1       5.955  11.733  -3.643  1.00  0.00    -0.220 N
ATOM     20  H5  UNL     1       6.798  11.672  -3.072  1.00  0.00     0.178 HD
BRANCH  19  21
HETATM   21  C9  UNL     1       5.741  12.877  -4.487  1.00  0.00     0.099 A
HETATM   22  C10 UNL     1       6.122  14.194  -3.885  1.00  0.00     0.028 A
HETATM   23  C11 UNL     1       4.669  13.841  -4.059  1.00  0.00     0.028 A
ENDBRANCH  19  21
ENDBRANCH   7  19
TORSDOF 7
ENDMDL