MODEL 2
REMARK VINA RESULT: -7.366779971      1.163      2.341
REMARK  4 active torsions:
REMARK  status: ('A' for Active; 'I' for Inactive)
REMARK    1  A    between atoms: C2_3  and  N2_4
REMARK       I    between atoms: N2_4  and  C3_6
REMARK       I    between atoms: C3_6  and  N4_17
REMARK    2  A    between atoms: N3_7  and  C4_9
REMARK    3  A    between atoms: C4_9  and  C5_10
REMARK    4  A    between atoms: C5_10  and  C6_11
ROOT
HETATM    1  N1  UNL     1       5.420  12.774  -7.311  1.00  0.00    -0.196 NA
HETATM    2  C1  UNL     1       5.522  12.076  -6.369  1.00  0.00     0.079 C
HETATM    3  C2  UNL     1       5.634  11.203  -5.206  1.00  0.00     0.262 C
ENDROOT
BRANCH   3   4
HETATM    4  N2  UNL     1       4.411  11.151  -4.436  1.00  0.00    -0.213 N
HETATM    5  C3  UNL     1       3.946   9.887  -3.974  1.00  0.00     0.683 C
HETATM    6  N3  UNL     1       4.005   9.700  -2.703  1.00  0.00    -0.226 N
HETATM    7  N4  UNL     1       3.460   8.942  -4.895  1.00  0.00    -0.126 N
ATOM      8  H3  UNL     1       4.376  10.462  -2.136  1.00  0.00     0.177 HD
HETATM    9  C12 UNL     1       3.199   9.299  -6.218  1.00  0.00     0.196 C
ATOM     10  H4  UNL     1       3.295   7.982  -4.592  1.00  0.00     0.197 HD
HETATM   11  N5  UNL     1       2.965   9.585  -7.335  1.00  0.00    -0.171 NA
ATOM     12  H2  UNL     1       3.891  12.003  -4.229  1.00  0.00     0.178 HD
BRANCH   6  13
HETATM   13  C4  UNL     1       3.590   8.499  -2.012  1.00  0.00     0.138 C
BRANCH  13  14
HETATM   14  C5  UNL     1       3.271   8.860  -0.591  1.00  0.00     0.025 C
BRANCH  14  15
HETATM   15  C6  UNL     1       1.859   9.340  -0.380  1.00  0.00    -0.013 C
HETATM   16  C7  UNL     1       1.761  10.012   0.956  1.00  0.00     0.005 C
HETATM   17  C8  UNL     1       1.449   9.104   2.100  1.00  0.00     0.000 C
HETATM   18  C9  UNL     1       0.185   8.296   1.773  1.00  0.00     0.000 C
HETATM   19  C10 UNL     1       0.600   7.394   0.615  1.00  0.00     0.000 C
HETATM   20  C11 UNL     1       0.808   8.302  -0.578  1.00  0.00     0.005 C
ENDBRANCH  14  15
ENDBRANCH  13  14
ENDBRANCH   6  13
ENDBRANCH   3   4
TORSDOF 4
ENDMDL