MODEL 5
REMARK VINA RESULT: -5.210187521      1.371      4.843
REMARK  6 active torsions:
REMARK  status: ('A' for Active; 'I' for Inactive)
REMARK    1  A    between atoms: O1_3  and  C3_4
REMARK    2  A    between atoms: C3_4  and  C4_5
REMARK    3  A    between atoms: C5_7  and  C6_8
REMARK    4  A    between atoms: C6_8  and  O3_9
REMARK    5  A    between atoms: C7_11  and  O4_12
REMARK    6  A    between atoms: C8_14  and  O5_15
ROOT
HETATM    1  C1  UNL     1      -2.790  -4.480 -18.414  1.00  0.00     0.044 C
HETATM    2  C2  UNL     1      -2.416  -5.257 -17.573  1.00  0.00     0.043 C
HETATM    3  O1  UNL     1      -2.003  -6.152 -16.630  1.00  0.00    -0.302 OA
ENDROOT
BRANCH   3   4
HETATM    4  C3  UNL     1      -1.146  -5.789 -15.565  1.00  0.00     0.222 C
BRANCH   4   5
HETATM    5  C4  UNL     1       0.134  -5.183 -16.020  1.00  0.00     0.178 C
HETATM    6  O2  UNL     1       1.182  -5.359 -15.113  1.00  0.00    -0.371 OA
HETATM    7  C5  UNL     1       2.201  -4.690 -15.787  1.00  0.00     0.177 C
HETATM    8  C7  UNL     1       1.584  -3.338 -16.020  1.00  0.00     0.180 C
HETATM    9  C8  UNL     1       0.104  -3.703 -16.197  1.00  0.00     0.180 C
BRANCH   7  10
HETATM   10  C6  UNL     1       3.477  -4.626 -14.998  1.00  0.00     0.198 C
BRANCH  10  11
HETATM   11  O3  UNL     1       3.106  -4.392 -13.656  1.00  0.00    -0.398 OA
ATOM     12  H3  UNL     1       3.384  -3.506 -13.451  1.00  0.00     0.209 HD
ENDBRANCH  10  11
ENDBRANCH   7  10
BRANCH   8  13
HETATM   13  O4  UNL     1       1.785  -2.452 -14.996  1.00  0.00    -0.390 OA
ATOM     14  H4  UNL     1       1.222  -1.688 -15.031  1.00  0.00     0.210 HD
ENDBRANCH   8  13
BRANCH   9  15
HETATM   15  O5  UNL     1      -0.692  -3.039 -15.289  1.00  0.00    -0.390 OA
ATOM     16  H5  UNL     1      -1.538  -3.445 -15.141  1.00  0.00     0.210 HD
ENDBRANCH   9  15
ENDBRANCH   4   5
ENDBRANCH   3   4
TORSDOF 6
ENDMDL