MODEL 3
REMARK VINA RESULT: -3.417032435      1.939      3.360
REMARK  6 active torsions:
REMARK  status: ('A' for Active; 'I' for Inactive)
REMARK    1  A    between atoms: O1_2  and  C2_3
REMARK    2  A    between atoms: C3_4  and  O2_5
REMARK    3  A    between atoms: C4_7  and  C6_9
REMARK    4  A    between atoms: C6_9  and  O3_10
REMARK    5  A    between atoms: C7_12  and  O4_13
REMARK    6  A    between atoms: C7_12  and  O5_15
ROOT
HETATM    1  C2  UNL     1      -0.762  -5.799 -16.712  1.00  0.00     0.213 C
HETATM    2  C3  UNL     1      -1.044  -4.518 -17.492  1.00  0.00     0.168 C
HETATM    3  C4  UNL     1      -0.740  -3.749 -16.258  1.00  0.00     0.065 C
HETATM    4  C5  UNL     1      -1.866  -3.400 -15.356  1.00  0.00     0.026 C
HETATM    5  C7  UNL     1       0.114  -4.938 -15.793  1.00  0.00     0.202 C
ENDROOT
BRANCH   3   6
HETATM    6  C6  UNL     1       0.136  -2.512 -16.499  1.00  0.00     0.181 C
BRANCH   6   7
HETATM    7  O3  UNL     1       0.112  -2.183 -17.852  1.00  0.00    -0.400 OA
ATOM      8  H3  UNL     1      -0.190  -1.288 -17.955  1.00  0.00     0.209 HD
ENDBRANCH   6   7
ENDBRANCH   3   6
BRANCH   2   9
HETATM    9  O2  UNL     1      -2.303  -4.414 -18.022  1.00  0.00    -0.392 OA
ATOM     10  H2  UNL     1      -3.016  -4.601 -17.423  1.00  0.00     0.210 HD
ENDBRANCH   2   9
BRANCH   5  11
HETATM   11  O4  UNL     1      -0.015  -5.250 -14.466  1.00  0.00    -0.362 OA
ATOM     12  H4  UNL     1       0.476  -4.674 -13.892  1.00  0.00     0.213 HD
ENDBRANCH   5  11
BRANCH   5  13
HETATM   13  O5  UNL     1       1.389  -4.791 -16.294  1.00  0.00    -0.357 OA
HETATM   14  C8  UNL     1       2.390  -5.041 -15.372  1.00  0.00     0.205 C
ENDBRANCH   5  13
BRANCH   1  15
HETATM   15  O1  UNL     1      -1.924  -6.247 -16.123  1.00  0.00    -0.383 OA
HETATM   16  C1  UNL     1      -2.503  -7.324 -16.757  1.00  0.00     0.202 C
ENDBRANCH   1  15
TORSDOF 6
ENDMDL