MODEL 2
REMARK VINA RESULT: -4.306025159      1.068      1.331
REMARK  6 active torsions:
REMARK  status: ('A' for Active; 'I' for Inactive)
REMARK    1  A    between atoms: O1_2  and  C2_3
REMARK    2  A    between atoms: C3_4  and  C4_5
REMARK    3  A    between atoms: C4_5  and  O2_6
REMARK    4  A    between atoms: C5_9  and  N1_10
REMARK    5  A    between atoms: N1_10  and  O4_12
REMARK    6  A    between atoms: C7_14  and  O5_15
ROOT
HETATM    1  C2  UNL     1      -0.999  -3.972 -16.452  1.00  0.00     0.185 C
HETATM    2  C3  UNL     1      -0.985  -5.402 -16.939  1.00  0.00     0.179 C
HETATM    3  O3  UNL     1      -0.053  -6.008 -16.135  1.00  0.00    -0.352 OA
HETATM    4  C5  UNL     1       1.033  -5.149 -16.175  1.00  0.00     0.275 C
HETATM    5  C7  UNL     1       0.480  -3.761 -16.144  1.00  0.00     0.200 C
ENDROOT
BRANCH   4   6
HETATM    6  N1  UNL     1       1.783  -5.374 -14.962  1.00  0.00    -0.269 N
HETATM    7  C6  UNL     1       2.644  -4.303 -14.578  1.00  0.00     0.181 C
BRANCH   6   8
HETATM    8  O4  UNL     1       1.118  -5.977 -13.985  1.00  0.00    -0.290 OA
ATOM      9  H4  UNL     1       1.651  -6.475 -13.375  1.00  0.00     0.244 HD
ENDBRANCH   6   8
ENDBRANCH   4   6
BRANCH   5  10
HETATM   10  O5  UNL     1       1.080  -2.991 -17.167  1.00  0.00    -0.388 OA
ATOM     11  H5  UNL     1       0.412  -2.652 -17.751  1.00  0.00     0.210 HD
ENDBRANCH   5  10
BRANCH   2  12
HETATM   12  C4  UNL     1      -2.337  -6.037 -16.932  1.00  0.00     0.198 C
BRANCH  12  13
HETATM   13  O2  UNL     1      -2.295  -7.422 -16.853  1.00  0.00    -0.398 OA
ATOM     14  H2  UNL     1      -2.525  -7.757 -15.994  1.00  0.00     0.209 HD
ENDBRANCH  12  13
ENDBRANCH   2  12
BRANCH   1  15
HETATM   15  O1  UNL     1      -1.704  -3.833 -15.284  1.00  0.00    -0.385 OA
HETATM   16  C1  UNL     1      -2.665  -2.846 -15.303  1.00  0.00     0.202 C
ENDBRANCH   1  15
TORSDOF 6
ENDMDL