MODEL 4
REMARK VINA RESULT: -5.073859535      1.405      3.016
REMARK  5 active torsions:
REMARK  status: ('A' for Active; 'I' for Inactive)
REMARK    1  A    between atoms: O1_2  and  C2_3
REMARK    2  A    between atoms: C3_5  and  C4_6
REMARK    3  A    between atoms: C4_6  and  O3_7
REMARK    4  A    between atoms: C5_9  and  O4_10
REMARK    5  A    between atoms: C7_12  and  O5_13
ROOT
HETATM    1  C2  UNL     1       2.527  -4.798 -14.863  1.00  0.00     0.290 C
HETATM    2  O2  UNL     1       2.104  -6.072 -15.177  1.00  0.00    -0.349 OA
HETATM    3  C3  UNL     1       0.733  -6.031 -15.382  1.00  0.00     0.179 C
HETATM    4  C5  UNL     1       0.340  -4.586 -15.491  1.00  0.00     0.185 C
HETATM    5  C7  UNL     1       1.652  -3.939 -15.777  1.00  0.00     0.204 C
ENDROOT
BRANCH   3   6
HETATM    6  C4  UNL     1       0.438  -6.820 -16.635  1.00  0.00     0.198 C
BRANCH   6   7
HETATM    7  O3  UNL     1       0.902  -8.117 -16.542  1.00  0.00    -0.398 OA
ATOM      8  H3  UNL     1       1.575  -8.296 -17.188  1.00  0.00     0.209 HD
ENDBRANCH   6   7
ENDBRANCH   3   6
BRANCH   4   9
HETATM    9  O4  UNL     1      -0.686  -4.315 -16.321  1.00  0.00    -0.385 OA
HETATM   10  C6  UNL     1      -1.684  -3.501 -15.872  1.00  0.00     0.202 C
ENDBRANCH   4   9
BRANCH   1  11
HETATM   11  O1  UNL     1       3.865  -4.605 -15.119  1.00  0.00    -0.363 OA
HETATM   12  C1  UNL     1       4.548  -3.983 -14.095  1.00  0.00     0.204 C
ENDBRANCH   1  11
BRANCH   5  13
HETATM   13  O5  UNL     1       1.723  -2.623 -15.342  1.00  0.00    -0.388 OA
ATOM     14  H5  UNL     1       0.862  -2.231 -15.430  1.00  0.00     0.210 HD
ENDBRANCH   5  13
TORSDOF 5
ENDMDL