MODEL 4
REMARK VINA RESULT: -3.525521245      1.324      3.256
REMARK  5 active torsions:
REMARK  status: ('A' for Active; 'I' for Inactive)
REMARK    1  A    between atoms: O1_2  and  C2_3
REMARK    2  A    between atoms: C3_5  and  O3_6
REMARK    3  A    between atoms: C5_8  and  O4_9
REMARK    4  A    between atoms: C6_11  and  O5_12
REMARK    5  A    between atoms: C7_14  and  O6_15
ROOT
HETATM    1  C2  UNL     1      -0.533  -4.751 -16.328  1.00  0.00     0.293 C
HETATM    2  O2  UNL     1       0.390  -3.827 -16.702  1.00  0.00    -0.326 OA
HETATM    3  C3  UNL     1       1.630  -3.896 -16.137  1.00  0.00     0.293 C
HETATM    4  C5  UNL     1       2.248  -5.279 -16.204  1.00  0.00     0.204 C
HETATM    5  C6  UNL     1       1.337  -6.204 -15.455  1.00  0.00     0.185 C
HETATM    6  C7  UNL     1      -0.041  -6.117 -15.999  1.00  0.00     0.204 C
ENDROOT
BRANCH   1   7
HETATM    7  O1  UNL     1      -1.279  -4.210 -15.278  1.00  0.00    -0.363 OA
HETATM    8  C1  UNL     1      -2.096  -3.172 -15.660  1.00  0.00     0.204 C
ENDBRANCH   1   7
BRANCH   6   9
HETATM    9  O6  UNL     1      -0.154  -6.995 -17.084  1.00  0.00    -0.388 OA
ATOM     10  H6  UNL     1      -0.406  -6.547 -17.883  1.00  0.00     0.210 HD
ENDBRANCH   6   9
BRANCH   3  11
HETATM   11  O3  UNL     1       1.636  -3.407 -14.836  1.00  0.00    -0.363 OA
HETATM   12  C4  UNL     1       2.872  -2.883 -14.493  1.00  0.00     0.204 C
ENDBRANCH   3  11
BRANCH   5  13
HETATM   13  O5  UNL     1       1.402  -5.997 -14.075  1.00  0.00    -0.390 OA
ATOM     14  H5  UNL     1       1.749  -6.755 -13.618  1.00  0.00     0.210 HD
ENDBRANCH   5  13
BRANCH   4  15
HETATM   15  O4  UNL     1       3.537  -5.250 -15.737  1.00  0.00    -0.388 OA
ATOM     16  H4  UNL     1       3.577  -5.598 -14.854  1.00  0.00     0.210 HD
ENDBRANCH   4  15
TORSDOF 5
ENDMDL