MODEL 3
REMARK VINA RESULT: -6.576831434      1.608      5.006
REMARK  5 active torsions:
REMARK  status: ('A' for Active; 'I' for Inactive)
REMARK    1  A    between atoms: C2_2  and  O1_3
REMARK    2  A    between atoms: C2_2  and  O3_9
REMARK    3  A    between atoms: O1_3  and  C3_4
REMARK    4  A    between atoms: N1_5  and  O2_7
REMARK    5  A    between atoms: O3_9  and  C4_10
ROOT
HETATM    1  O3  UNL     1       1.133  -4.530 -16.344  1.00  0.00    -0.330 OA
ENDROOT
BRANCH   1   2
HETATM    2  C2  UNL     1       0.774  -5.620 -15.552  1.00  0.00     0.266 C
HETATM    3  C1  UNL     1       0.785  -6.861 -16.409  1.00  0.00     0.071 C
BRANCH   2   4
HETATM    4  O1  UNL     1      -0.535  -5.328 -15.068  1.00  0.00    -0.315 OA
BRANCH   4   5
HETATM    5  C3  UNL     1      -1.396  -4.692 -15.943  1.00  0.00     0.251 C
HETATM    6  N1  UNL     1      -1.585  -3.437 -15.746  1.00  0.00    -0.258 N
ATOM      7  H1  UNL     1      -1.120  -2.944 -14.983  1.00  0.00     0.195 HD
BRANCH   6   8
HETATM    8  O2  UNL     1      -2.437  -2.785 -16.604  1.00  0.00    -0.289 OA
ATOM      9  H2  UNL     1      -3.038  -2.155 -16.227  1.00  0.00     0.244 HD
ENDBRANCH   6   8
ENDBRANCH   4   5
ENDBRANCH   2   4
ENDBRANCH   1   2
BRANCH   1  10
HETATM   10  C4  UNL     1       2.384  -4.080 -15.926  1.00  0.00     0.284 C
HETATM   11  C5  UNL     1       2.162  -2.963 -14.947  1.00  0.00     0.200 C
HETATM   12  N2  UNL     1       3.064  -2.996 -13.845  1.00  0.00    -0.334 N
HETATM   13  N3  UNL     1       4.001  -3.792 -13.723  1.00  0.00    -0.317 N
ATOM     14  H2  UNL     1       2.926  -2.311 -13.101  1.00  0.00     0.180 HD
HETATM   15  C6  UNL     1       4.245  -4.785 -14.746  1.00  0.00     0.310 C
ATOM     16  H3  UNL     1       4.603  -3.748 -12.901  1.00  0.00     0.182 HD
HETATM   17  O4  UNL     1       3.090  -5.141 -15.408  1.00  0.00    -0.339 OA
ENDBRANCH   1  10
TORSDOF 5
ENDMDL