MODEL 4
REMARK VINA RESULT: -4.745003381      1.369      2.679
REMARK  6 active torsions:
REMARK  status: ('A' for Active; 'I' for Inactive)
REMARK    1  A    between atoms: O1_2  and  C2_3
REMARK    2  A    between atoms: C3_4  and  O2_5
REMARK    3  A    between atoms: C4_8  and  C5_9
REMARK    4  A    between atoms: C5_9  and  O4_10
REMARK    5  A    between atoms: C6_13  and  C7_14
REMARK    6  A    between atoms: C7_14  and  O6_15
ROOT
HETATM    1  C2  UNL     1      -0.482  -3.629 -16.125  1.00  0.00     0.207 C
HETATM    2  C3  UNL     1       0.895  -3.030 -16.334  1.00  0.00     0.291 C
HETATM    3  O3  UNL     1       1.767  -4.015 -16.790  1.00  0.00    -0.327 OA
HETATM    4  C4  UNL     1       1.938  -5.043 -15.885  1.00  0.00     0.287 C
HETATM    5  O5  UNL     1       0.852  -5.176 -15.020  1.00  0.00    -0.349 OA
HETATM    6  C6  UNL     1      -0.282  -5.079 -15.856  1.00  0.00     0.182 C
ENDROOT
BRANCH   4   7
HETATM    7  C5  UNL     1       3.244  -4.940 -15.134  1.00  0.00     0.224 C
BRANCH   7   8
HETATM    8  O4  UNL     1       3.040  -4.491 -13.831  1.00  0.00    -0.396 OA
ATOM      9  H4  UNL     1       2.677  -3.613 -13.823  1.00  0.00     0.209 HD
ENDBRANCH   7   8
ENDBRANCH   4   7
BRANCH   2  10
HETATM   10  O2  UNL     1       1.377  -2.530 -15.137  1.00  0.00    -0.368 OA
ATOM     11  H2  UNL     1       0.749  -1.922 -14.765  1.00  0.00     0.212 HD
ENDBRANCH   2  10
BRANCH   6  12
HETATM   12  C7  UNL     1      -1.472  -5.768 -15.253  1.00  0.00     0.199 C
BRANCH  12  13
HETATM   13  O6  UNL     1      -2.138  -6.411 -16.316  1.00  0.00    -0.398 OA
ATOM     14  H6  UNL     1      -1.483  -6.571 -16.985  1.00  0.00     0.209 HD
ENDBRANCH  12  13
ENDBRANCH   6  12
BRANCH   1  15
HETATM   15  O1  UNL     1      -1.337  -3.366 -17.176  1.00  0.00    -0.383 OA
HETATM   16  C1  UNL     1      -2.528  -2.765 -16.747  1.00  0.00     0.202 C
ENDBRANCH   1  15
TORSDOF 6
ENDMDL