MODEL 4
REMARK VINA RESULT: -5.484029695      1.198      1.256
REMARK  5 active torsions:
REMARK  status: ('A' for Active; 'I' for Inactive)
REMARK    1  A    between atoms: O1_1  and  C1_3
REMARK    2  A    between atoms: C3_6  and  O3_7
REMARK    3  A    between atoms: O3_7  and  C4_8
REMARK    4  A    between atoms: C4_8  and  C5_9
REMARK    5  A    between atoms: C7_12  and  O5_13
ROOT
HETATM    1  C1  UNL     1      -1.943  -4.281 -17.600  1.00  0.00     0.175 C
HETATM    2  C2  UNL     1      -1.996  -5.641 -16.961  1.00  0.00     0.205 C
HETATM    3  O2  UNL     1      -1.229  -5.576 -15.799  1.00  0.00    -0.356 OA
HETATM    4  C3  UNL     1      -0.159  -4.784 -16.206  1.00  0.00     0.290 C
HETATM    5  C7  UNL     1      -0.913  -3.562 -16.736  1.00  0.00     0.204 C
ENDROOT
BRANCH   4   6
HETATM    6  O3  UNL     1       0.714  -4.465 -15.201  1.00  0.00    -0.356 OA
BRANCH   6   7
HETATM    7  C4  UNL     1       1.748  -5.347 -15.074  1.00  0.00     0.205 C
BRANCH   7   8
HETATM    8  C5  UNL     1       3.047  -4.655 -15.422  1.00  0.00     0.169 A
HETATM    9  C6  UNL     1       3.701  -3.906 -14.280  1.00  0.00     0.202 A
HETATM   10  O4  UNL     1       4.215  -5.095 -14.802  1.00  0.00    -0.379 OA
ENDBRANCH   7   8
ENDBRANCH   6   7
ENDBRANCH   4   6
BRANCH   5  11
HETATM   11  O5  UNL     1      -0.111  -2.713 -17.449  1.00  0.00    -0.388 OA
ATOM     12  H5  UNL     1      -0.336  -1.798 -17.329  1.00  0.00     0.210 HD
ENDBRANCH   5  11
BRANCH   1  13
HETATM   13  O1  UNL     1      -3.149  -3.609 -17.572  1.00  0.00    -0.391 OA
ATOM     14  H1  UNL     1      -3.060  -2.664 -17.621  1.00  0.00     0.210 HD
ENDBRANCH   1  13
TORSDOF 5
ENDMDL