MODEL 1
REMARK VINA RESULT: -4.980351197      0.000      0.000
REMARK  6 active torsions:
REMARK  status: ('A' for Active; 'I' for Inactive)
REMARK    1  A    between atoms: O1_2  and  C2_3
REMARK    2  A    between atoms: C3_5  and  C4_6
REMARK    3  A    between atoms: C3_5  and  C5_9
REMARK    4  A    between atoms: C4_6  and  O3_7
REMARK    5  A    between atoms: C5_9  and  O4_10
REMARK    6  A    between atoms: C6_13  and  O6_14
ROOT
HETATM    1  C2  UNL     1      -0.827  -3.791 -16.970  1.00  0.00     0.318 C
HETATM    2  O2  UNL     1       0.250  -4.674 -17.074  1.00  0.00    -0.316 OA
HETATM    3  C3  UNL     1       0.736  -4.711 -15.797  1.00  0.00     0.212 C
HETATM    4  O5  UNL     1      -0.304  -4.476 -14.919  1.00  0.00    -0.316 OA
HETATM    5  C6  UNL     1      -1.457  -4.308 -15.686  1.00  0.00     0.316 C
ENDROOT
BRANCH   3   6
HETATM    6  C4  UNL     1       1.371  -6.032 -15.430  1.00  0.00     0.235 C
BRANCH   6   7
HETATM    7  O3  UNL     1       1.395  -6.248 -14.053  1.00  0.00    -0.395 OA
ATOM      8  H3  UNL     1       1.611  -5.461 -13.566  1.00  0.00     0.209 HD
ENDBRANCH   6   7
ENDBRANCH   3   6
BRANCH   3   9
HETATM    9  C5  UNL     1       1.822  -3.647 -15.689  1.00  0.00     0.235 C
BRANCH   9  10
HETATM   10  O4  UNL     1       2.432  -3.747 -14.443  1.00  0.00    -0.395 OA
ATOM     11  H4  UNL     1       3.359  -3.919 -14.565  1.00  0.00     0.209 HD
ENDBRANCH   9  10
ENDBRANCH   3   9
BRANCH   1  12
HETATM   12  O1  UNL     1      -1.681  -3.842 -18.040  1.00  0.00    -0.361 OA
HETATM   13  C1  UNL     1      -2.486  -4.978 -18.044  1.00  0.00     0.205 C
ENDBRANCH   1  12
BRANCH   5  14
HETATM   14  O6  UNL     1      -2.282  -3.310 -15.190  1.00  0.00    -0.367 OA
ATOM     15  H6  UNL     1      -1.977  -3.091 -14.318  1.00  0.00     0.212 HD
ENDBRANCH   5  14
TORSDOF 6
ENDMDL