MODEL 2
REMARK VINA RESULT: -5.112516772      1.269      3.414
REMARK  6 active torsions:
REMARK  status: ('A' for Active; 'I' for Inactive)
REMARK    1  A    between atoms: O1_2  and  C2_3
REMARK    2  A    between atoms: C3_5  and  C4_6
REMARK    3  A    between atoms: C4_6  and  O3_7
REMARK    4  A    between atoms: C5_9  and  O4_10
REMARK    5  A    between atoms: C6_12  and  C7_13
REMARK    6  A    between atoms: C7_13  and  O5_14
ROOT
HETATM    1  C2  UNL     1       1.785  -4.219 -15.274  1.00  0.00     0.413 C
HETATM    2  O2  UNL     1       2.091  -5.568 -15.427  1.00  0.00    -0.329 OA
HETATM    3  C3  UNL     1       0.985  -6.351 -15.659  1.00  0.00     0.181 C
HETATM    4  C5  UNL     1      -0.258  -5.509 -15.739  1.00  0.00     0.180 C
HETATM    5  C6  UNL     1      -0.069  -4.263 -16.560  1.00  0.00     0.181 C
HETATM    6  O6  UNL     1       1.204  -3.719 -16.406  1.00  0.00    -0.329 OA
ENDROOT
BRANCH   3   7
HETATM    7  C4  UNL     1       1.193  -7.169 -16.915  1.00  0.00     0.199 C
BRANCH   7   8
HETATM    8  O3  UNL     1       0.717  -8.447 -16.778  1.00  0.00    -0.398 OA
ATOM      9  H3  UNL     1       0.885  -8.972 -17.552  1.00  0.00     0.209 HD
ENDBRANCH   7   8
ENDBRANCH   3   7
BRANCH   4  10
HETATM   10  O4  UNL     1      -1.300  -6.270 -16.308  1.00  0.00    -0.390 OA
ATOM     11  H4  UNL     1      -1.689  -5.782 -17.024  1.00  0.00     0.210 HD
ENDBRANCH   4  10
BRANCH   1  12
HETATM   12  O1  UNL     1       2.955  -3.573 -14.905  1.00  0.00    -0.344 OA
HETATM   13  C1  UNL     1       3.983  -4.450 -14.592  1.00  0.00     0.207 C
ENDBRANCH   1  12
BRANCH   5  14
HETATM   14  C7  UNL     1      -1.069  -3.186 -16.186  1.00  0.00     0.199 C
BRANCH  14  15
HETATM   15  O5  UNL     1      -2.020  -3.630 -15.281  1.00  0.00    -0.398 OA
ATOM     16  H5  UNL     1      -2.759  -3.038 -15.206  1.00  0.00     0.209 HD
ENDBRANCH  14  15
ENDBRANCH   5  14
TORSDOF 6
ENDMDL