MODEL 3
REMARK VINA RESULT: -6.854303099      1.773      6.351
REMARK  6 active torsions:
REMARK  status: ('A' for Active; 'I' for Inactive)
REMARK    1  A    between atoms: O1_2  and  C2_3
REMARK       I    between atoms: C2_3  and  N1_5
REMARK       I    between atoms: C3_7  and  N2_8
REMARK       I    between atoms: C3_7  and  N4_14
REMARK    2  A    between atoms: N2_8  and  N3_10
REMARK    3  A    between atoms: N3_10  and  C4_12
REMARK       I    between atoms: N4_14  and  C5_16
REMARK    4  A    between atoms: C5_16  and  C6_18
REMARK    5  A    between atoms: C6_18  and  O5_19
REMARK    6  A    between atoms: C6_18  and  C7_21
ROOT
HETATM    1  C2  UNL     1       4.495 -19.890 -13.001  1.00  0.00     0.378 C
HETATM    2  O2  UNL     1       5.551 -20.338 -13.582  1.00  0.00    -0.238 OA
HETATM    3  N1  UNL     1       4.468 -18.843 -12.100  1.00  0.00    -0.134 N
ATOM      4  H1  UNL     1       3.700 -18.176 -12.182  1.00  0.00     0.189 HD
HETATM    5  C3  UNL     1       5.322 -18.638 -11.172  1.00  0.00     0.704 C
HETATM    6  N2  UNL     1       4.991 -17.442 -10.405  1.00  0.00    -0.130 N
ATOM      7  H2  UNL     1       4.923 -17.485  -9.388  1.00  0.00     0.205 HD
HETATM    8  N4  UNL     1       6.437 -19.442 -10.885  1.00  0.00    -0.156 N
ATOM      9  H4  UNL     1       6.588 -20.276 -11.452  1.00  0.00     0.187 HD
HETATM   10  C5  UNL     1       7.355 -19.161  -9.864  1.00  0.00     0.269 C
HETATM   11  O4  UNL     1       7.190 -18.141  -9.159  1.00  0.00    -0.269 OA
ENDROOT
BRANCH   6  12
HETATM   12  N3  UNL     1       4.769 -16.255 -11.071  1.00  0.00    -0.263 N
ATOM     13  H3  UNL     1       3.875 -16.104 -11.538  1.00  0.00     0.190 HD
BRANCH  12  14
HETATM   14  C4  UNL     1       5.759 -15.239 -11.121  1.00  0.00     0.369 C
HETATM   15  O3  UNL     1       6.639 -15.154 -10.253  1.00  0.00    -0.282 OA
ENDBRANCH  12  14
ENDBRANCH   6  12
BRANCH   1  16
HETATM   16  O1  UNL     1       3.315 -20.580 -13.373  1.00  0.00    -0.308 OA
HETATM   17  C1  UNL     1       2.976 -21.783 -12.723  1.00  0.00     0.215 C
ENDBRANCH   1  16
BRANCH  10  18
HETATM   18  C6  UNL     1       8.513 -20.010  -9.567  1.00  0.00     0.243 C
BRANCH  18  19
HETATM   19  O5  UNL     1       8.326 -20.756  -8.385  1.00  0.00    -0.381 OA
ATOM     20  H5  UNL     1       9.150 -20.935  -7.946  1.00  0.00     0.211 HD
ENDBRANCH  18  19
BRANCH  18  21
HETATM   21  C7  UNL     1       9.797 -19.311  -9.412  1.00  0.00    -0.021 A
HETATM   22  C8  UNL     1      10.458 -19.105  -8.231  1.00  0.00     0.010 A
HETATM   23  C9  UNL     1      11.653 -18.424  -8.278  1.00  0.00     0.001 A
HETATM   24  C10 UNL     1      12.204 -17.946  -9.452  1.00  0.00     0.000 A
HETATM   25  C11 UNL     1      11.547 -18.149 -10.644  1.00  0.00     0.001 A
HETATM   26  C12 UNL     1      10.349 -18.830 -10.611  1.00  0.00     0.010 A
ENDBRANCH  18  21
ENDBRANCH  10  18
TORSDOF 6
ENDMDL