MODEL 3
REMARK VINA RESULT: -6.292996580      2.184      2.518
REMARK  7 active torsions:
REMARK  status: ('A' for Active; 'I' for Inactive)
REMARK    1  A    between atoms: N1_2  and  S1_4
REMARK    2  A    between atoms: S1_4  and  N2_7
REMARK    3  A    between atoms: N2_7  and  N3_9
REMARK    4  A    between atoms: N3_9  and  C2_11
REMARK    5  A    between atoms: C2_11  and  N4_13
REMARK    6  A    between atoms: N4_13  and  N5_15
REMARK    7  A    between atoms: C3_17  and  C4_18
ROOT
HETATM    1  C2  UNL     1       4.337 -17.772 -11.235  1.00  0.00     0.205 C
HETATM    2  S2  UNL     1       3.971 -16.862 -12.535  1.00  0.00    -0.038 SA
ENDROOT
BRANCH   1   3
HETATM    3  N3  UNL     1       4.229 -19.180 -11.349  1.00  0.00    -0.264 N
ATOM      4  H3  UNL     1       3.501 -19.678 -10.837  1.00  0.00     0.190 HD
BRANCH   3   5
HETATM    5  N2  UNL     1       5.122 -19.889 -12.164  1.00  0.00    -0.208 N
ATOM      6  H2  UNL     1       6.079 -20.118 -11.895  1.00  0.00     0.201 HD
BRANCH   5   7
HETATM    7  S1  UNL     1       4.419 -20.326 -13.663  1.00  0.00     0.332 S
HETATM    8  O1  UNL     1       2.932 -20.055 -13.573  1.00  0.00    -0.181 OA
HETATM    9  O2  UNL     1       4.963 -19.526 -14.804  1.00  0.00    -0.181 OA
BRANCH   7  10
HETATM   10  N1  UNL     1       4.637 -22.021 -13.925  1.00  0.00    -0.306 N
HETATM   11  C1  UNL     1       3.709 -22.812 -13.151  1.00  0.00     0.161 C
ATOM     12  H1  UNL     1       5.338 -22.416 -14.551  1.00  0.00     0.173 HD
ENDBRANCH   7  10
ENDBRANCH   5   7
ENDBRANCH   3   5
ENDBRANCH   1   3
BRANCH   1  13
HETATM   13  N4  UNL     1       4.757 -17.187 -10.005  1.00  0.00    -0.275 N
ATOM     14  H4  UNL     1       4.302 -17.488  -9.143  1.00  0.00     0.189 HD
BRANCH  13  15
HETATM   15  N5  UNL     1       5.741 -16.242  -9.927  1.00  0.00    -0.308 N
HETATM   16  C3  UNL     1       6.973 -16.462  -9.912  1.00  0.00     0.126 C
ATOM     17  H5  UNL     1       5.444 -15.268  -9.875  1.00  0.00     0.186 HD
BRANCH  16  18
HETATM   18  C4  UNL     1       7.684 -17.733  -9.972  1.00  0.00     0.021 A
HETATM   19  C5  UNL     1       8.214 -18.450 -10.990  1.00  0.00     0.021 A
HETATM   20  C6  UNL     1       8.820 -19.614 -10.703  1.00  0.00     0.008 A
HETATM   21  C7  UNL     1       8.862 -19.998  -9.393  1.00  0.00     0.050 A
HETATM   22  S3  UNL     1       8.053 -18.724  -8.598  1.00  0.00    -0.101 SA
ENDBRANCH  16  18
ENDBRANCH  13  15
ENDBRANCH   1  13
TORSDOF 7
ENDMDL