MODEL 2
REMARK VINA RESULT: -7.297710147      0.042      1.055
REMARK  6 active torsions:
REMARK  status: ('A' for Active; 'I' for Inactive)
REMARK    1  A    between atoms: N1_2  and  N2_4
REMARK    2  A    between atoms: C2_6  and  N3_7
REMARK    3  A    between atoms: C2_6  and  C5_14
REMARK    4  A    between atoms: N3_7  and  N4_9
REMARK       I    between atoms: N4_9  and  C3_11
REMARK    5  A    between atoms: C8_17  and  N5_18
REMARK    6  A    between atoms: N5_18  and  S1_20
ROOT
HETATM    1  N2  UNL     1       5.273 -17.561 -10.672  1.00  0.00    -0.288 N
ATOM      2  H2  UNL     1       4.359 -17.493 -11.119  1.00  0.00     0.188 HD
HETATM    3  C2  UNL     1       5.980 -18.601 -10.856  1.00  0.00     0.144 C
ENDROOT
BRANCH   3   4
HETATM    4  N3  UNL     1       5.430 -19.644 -11.706  1.00  0.00    -0.281 N
ATOM      5  H3  UNL     1       5.781 -19.759 -12.657  1.00  0.00     0.188 HD
BRANCH   4   6
HETATM    6  N4  UNL     1       4.426 -20.489 -11.233  1.00  0.00    -0.269 N
HETATM    7  C3  UNL     1       3.633 -21.201 -12.149  1.00  0.00     0.232 C
HETATM    8  C4  UNL     1       2.571 -22.095 -11.654  1.00  0.00     0.119 C
HETATM    9  O1  UNL     1       3.823 -21.082 -13.374  1.00  0.00    -0.272 OA
ATOM     10  H4  UNL     1       4.269 -20.589 -10.230  1.00  0.00     0.190 HD
ENDBRANCH   4   6
ENDBRANCH   3   4
BRANCH   3  11
HETATM   11  C5  UNL     1       7.299 -18.794 -10.288  1.00  0.00     0.011 A
HETATM   12  C6  UNL     1       7.489 -19.580  -9.202  1.00  0.00     0.017 A
HETATM   13  C7  UNL     1       8.764 -19.775  -8.664  1.00  0.00     0.031 A
HETATM   14  C8  UNL     1       9.854 -19.172  -9.229  1.00  0.00     0.042 A
HETATM   15  C10 UNL     1       9.657 -18.365 -10.344  1.00  0.00     0.031 A
HETATM   16  C11 UNL     1       8.387 -18.183 -10.862  1.00  0.00     0.017 A
BRANCH  14  17
HETATM   17  N5  UNL     1      11.148 -19.352  -8.701  1.00  0.00    -0.285 N
ATOM     18  H5  UNL     1      11.214 -19.698  -7.744  1.00  0.00     0.178 HD
BRANCH  17  19
HETATM   19  S1  UNL     1      12.622 -19.044  -9.522  1.00  0.00     0.227 S
HETATM   20  C9  UNL     1      13.053 -17.341  -9.610  1.00  0.00     0.186 C
HETATM   21  O2  UNL     1      12.477 -19.534 -10.956  1.00  0.00    -0.206 OA
HETATM   22  O3  UNL     1      13.773 -19.801  -8.912  1.00  0.00    -0.206 OA
ENDBRANCH  17  19
ENDBRANCH  14  17
ENDBRANCH   3  11
BRANCH   1  23
HETATM   23  N1  UNL     1       5.714 -16.523  -9.881  1.00  0.00    -0.339 N
HETATM   24  C1  UNL     1       6.214 -15.291 -10.508  1.00  0.00     0.167 C
ATOM     25  H1  UNL     1       5.693 -16.609  -8.865  1.00  0.00     0.179 HD
ENDBRANCH   1  23
TORSDOF 6
ENDMDL