MODEL 5
REMARK VINA RESULT: -7.301658501      2.824      7.595
REMARK  5 active torsions:
REMARK  status: ('A' for Active; 'I' for Inactive)
REMARK       I    between atoms: C1_4  and  N3_6
REMARK    1  A    between atoms: C3_9  and  C4_10
REMARK    2  A    between atoms: C4_10  and  C5_12
REMARK       I    between atoms: C5_12  and  N4_14
REMARK    3  A    between atoms: N4_14  and  C6_16
REMARK    4  A    between atoms: C6_16  and  C7_17
REMARK    5  A    between atoms: C7_17  and  N5_18
ROOT
HETATM    1  C5  UNL     1       7.596 -18.203 -10.104  1.00  0.00     0.290 C
HETATM    2  O3  UNL     1       7.191 -17.036  -9.767  1.00  0.00    -0.264 OA
HETATM    3  N4  UNL     1       7.140 -18.719 -11.345  1.00  0.00    -0.352 N
ATOM      4  H4  UNL     1       7.441 -19.644 -11.649  1.00  0.00     0.162 HD
ENDROOT
BRANCH   1   5
HETATM    5  C4  UNL     1       8.490 -18.961  -9.237  1.00  0.00     0.246 C
HETATM    6  O2  UNL     1       8.012 -19.560  -8.254  1.00  0.00    -0.284 OA
BRANCH   5   7
HETATM    7  C3  UNL     1       9.915 -19.010  -9.521  1.00  0.00     0.221 C
HETATM    8  O1  UNL     1      10.639 -19.711  -8.558  1.00  0.00    -0.357 OA
HETATM    9  C2  UNL     1      11.950 -19.446  -8.966  1.00  0.00     0.296 C
HETATM   10  N3  UNL     1      11.958 -18.019  -9.203  1.00  0.00    -0.332 N
HETATM   11  C1  UNL     1      13.119 -17.200  -9.170  1.00  0.00     0.185 C
HETATM   12  C13 UNL     1      10.583 -17.644  -9.467  1.00  0.00     0.168 C
HETATM   13  N1  UNL     1      14.295 -17.646  -9.455  1.00  0.00    -0.374 N
HETATM   14  N2  UNL     1      12.982 -15.823  -8.805  1.00  0.00    -0.064 NA
ATOM     15  H12 UNL     1      15.128 -17.059  -9.431  1.00  0.00     0.158 HD
ATOM     16  H11 UNL     1      14.393 -18.628  -9.715  1.00  0.00     0.158 HD
ENDBRANCH   5   7
ENDBRANCH   1   5
BRANCH   3  17
HETATM   17  C6  UNL     1       6.256 -17.942 -12.178  1.00  0.00     0.161 C
BRANCH  17  18
HETATM   18  C7  UNL     1       5.013 -18.725 -12.555  1.00  0.00     0.139 C
HETATM   19  C8  UNL     1       5.456 -19.910 -13.372  1.00  0.00     0.040 C
HETATM   20  C9  UNL     1       4.282 -20.792 -13.718  1.00  0.00     0.002 C
HETATM   21  C10 UNL     1       3.497 -21.217 -12.518  1.00  0.00     0.000 C
HETATM   22  C11 UNL     1       3.925 -20.567 -11.247  1.00  0.00     0.002 C
HETATM   23  C12 UNL     1       4.174 -19.082 -11.379  1.00  0.00     0.040 C
BRANCH  18  24
HETATM   24  N5  UNL     1       4.225 -17.859 -13.425  1.00  0.00    -0.069 N
ATOM     25  H53 UNL     1       3.635 -17.201 -12.914  1.00  0.00     0.275 HD
ATOM     26  H52 UNL     1       4.786 -17.166 -13.922  1.00  0.00     0.275 HD
ATOM     27  H51 UNL     1       3.699 -18.473 -14.047  1.00  0.00     0.275 HD
ENDBRANCH  18  24
ENDBRANCH  17  18
ENDBRANCH   3  17
TORSDOF 5
ENDMDL