MODEL 5
REMARK VINA RESULT: -5.876477469      2.480      8.063
REMARK  4 active torsions:
REMARK  status: ('A' for Active; 'I' for Inactive)
REMARK       I    between atoms: C2_2  and  N1_4
REMARK       I    between atoms: C3_6  and  N2_7
REMARK       I    between atoms: C3_6  and  N5_14
REMARK       I    between atoms: N2_7  and  C4_9
REMARK       I    between atoms: N5_14  and  C5_16
REMARK    1  A    between atoms: C5_16  and  C6_18
REMARK    2  A    between atoms: C6_18  and  C7_19
REMARK    3  A    between atoms: C7_19  and  C8_20
REMARK    4  A    between atoms: C8_20  and  N6_21
ROOT
HETATM    1  C1  UNL     1      14.768 -15.452  -6.716  1.00  0.00     0.118 C
HETATM    2  C2  UNL     1      13.717 -15.551  -7.784  1.00  0.00     0.231 C
HETATM    3  O1  UNL     1      12.616 -14.963  -7.586  1.00  0.00    -0.273 OA
HETATM    4  N1  UNL     1      13.954 -16.273  -8.960  1.00  0.00    -0.160 N
ATOM      5  H1  UNL     1      14.787 -16.022  -9.493  1.00  0.00     0.187 HD
HETATM    6  C3  UNL     1      13.223 -17.225  -9.439  1.00  0.00     0.690 C
HETATM    7  N2  UNL     1      13.697 -17.794 -10.660  1.00  0.00    -0.163 N
ATOM      8  H2  UNL     1      13.111 -17.728 -11.492  1.00  0.00     0.187 HD
HETATM    9  C4  UNL     1      14.947 -18.444 -10.759  1.00  0.00     0.200 C
HETATM   10  N3  UNL     1      16.018 -17.743 -10.795  1.00  0.00    -0.373 N
ATOM     11  H31 UNL     1      16.921 -18.213 -10.866  1.00  0.00     0.158 HD
ATOM     12  H32 UNL     1      15.957 -16.726 -10.752  1.00  0.00     0.158 HD
HETATM   13  N4  UNL     1      15.032 -19.847 -10.819  1.00  0.00    -0.063 NA
HETATM   14  N5  UNL     1      12.049 -17.656  -8.783  1.00  0.00    -0.159 N
ATOM     15  H5  UNL     1      11.764 -17.216  -7.909  1.00  0.00     0.187 HD
HETATM   16  C5  UNL     1      11.268 -18.696  -9.334  1.00  0.00     0.235 C
HETATM   17  O2  UNL     1      11.621 -19.221 -10.397  1.00  0.00    -0.273 OA
ENDROOT
BRANCH  16  18
HETATM   18  C6  UNL     1      10.057 -19.121  -8.615  1.00  0.00     0.105 C
BRANCH  18  19
HETATM   19  C7  UNL     1       8.881 -19.263  -9.521  1.00  0.00     0.039 C
BRANCH  19  20
HETATM   20  C8  UNL     1       8.334 -17.984 -10.081  1.00  0.00     0.273 C
BRANCH  20  21
HETATM   21  N6  UNL     1       6.889 -18.090 -10.098  1.00  0.00     0.092 N
HETATM   22  C9  UNL     1       6.409 -18.865 -11.208  1.00  0.00     0.298 C
HETATM   23  C10 UNL     1       4.913 -18.674 -11.309  1.00  0.00     0.198 C
HETATM   24  O3  UNL     1       4.536 -17.354 -11.511  1.00  0.00    -0.388 OA
HETATM   25  C11 UNL     1       5.497 -16.428 -11.139  1.00  0.00     0.198 C
HETATM   26  C12 UNL     1       6.214 -16.858  -9.867  1.00  0.00     0.298 C
ENDBRANCH  20  21
ENDBRANCH  19  20
ENDBRANCH  18  19
ENDBRANCH  16  18
TORSDOF 4
ENDMDL