MODEL 4
REMARK VINA RESULT: -5.535719995      1.907      5.331
REMARK  7 active torsions:
REMARK  status: ('A' for Active; 'I' for Inactive)
REMARK    1  A    between atoms: C2_2  and  N1_5
REMARK       I    between atoms: N1_5  and  C5_7
REMARK    2  A    between atoms: C5_7  and  C6_9
REMARK    3  A    between atoms: C7_10  and  O2_11
REMARK    4  A    between atoms: C8_13  and  C9_14
REMARK    5  A    between atoms: C10_15  and  C11_16
REMARK    6  A    between atoms: C12_19  and  O5_20
REMARK    7  A    between atoms: C12_19  and  C13_22
ROOT
HETATM    1  C6  UNL     1       6.592 -18.444 -12.350  1.00  0.00     0.183 C
HETATM    2  C7  UNL     1       7.333 -19.075 -11.204  1.00  0.00     0.170 C
HETATM    3  C8  UNL     1       7.509 -17.934 -10.225  1.00  0.00     0.178 C
HETATM    4  O4  UNL     1       7.366 -16.759 -10.974  1.00  0.00    -0.334 OA
HETATM    5  C12 UNL     1       6.374 -17.051 -11.941  1.00  0.00     0.269 C
ENDROOT
BRANCH   1   6
HETATM    6  C5  UNL     1       5.432 -19.215 -12.794  1.00  0.00     0.231 C
HETATM    7  N1  UNL     1       4.908 -20.218 -11.946  1.00  0.00    -0.352 N
ATOM      8  H1  UNL     1       5.350 -20.381 -11.042  1.00  0.00     0.163 HD
HETATM    9  O1  UNL     1       4.861 -19.040 -13.906  1.00  0.00    -0.273 OA
BRANCH   7  10
HETATM   10  C2  UNL     1       3.760 -21.021 -12.322  1.00  0.00     0.022 C
HETATM   11  C1  UNL     1       3.085 -21.547 -11.048  1.00  0.00     0.037 C
HETATM   12  C3  UNL     1       4.117 -22.157 -13.238  1.00  0.00     0.037 C
HETATM   13  C4  UNL     1       2.718 -20.175 -13.020  1.00  0.00     0.037 C
ENDBRANCH   7  10
ENDBRANCH   1   6
BRANCH   2  14
HETATM   14  O2  UNL     1       6.623 -20.078 -10.572  1.00  0.00    -0.392 OA
ATOM     15  H2  UNL     1       7.171 -20.685 -10.089  1.00  0.00     0.210 HD
ENDBRANCH   2  14
BRANCH   5  16
HETATM   16  O5  UNL     1       6.677 -16.192 -13.026  1.00  0.00    -0.356 OA
ATOM     17  H5  UNL     1       6.065 -15.466 -13.031  1.00  0.00     0.213 HD
ENDBRANCH   5  16
BRANCH   5  18
HETATM   18  C13 UNL     1       5.096 -16.683 -11.361  1.00  0.00     0.239 C
HETATM   19  O6  UNL     1       4.507 -15.635 -11.720  1.00  0.00    -0.644 OA
HETATM   20  O7  UNL     1       4.501 -17.483 -10.398  1.00  0.00    -0.644 OA
ENDBRANCH   5  18
BRANCH   3  21
HETATM   21  C9  UNL     1       8.891 -18.029  -9.699  1.00  0.00     0.010 C
HETATM   22  C10 UNL     1       9.201 -18.650  -8.603  1.00  0.00     0.040 C
BRANCH  22  23
HETATM   23  C11 UNL     1       8.258 -19.326  -7.752  1.00  0.00     0.258 C
HETATM   24  O3  UNL     1       7.846 -20.489  -8.022  1.00  0.00    -0.302 OA
ENDBRANCH  22  23
ENDBRANCH   3  21
TORSDOF 7
ENDMDL