MODEL 4
REMARK VINA RESULT: -7.546803553      1.298      1.535
REMARK  5 active torsions:
REMARK  status: ('A' for Active; 'I' for Inactive)
REMARK    1  A    between atoms: C3_3  and  C4_4
REMARK       I    between atoms: C4_4  and  N1_6
REMARK    2  A    between atoms: N1_6  and  N2_8
REMARK       I    between atoms: N2_8  and  C5_10
REMARK       I    between atoms: C5_10  and  N3_12
REMARK    3  A    between atoms: N3_12  and  N4_14
REMARK    4  A    between atoms: N4_14  and  S1_16
REMARK    5  A    between atoms: S1_16  and  C6_19
ROOT
HETATM    1  C1  UNL     1      13.897 -19.478  -9.619  1.00  0.00     0.012 C
HETATM    2  C2  UNL     1      12.844 -19.067  -9.229  1.00  0.00    -0.108 C
HETATM    3  C3  UNL     1      11.571 -18.564  -8.736  1.00  0.00     0.197 C
ENDROOT
BRANCH   3   4
HETATM    4  C4  UNL     1      10.454 -19.103  -9.543  1.00  0.00     0.247 C
HETATM    5  O1  UNL     1      10.669 -19.519 -10.692  1.00  0.00    -0.271 OA
HETATM    6  N1  UNL     1       9.162 -19.140  -8.991  1.00  0.00    -0.265 N
ATOM      7  H1  UNL     1       9.042 -18.781  -8.044  1.00  0.00     0.190 HD
BRANCH   6   8
HETATM    8  N2  UNL     1       8.026 -19.634  -9.648  1.00  0.00    -0.248 N
HETATM    9  C5  UNL     1       7.380 -18.854 -10.634  1.00  0.00     0.354 C
HETATM   10  O2  UNL     1       7.907 -17.693 -10.861  1.00  0.00    -0.244 OA
HETATM   11  N3  UNL     1       6.238 -19.208 -11.380  1.00  0.00    -0.241 N
ATOM     12  H3  UNL     1       5.803 -20.119 -11.232  1.00  0.00     0.192 HD
ATOM     13  H2  UNL     1       7.665 -20.559  -9.414  1.00  0.00     0.192 HD
BRANCH  11  14
HETATM   14  N4  UNL     1       5.691 -18.323 -12.329  1.00  0.00    -0.218 N
ATOM     15  H4  UNL     1       5.942 -17.336 -12.387  1.00  0.00     0.200 HD
BRANCH  14  16
HETATM   16  S1  UNL     1       4.568 -19.065 -13.367  1.00  0.00     0.282 S
HETATM   17  O3  UNL     1       3.272 -18.252 -13.334  1.00  0.00    -0.198 OA
HETATM   18  O4  UNL     1       5.093 -19.123 -14.746  1.00  0.00    -0.198 OA
BRANCH  16  19
HETATM   19  C6  UNL     1       4.060 -20.671 -12.804  1.00  0.00     0.121 A
HETATM   20  C7  UNL     1       4.193 -21.855 -13.491  1.00  0.00     0.033 A
HETATM   21  C8  UNL     1       3.757 -22.967 -12.898  1.00  0.00     0.009 A
HETATM   22  C9  UNL     1       3.211 -22.854 -11.647  1.00  0.00     0.051 A
HETATM   23  S2  UNL     1       3.328 -21.163 -11.348  1.00  0.00    -0.088 SA
ENDBRANCH  16  19
ENDBRANCH  14  16
ENDBRANCH  11  14
ENDBRANCH   6   8
ENDBRANCH   3   4
TORSDOF 5
ENDMDL