MODEL 3
REMARK VINA RESULT: -6.354822147      1.881      3.195
REMARK  6 active torsions:
REMARK  status: ('A' for Active; 'I' for Inactive)
REMARK    1  A    between atoms: C1_2  and  C2_3
REMARK       I    between atoms: C1_2  and  N3_12
REMARK    2  A    between atoms: C2_3  and  N1_4
REMARK    3  A    between atoms: N3_12  and  C7_14
REMARK    4  A    between atoms: C7_14  and  C8_15
REMARK    5  A    between atoms: C8_15  and  O2_16
REMARK    6  A    between atoms: N4_18  and  O3_20
ROOT
HETATM    1  C7  UNL     1       5.696 -18.895 -12.060  1.00  0.00     0.160 C
HETATM    2  C9  UNL     1       4.724 -18.985 -10.950  1.00  0.00     0.048 C
HETATM    3  C10 UNL     1       4.154 -17.647 -10.578  1.00  0.00     0.004 C
HETATM    4  C11 UNL     1       3.363 -17.077 -11.727  1.00  0.00     0.008 C
HETATM    5  C12 UNL     1       4.345 -16.810 -12.841  1.00  0.00     0.081 C
HETATM    6  C13 UNL     1       5.665 -17.470 -12.545  1.00  0.00     0.163 C
HETATM    7  O4  UNL     1       6.716 -16.896 -12.681  1.00  0.00    -0.295 OA
ENDROOT
BRANCH   1   8
HETATM    8  N3  UNL     1       7.049 -19.253 -11.786  1.00  0.00    -0.336 N
HETATM    9  C1  UNL     1       7.824 -19.007 -10.647  1.00  0.00     0.247 C
HETATM   10  O1  UNL     1       7.369 -18.398  -9.666  1.00  0.00    -0.272 OA
ATOM     11  H3  UNL     1       7.523 -19.765 -12.530  1.00  0.00     0.164 HD
BRANCH   9  12
HETATM   12  C2  UNL     1       9.243 -19.456 -10.532  1.00  0.00     0.374 C
BRANCH  12  13
HETATM   13  N1  UNL     1      10.031 -18.588  -9.717  1.00  0.00     0.100 N
HETATM   14  C3  UNL     1      10.354 -19.164  -8.425  1.00  0.00     0.300 C
HETATM   15  C4  UNL     1      11.830 -19.551  -8.356  1.00  0.00     0.262 C
HETATM   16  N2  UNL     1      12.685 -18.396  -8.514  1.00  0.00    -0.072 N
HETATM   17  C5  UNL     1      12.241 -17.534  -9.573  1.00  0.00     0.262 C
ATOM     18  H22 UNL     1      12.780 -17.884  -7.637  1.00  0.00     0.277 HD
ATOM     19  H21 UNL     1      13.657 -18.673  -8.646  1.00  0.00     0.277 HD
HETATM   20  C6  UNL     1      11.184 -18.158 -10.455  1.00  0.00     0.300 C
ENDBRANCH  12  13
ENDBRANCH   9  12
ENDBRANCH   1   8
BRANCH   1  21
HETATM   21  C8  UNL     1       5.223 -19.672 -13.277  1.00  0.00     0.172 C
HETATM   22  N4  UNL     1       4.629 -20.806 -13.187  1.00  0.00    -0.249 N
ATOM     23  H4  UNL     1       4.479 -21.187 -12.253  1.00  0.00     0.196 HD
BRANCH  21  24
HETATM   24  O2  UNL     1       5.448 -19.129 -14.511  1.00  0.00    -0.346 OA
ATOM     25  H2  UNL     1       4.943 -18.364 -14.760  1.00  0.00     0.219 HD
ENDBRANCH  21  24
BRANCH  22  26
HETATM   26  O3  UNL     1       4.191 -21.531 -14.236  1.00  0.00    -0.288 OA
ATOM     27  H3  UNL     1       3.631 -22.296 -14.170  1.00  0.00     0.244 HD
ENDBRANCH  22  26
ENDBRANCH   1  21
TORSDOF 6
ENDMDL