MODEL 4
REMARK VINA RESULT: -7.667929293      0.939      1.611
REMARK  5 active torsions:
REMARK  status: ('A' for Active; 'I' for Inactive)
REMARK    1  A    between atoms: C1_2  and  C2_4
REMARK       I    between atoms: C2_4  and  N1_6
REMARK    2  A    between atoms: N1_6  and  N2_8
REMARK    3  A    between atoms: N2_8  and  S1_10
REMARK    4  A    between atoms: S1_10  and  C3_13
REMARK    5  A    between atoms: C6_16  and  C7_17
ROOT
HETATM    1  S1  UNL     1       4.906 -17.774 -11.733  1.00  0.00     0.276 S
HETATM    2  O4  UNL     1       4.552 -16.383 -11.232  1.00  0.00    -0.199 OA
HETATM    3  O5  UNL     1       5.039 -17.766 -13.253  1.00  0.00    -0.199 OA
ENDROOT
BRANCH   1   4
HETATM    4  N2  UNL     1       3.729 -18.906 -11.245  1.00  0.00    -0.220 N
ATOM      5  H2  UNL     1       3.128 -18.826 -10.426  1.00  0.00     0.200 HD
BRANCH   4   6
HETATM    6  N1  UNL     1       3.727 -19.970 -12.167  1.00  0.00    -0.251 N
HETATM    7  C2  UNL     1       3.613 -21.317 -11.767  1.00  0.00     0.337 C
HETATM    8  O3  UNL     1       3.506 -21.581 -10.551  1.00  0.00    -0.259 OA
ATOM      9  H1  UNL     1       3.812 -19.758 -13.161  1.00  0.00     0.191 HD
BRANCH   7  10
HETATM   10  C1  UNL     1       3.620 -22.380 -12.746  1.00  0.00     0.271 C
HETATM   11  O1  UNL     1       3.976 -22.235 -13.948  1.00  0.00    -0.640 OA
HETATM   12  O2  UNL     1       3.210 -23.660 -12.350  1.00  0.00    -0.640 OA
ENDBRANCH   7  10
ENDBRANCH   4   6
ENDBRANCH   1   4
BRANCH   1  13
HETATM   13  C3  UNL     1       6.509 -18.126 -11.117  1.00  0.00     0.081 A
HETATM   14  C4  UNL     1       7.162 -19.271 -11.489  1.00  0.00     0.026 A
HETATM   15  C5  UNL     1       8.442 -19.590 -11.023  1.00  0.00     0.020 A
HETATM   16  C6  UNL     1       9.094 -18.743 -10.158  1.00  0.00     0.040 A
HETATM   17  C8  UNL     1       8.423 -17.585  -9.788  1.00  0.00     0.020 A
HETATM   18  C9  UNL     1       7.155 -17.261 -10.246  1.00  0.00     0.026 A
BRANCH  16  19
HETATM   19  C7  UNL     1      10.428 -19.015  -9.635  1.00  0.00     0.209 C
HETATM   20  O6  UNL     1      11.400 -19.065 -10.427  1.00  0.00    -0.644 OA
HETATM   21  O7  UNL     1      10.674 -19.223  -8.290  1.00  0.00    -0.644 OA
ENDBRANCH  16  19
ENDBRANCH   1  13
TORSDOF 5
ENDMDL