MODEL 1
REMARK VINA RESULT: -5.446775445      0.000      0.000
REMARK  6 active torsions:
REMARK  status: ('A' for Active; 'I' for Inactive)
REMARK    1  A    between atoms: C2_2  and  N1_4
REMARK    2  A    between atoms: N1_4  and  C4_6
REMARK    3  A    between atoms: C5_11  and  N4_12
REMARK    4  A    between atoms: N4_12  and  C6_14
REMARK    5  A    between atoms: C6_14  and  C7_15
REMARK    6  A    between atoms: C7_15  and  N5_16
ROOT
HETATM    1  C4  UNL     1       5.272  23.836  19.750  1.00  0.00     0.708 A
HETATM    2  N2  UNL     1       4.427  23.393  20.688  1.00  0.00    -0.117 N
ATOM      3  H2  UNL     1       4.663  23.293  21.675  1.00  0.00     0.206 HD
HETATM    4  N3  UNL     1       3.229  23.097  20.161  1.00  0.00    -0.117 N
ATOM      5  H3  UNL     1       2.417  22.741  20.665  1.00  0.00     0.206 HD
HETATM    6  C5  UNL     1       3.300  23.356  18.849  1.00  0.00     0.707 A
HETATM    7  N6  UNL     1       4.527  23.801  18.592  1.00  0.00    -0.020 N
ATOM      8  H6  UNL     1       4.867  24.076  17.671  1.00  0.00     0.203 HD
ENDROOT
BRANCH   6   9
HETATM    9  N4  UNL     1       2.375  23.221  17.956  1.00  0.00    -0.223 N
ATOM     10  H4  UNL     1       1.388  23.252  18.210  1.00  0.00     0.177 HD
BRANCH   9  11
HETATM   11  C6  UNL     1       2.791  23.026  16.581  1.00  0.00     0.168 C
BRANCH  11  12
HETATM   12  C7  UNL     1       1.838  23.733  15.638  1.00  0.00     0.291 C
BRANCH  12  13
HETATM   13  N5  UNL     1       0.928  24.627  16.262  1.00  0.00     0.081 N
HETATM   14  C8  UNL     1      -0.462  24.380  15.954  1.00  0.00     0.309 C
HETATM   15  C9  UNL     1       1.272  26.019  16.169  1.00  0.00     0.309 C
ENDBRANCH  12  13
ENDBRANCH  11  12
ENDBRANCH   9  11
ENDBRANCH   6   9
BRANCH   1  16
HETATM   16  N1  UNL     1       6.459  24.222  19.819  1.00  0.00    -0.220 N
ATOM     17  H1  UNL     1       7.070  23.644  19.242  1.00  0.00     0.178 HD
BRANCH  16  18
HETATM   18  C2  UNL     1       7.174  25.218  20.465  1.00  0.00     0.091 C
HETATM   19  C1  UNL     1       7.630  26.408  19.669  1.00  0.00     0.032 C
HETATM   20  C3  UNL     1       8.376  24.562  21.177  1.00  0.00     0.032 C
ENDBRANCH  16  18
ENDBRANCH   1  16
TORSDOF 6
ENDMDL