MODEL 3
REMARK VINA RESULT: -6.866612147      2.409      3.615
REMARK  6 active torsions:
REMARK  status: ('A' for Active; 'I' for Inactive)
REMARK    1  A    between atoms: N3_4  and  C2_6
REMARK    2  A    between atoms: C2_6  and  C3_7
REMARK    3  A    between atoms: C4_8  and  C5_9
REMARK    4  A    between atoms: C5_9  and  N4_10
REMARK    5  A    between atoms: N4_10  and  C6_13
REMARK    6  A    between atoms: C6_13  and  C7_14
ROOT
HETATM    1  N4  UNL     1       3.905  23.244  20.486  1.00  0.00    -0.061 N
ATOM      2  H41 UNL     1       3.557  23.429  21.426  1.00  0.00     0.278 HD
ATOM      3  H42 UNL     1       3.997  24.201  20.146  1.00  0.00     0.278 HD
ENDROOT
BRANCH   1   4
HETATM    4  C5  UNL     1       2.933  22.527  19.720  1.00  0.00     0.326 C
BRANCH   4   5
HETATM    5  C4  UNL     1       2.792  23.134  18.394  1.00  0.00    -0.077 C
HETATM    6  C3  UNL     1       2.656  23.641  17.306  1.00  0.00    -0.085 C
BRANCH   6   7
HETATM    7  C2  UNL     1       2.466  24.279  15.977  1.00  0.00     0.216 C
BRANCH   7   8
HETATM    8  N3  UNL     1       3.576  24.018  15.115  1.00  0.00    -0.357 N
HETATM    9  C1  UNL     1       4.662  24.653  15.018  1.00  0.00     0.197 C
HETATM   10  N1  UNL     1       5.652  24.237  14.096  1.00  0.00    -0.067 NA
HETATM   11  N2  UNL     1       4.921  25.789  15.820  1.00  0.00    -0.067 NA
ATOM     12  H3  UNL     1       3.477  23.213  14.497  1.00  0.00     0.162 HD
ENDBRANCH   7   8
ENDBRANCH   6   7
ENDBRANCH   4   5
ENDBRANCH   1   4
BRANCH   1  13
HETATM   13  C6  UNL     1       5.185  22.601  20.537  1.00  0.00     0.271 C
BRANCH  13  14
HETATM   14  C7  UNL     1       6.305  23.587  20.571  1.00  0.00    -0.033 A
HETATM   15  C8  UNL     1       7.239  23.560  21.581  1.00  0.00     0.009 A
HETATM   16  C9  UNL     1       8.278  24.457  21.634  1.00  0.00     0.001 A
HETATM   17  C10 UNL     1       8.440  25.444  20.663  1.00  0.00     0.000 A
HETATM   18  C11 UNL     1       7.504  25.476  19.643  1.00  0.00     0.001 A
HETATM   19  C12 UNL     1       6.462  24.566  19.603  1.00  0.00     0.009 A
ENDBRANCH  13  14
ENDBRANCH   1  13
TORSDOF 6
ENDMDL