MODEL 4
REMARK VINA RESULT: -6.094394499      2.215      3.782
REMARK  5 active torsions:
REMARK  status: ('A' for Active; 'I' for Inactive)
REMARK    1  A    between atoms: O1_1  and  N1_3
REMARK    2  A    between atoms: C1_5  and  C2_6
REMARK    3  A    between atoms: N3_11  and  C5_12
REMARK    4  A    between atoms: C5_12  and  C6_13
REMARK    5  A    between atoms: C6_13  and  N4_14
ROOT
HETATM    1  C2  UNL     1       3.082  23.619  17.826  1.00  0.00     0.124 A
HETATM    2  N2  UNL     1       3.405  23.698  19.153  1.00  0.00    -0.350 N
ATOM      3  H2  UNL     1       3.927  24.465  19.577  1.00  0.00     0.166 HD
HETATM    4  C3  UNL     1       2.945  22.633  19.821  1.00  0.00     0.107 A
HETATM    5  C4  UNL     1       2.308  21.856  18.882  1.00  0.00     0.109 A
HETATM    6  N3  UNL     1       2.408  22.488  17.666  1.00  0.00    -0.339 N
ENDROOT
BRANCH   6   7
HETATM    7  C5  UNL     1       1.838  21.949  16.459  1.00  0.00     0.152 C
BRANCH   7   8
HETATM    8  C6  UNL     1       0.534  21.260  16.808  1.00  0.00     0.168 C
BRANCH   8   9
HETATM    9  N4  UNL     1      -0.606  22.058  16.380  1.00  0.00    -0.302 N
HETATM   10  C7  UNL     1      -0.503  23.284  15.832  1.00  0.00     0.111 A
HETATM   11  C8  UNL     1      -1.774  23.721  15.559  1.00  0.00     0.037 A
HETATM   12  C9  UNL     1      -2.650  22.734  15.953  1.00  0.00     0.108 A
HETATM   13  N5  UNL     1      -1.879  21.749  16.444  1.00  0.00    -0.310 N
ATOM     14  H5  UNL     1      -2.239  20.871  16.819  1.00  0.00     0.186 HD
ENDBRANCH   8   9
ENDBRANCH   7   8
ENDBRANCH   6   7
BRANCH   1  15
HETATM   15  C1  UNL     1       3.450  24.623  16.856  1.00  0.00     0.162 C
HETATM   16  N1  UNL     1       4.614  24.848  16.427  1.00  0.00    -0.277 N
ATOM     17  H1  UNL     1       5.367  24.268  16.797  1.00  0.00     0.193 HD
BRANCH  16  18
HETATM   18  O1  UNL     1       4.951  25.787  15.522  1.00  0.00    -0.290 OA
ATOM     19  H1  UNL     1       5.816  26.163  15.408  1.00  0.00     0.244 HD
ENDBRANCH  16  18
ENDBRANCH   1  15
TORSDOF 5
ENDMDL