MODEL 1
REMARK VINA RESULT: -5.736713494      0.000      0.000
REMARK  6 active torsions:
REMARK  status: ('A' for Active; 'I' for Inactive)
REMARK    1  A    between atoms: N1_2  and  C4_5
REMARK    2  A    between atoms: C4_5  and  C5_6
REMARK    3  A    between atoms: C5_6  and  C6_7
REMARK    4  A    between atoms: C6_7  and  N2_8
REMARK    5  A    between atoms: N2_8  and  C7_10
REMARK    6  A    between atoms: C10_15  and  N4_16
ROOT
HETATM    1  C7  UNL     1       3.828  23.885  16.928  1.00  0.00     0.118 A
HETATM    2  C8  UNL     1       4.582  24.842  16.316  1.00  0.00     0.066 A
HETATM    3  C9  UNL     1       4.546  24.982  14.946  1.00  0.00     0.110 A
HETATM    4  N3  UNL     1       3.764  24.172  14.212  1.00  0.00    -0.202 N
ATOM      5  H3  UNL     1       3.733  24.270  13.198  1.00  0.00     0.183 HD
HETATM    6  C10 UNL     1       3.021  23.228  14.823  1.00  0.00     0.677 A
HETATM    7  N5  UNL     1       3.054  23.089  16.144  1.00  0.00    -0.177 N
ATOM      8  H5  UNL     1       2.482  22.366  16.582  1.00  0.00     0.185 HD
ENDROOT
BRANCH   1   9
HETATM    9  N2  UNL     1       3.821  23.707  18.194  1.00  0.00    -0.376 N
ATOM     10  H2  UNL     1       4.709  23.775  18.690  1.00  0.00     0.161 HD
BRANCH   9  11
HETATM   11  C6  UNL     1       2.639  23.416  18.965  1.00  0.00     0.123 C
BRANCH  11  12
HETATM   12  C5  UNL     1       2.700  22.026  19.601  1.00  0.00     0.047 C
BRANCH  12  13
HETATM   13  C4  UNL     1       3.093  22.201  21.020  1.00  0.00     0.237 C
BRANCH  13  14
HETATM   14  N1  UNL     1       4.116  21.337  21.503  1.00  0.00    -0.079 N
HETATM   15  C1  UNL     1       3.939  21.216  22.954  1.00  0.00     0.271 C
HETATM   16  C2  UNL     1       3.937  20.005  20.963  1.00  0.00     0.271 C
HETATM   17  C3  UNL     1       5.453  21.751  21.265  1.00  0.00     0.271 C
ENDBRANCH  13  14
ENDBRANCH  12  13
ENDBRANCH  11  12
ENDBRANCH   9  11
ENDBRANCH   1   9
BRANCH   6  18
HETATM   18  N4  UNL     1       2.288  22.479  14.056  1.00  0.00    -0.234 N
ATOM     19  H42 UNL     1       2.519  21.507  13.851  1.00  0.00     0.174 HD
ATOM     20  H41 UNL     1       1.455  22.911  13.658  1.00  0.00     0.174 HD
ENDBRANCH   6  18
TORSDOF 6
ENDMDL