MODEL 1
REMARK VINA RESULT: -6.189224185      0.000      0.000
REMARK  5 active torsions:
REMARK  status: ('A' for Active; 'I' for Inactive)
REMARK    1  A    between atoms: C4_4  and  C5_5
REMARK    2  A    between atoms: C5_5  and  C6_6
REMARK    3  A    between atoms: C5_5  and  C10_11
REMARK    4  A    between atoms: C6_6  and  N1_7
REMARK    5  A    between atoms: C11_18  and  N5_19
ROOT
HETATM    1  C1  UNL     1       4.955  21.904  21.205  1.00  0.00     0.102 C
HETATM    2  C2  UNL     1       4.057  22.230  20.419  1.00  0.00    -0.161 C
HETATM    3  C3  UNL     1       3.046  22.660  19.485  1.00  0.00     0.047 C
HETATM    4  C4  UNL     1       3.314  22.978  18.250  1.00  0.00    -0.006 C
ENDROOT
BRANCH   4   5
HETATM    5  C5  UNL     1       2.351  23.431  17.233  1.00  0.00     0.090 C
BRANCH   5   6
HETATM    6  C6  UNL     1       1.792  24.764  17.599  1.00  0.00     0.251 C
BRANCH   6   7
HETATM    7  N1  UNL     1       0.743  25.444  17.006  1.00  0.00    -0.078 N
HETATM    8  C7  UNL     1       0.115  26.354  18.055  1.00  0.00     0.271 C
HETATM    9  C8  UNL     1      -0.279  24.756  16.318  1.00  0.00     0.271 C
HETATM   10  C9  UNL     1       1.299  26.456  16.083  1.00  0.00     0.271 C
ENDBRANCH   6   7
ENDBRANCH   5   6
BRANCH   5  11
HETATM   11  C10 UNL     1       3.241  23.799  16.017  1.00  0.00     0.081 A
HETATM   12  N2  UNL     1       4.404  24.465  16.207  1.00  0.00    -0.286 N
HETATM   13  N3  UNL     1       5.048  24.532  15.071  1.00  0.00    -0.241 N
ATOM     14  H2  UNL     1       4.727  24.851  17.093  1.00  0.00     0.188 HD
HETATM   15  N4  UNL     1       4.313  23.887  14.111  1.00  0.00    -0.270 N
ATOM     16  H3  UNL     1       5.948  24.990  14.924  1.00  0.00     0.208 HD
HETATM   17  C11 UNL     1       3.225  23.465  14.740  1.00  0.00     0.140 A
ATOM     18  H4  UNL     1       4.551  23.759  13.127  1.00  0.00     0.190 HD
BRANCH  17  19
HETATM   19  N5  UNL     1       2.247  22.859  14.130  1.00  0.00    -0.383 N
ATOM     20  H52 UNL     1       1.831  21.994  14.475  1.00  0.00     0.157 HD
ATOM     21  H51 UNL     1       1.839  23.143  13.239  1.00  0.00     0.157 HD
ENDBRANCH  17  19
ENDBRANCH   5  11
ENDBRANCH   4   5
TORSDOF 5
ENDMDL