MODEL 2
REMARK VINA RESULT: -6.415396150      2.837      4.320
REMARK  6 active torsions:
REMARK  status: ('A' for Active; 'I' for Inactive)
REMARK    1  A    between atoms: N1_1  and  C1_4
REMARK    2  A    between atoms: C2_9  and  N4_10
REMARK    3  A    between atoms: N4_10  and  C3_12
REMARK    4  A    between atoms: C3_12  and  C4_13
REMARK    5  A    between atoms: C4_13  and  C5_14
REMARK    6  A    between atoms: C5_14  and  N5_15
ROOT
HETATM    1  C1  UNL     1      -1.512  24.060  15.800  1.00  0.00     0.705 A
HETATM    2  N2  UNL     1      -1.706  25.247  16.372  1.00  0.00    -0.118 N
ATOM      3  H2  UNL     1      -2.609  25.645  16.630  1.00  0.00     0.206 HD
HETATM    4  N3  UNL     1      -0.519  25.824  16.548  1.00  0.00    -0.117 N
ATOM      5  H3  UNL     1      -0.370  26.742  16.966  1.00  0.00     0.206 HD
HETATM    6  C2  UNL     1       0.453  25.017  16.092  1.00  0.00     0.707 A
HETATM    7  N6  UNL     1      -0.173  23.923  15.630  1.00  0.00    -0.020 N
ATOM      8  H6  UNL     1       0.288  23.113  15.214  1.00  0.00     0.203 HD
ENDROOT
BRANCH   6   9
HETATM    9  N4  UNL     1       1.707  25.206  16.081  1.00  0.00    -0.224 N
ATOM     10  H4  UNL     1       2.081  25.957  16.662  1.00  0.00     0.177 HD
BRANCH   9  11
HETATM   11  C3  UNL     1       2.645  24.426  15.296  1.00  0.00     0.139 C
BRANCH  11  12
HETATM   12  C4  UNL     1       3.517  23.586  16.194  1.00  0.00     0.040 C
BRANCH  12  13
HETATM   13  C5  UNL     1       3.206  23.700  17.637  1.00  0.00     0.129 C
BRANCH  13  14
HETATM   14  N5  UNL     1       2.617  22.528  18.227  1.00  0.00    -0.366 N
HETATM   15  C6  UNL     1       1.859  21.700  17.507  1.00  0.00     0.090 A
HETATM   16  C7  UNL     1       1.315  20.589  18.108  1.00  0.00     0.017 A
HETATM   17  C8  UNL     1       1.546  20.329  19.439  1.00  0.00     0.003 A
HETATM   18  C9  UNL     1       2.321  21.176  20.174  1.00  0.00     0.017 A
HETATM   19  C10 UNL     1       2.846  22.281  19.519  1.00  0.00     0.090 A
ENDBRANCH  13  14
ENDBRANCH  12  13
ENDBRANCH  11  12
ENDBRANCH   9  11
ENDBRANCH   6   9
BRANCH   1  20
HETATM   20  N1  UNL     1      -2.397  23.186  15.460  1.00  0.00    -0.233 N
ATOM     21  H12 UNL     1      -2.885  23.161  14.564  1.00  0.00     0.174 HD
ATOM     22  H11 UNL     1      -2.748  22.399  16.007  1.00  0.00     0.174 HD
ENDBRANCH   1  20
TORSDOF 6
ENDMDL