MODEL 3
REMARK VINA RESULT: -6.967762235      0.745      1.332
REMARK  4 active torsions:
REMARK  status: ('A' for Active; 'I' for Inactive)
REMARK    1  A    between atoms: C3_3  and  C4_4
REMARK    2  A    between atoms: C4_4  and  C5_5
REMARK    3  A    between atoms: C5_5  and  C6_6
REMARK    4  A    between atoms: C6_6  and  N1_7
ROOT
HETATM    1  C1  UNL     1       5.582  20.872  24.014  1.00  0.00     0.012 C
HETATM    2  C2  UNL     1       5.474  21.218  22.862  1.00  0.00    -0.117 C
HETATM    3  C3  UNL     1       5.362  21.616  21.461  1.00  0.00     0.093 C
ENDROOT
BRANCH   3   4
HETATM    4  C4  UNL     1       4.087  21.182  20.813  1.00  0.00     0.014 C
BRANCH   4   5
HETATM    5  C5  UNL     1       3.221  22.311  20.322  1.00  0.00     0.021 C
BRANCH   5   6
HETATM    6  C6  UNL     1       2.428  22.033  19.100  1.00  0.00     0.130 C
BRANCH   6   7
HETATM    7  N1  UNL     1       2.770  22.754  17.923  1.00  0.00    -0.344 N
HETATM    8  C7  UNL     1       3.683  23.647  18.015  1.00  0.00     0.094 C
HETATM    9  C8  UNL     1       4.306  24.578  17.086  1.00  0.00     0.048 C
HETATM   10  C9  UNL     1       4.055  24.710  15.807  1.00  0.00     0.091 C
HETATM   11  N2  UNL     1       4.806  25.697  15.131  1.00  0.00    -0.098 NA
HETATM   12  C10 UNL     1       3.108  23.974  14.978  1.00  0.00     0.125 C
HETATM   13  N3  UNL     1       3.252  24.086  13.716  1.00  0.00    -0.384 N
HETATM   14  N4  UNL     1       2.051  23.147  15.485  1.00  0.00    -0.328 N
ATOM     15  H32 UNL     1       4.004  24.674  13.356  1.00  0.00     0.157 HD
ATOM     16  H31 UNL     1       2.589  23.571  13.136  1.00  0.00     0.157 HD
HETATM   17  C11 UNL     1       2.067  22.414  16.740  1.00  0.00     0.099 C
ATOM     18  H4  UNL     1       1.211  23.066  14.913  1.00  0.00     0.169 HD
HETATM   19  C12 UNL     1       1.363  21.313  16.721  1.00  0.00     0.064 C
ENDBRANCH   6   7
ENDBRANCH   5   6
ENDBRANCH   4   5
ENDBRANCH   3   4
TORSDOF 4
ENDMDL