MODEL 5
REMARK VINA RESULT: -5.540284940      1.496      2.466
REMARK  9 active torsions:
REMARK  status: ('A' for Active; 'I' for Inactive)
REMARK    1  A    between atoms: C3_5  and  N2_6
REMARK    2  A    between atoms: N4_11  and  C4_12
REMARK    3  A    between atoms: C4_12  and  C5_13
REMARK    4  A    between atoms: C5_13  and  C6_14
REMARK    5  A    between atoms: C6_14  and  N5_15
REMARK    6  A    between atoms: N5_15  and  C7_17
REMARK    7  A    between atoms: C7_17  and  C8_18
REMARK    8  A    between atoms: C8_18  and  N6_19
REMARK    9  A    between atoms: N6_19  and  N7_20
ROOT
HETATM    1  C1  UNL     1       5.737  23.889  19.749  1.00  0.00     0.091 C
HETATM    2  C2  UNL     1       4.346  23.417  19.967  1.00  0.00     0.110 A
HETATM    3  N1  UNL     1       3.842  22.923  21.117  1.00  0.00    -0.178 N
ATOM      4  H1  UNL     1       4.352  22.809  21.993  1.00  0.00     0.185 HD
HETATM    5  C3  UNL     1       2.570  22.612  20.913  1.00  0.00     0.692 A
HETATM    6  N3  UNL     1       2.302  22.923  19.622  1.00  0.00    -0.129 N
ATOM      7  H3  UNL     1       1.399  22.797  19.165  1.00  0.00     0.206 HD
HETATM    8  N4  UNL     1       3.378  23.413  19.042  1.00  0.00    -0.265 N
ENDROOT
BRANCH   8   9
HETATM    9  C4  UNL     1       3.505  23.868  17.652  1.00  0.00     0.164 C
BRANCH   9  10
HETATM   10  C5  UNL     1       2.766  22.915  16.822  1.00  0.00     0.126 C
BRANCH  10  11
HETATM   11  C6  UNL     1       1.771  23.405  16.095  1.00  0.00    -0.073 C
BRANCH  11  12
HETATM   12  N5  UNL     1       0.648  23.791  15.640  1.00  0.00    -0.355 N
ATOM     13  H5  UNL     1       0.154  23.245  14.933  1.00  0.00     0.169 HD
BRANCH  12  14
HETATM   14  C7  UNL     1       0.091  25.019  16.146  1.00  0.00     0.190 C
BRANCH  14  15
HETATM   15  C8  UNL     1      -1.361  25.034  16.229  1.00  0.00     0.201 C
BRANCH  15  16
HETATM   16  N6  UNL     1      -1.919  25.667  17.141  1.00  0.00    -0.348 NA
BRANCH  16  17
HETATM   17  N7  UNL     1      -2.551  26.385  17.949  1.00  0.00    -0.281 N
ATOM     18  H72 UNL     1      -2.132  25.783  18.657  1.00  0.00     0.191 HD
ATOM     19  H71 UNL     1      -3.108  27.032  18.507  1.00  0.00     0.191 HD
ENDBRANCH  16  17
ENDBRANCH  15  16
ENDBRANCH  14  15
ENDBRANCH  12  14
ENDBRANCH  11  12
ENDBRANCH  10  11
ENDBRANCH   9  10
ENDBRANCH   8   9
BRANCH   5  20
HETATM   20  N2  UNL     1       1.667  22.114  21.690  1.00  0.00    -0.233 N
ATOM     21  H22 UNL     1       1.133  21.286  21.427  1.00  0.00     0.174 HD
ATOM     22  H21 UNL     1       1.329  22.395  22.610  1.00  0.00     0.174 HD
ENDBRANCH   5  20
TORSDOF 9
ENDMDL