MODEL 4
REMARK VINA RESULT: -5.957545994      3.607      4.219
REMARK  5 active torsions:
REMARK  status: ('A' for Active; 'I' for Inactive)
REMARK    1  A    between atoms: N1_1  and  C1_5
REMARK    2  A    between atoms: C1_5  and  C2_6
REMARK    3  A    between atoms: S1_8  and  C3_9
REMARK    4  A    between atoms: C3_9  and  C4_10
REMARK    5  A    between atoms: C4_10  and  C5_11
ROOT
HETATM    1  C2  UNL     1       3.928  21.492  22.522  1.00  0.00     0.216 C
HETATM    2  N2  UNL     1       4.607  22.001  21.343  1.00  0.00    -0.150 NA
HETATM    3  S1  UNL     1       3.120  21.830  20.495  1.00  0.00    -0.041 SA
HETATM    4  N3  UNL     1       2.781  22.290  22.124  1.00  0.00    -0.150 NA
ENDROOT
BRANCH   3   5
HETATM    5  C3  UNL     1       2.789  23.052  19.279  1.00  0.00     0.103 C
BRANCH   5   6
HETATM    6  C4  UNL     1       2.399  22.480  17.942  1.00  0.00     0.050 C
BRANCH   6   7
HETATM    7  C5  UNL     1       3.129  23.264  16.901  1.00  0.00    -0.057 A
HETATM    8  C6  UNL     1       2.843  23.091  15.542  1.00  0.00     0.007 A
HETATM    9  C7  UNL     1       3.506  23.803  14.573  1.00  0.00     0.001 A
HETATM   10  C8  UNL     1       4.461  24.699  14.935  1.00  0.00     0.000 A
HETATM   11  C9  UNL     1       4.776  24.902  16.259  1.00  0.00     0.001 A
HETATM   12  C10 UNL     1       4.108  24.185  17.216  1.00  0.00     0.007 A
ENDBRANCH   6   7
ENDBRANCH   5   6
ENDBRANCH   3   5
BRANCH   1  13
HETATM   13  C1  UNL     1       3.618  20.016  22.368  1.00  0.00     0.269 C
BRANCH  13  14
HETATM   14  N1  UNL     1       2.857  19.507  23.482  1.00  0.00    -0.076 N
ATOM     15  H13 UNL     1       3.469  19.157  24.220  1.00  0.00     0.274 HD
ATOM     16  H12 UNL     1       2.402  20.261  23.995  1.00  0.00     0.274 HD
ATOM     17  H11 UNL     1       2.184  18.798  23.192  1.00  0.00     0.274 HD
ENDBRANCH  13  14
ENDBRANCH   1  13
TORSDOF 5
ENDMDL