MODEL 3
REMARK VINA RESULT: -6.621737998      4.222      5.606
REMARK  6 active torsions:
REMARK  status: ('A' for Active; 'I' for Inactive)
REMARK    1  A    between atoms: O1_1  and  C1_3
REMARK    2  A    between atoms: C1_3  and  N1_4
REMARK    3  A    between atoms: C4_7  and  C5_8
REMARK    4  A    between atoms: C5_8  and  C6_9
REMARK    5  A    between atoms: C6_9  and  N2_10
REMARK    6  A    between atoms: N2_10  and  C7_12
ROOT
HETATM    1  C5  UNL     1       3.117  22.529  19.303  1.00  0.00     0.058 C
ENDROOT
BRANCH   1   2
HETATM    2  C4  UNL     1       4.403  22.907  19.897  1.00  0.00    -0.054 A
HETATM    3  C3  UNL     1       5.006  22.162  20.891  1.00  0.00     0.024 A
HETATM    4  C2  UNL     1       6.202  22.581  21.391  1.00  0.00     0.093 A
HETATM    5  N1  UNL     1       6.856  23.687  20.982  1.00  0.00    -0.345 N
HETATM    6  C11 UNL     1       6.272  24.417  20.011  1.00  0.00     0.093 A
HETATM    7  C10 UNL     1       5.058  24.048  19.461  1.00  0.00     0.024 A
BRANCH   5   8
HETATM    8  C1  UNL     1       8.134  24.097  21.545  1.00  0.00     0.294 C
BRANCH   8   9
HETATM    9  O1  UNL     1       9.130  24.192  20.592  1.00  0.00    -0.382 OA
ATOM     10  H1  UNL     1       9.524  25.056  20.560  1.00  0.00     0.211 HD
ENDBRANCH   8   9
ENDBRANCH   5   8
ENDBRANCH   1   2
BRANCH   1  11
HETATM   11  C6  UNL     1       2.664  23.504  18.232  1.00  0.00     0.126 C
BRANCH  11  12
HETATM   12  N2  UNL     1       2.655  22.842  16.954  1.00  0.00    -0.375 N
ATOM     13  H2  UNL     1       2.238  21.913  16.893  1.00  0.00     0.161 HD
BRANCH  12  14
HETATM   14  C7  UNL     1       3.146  23.363  15.881  1.00  0.00     0.117 A
HETATM   15  C8  UNL     1       4.232  24.201  15.808  1.00  0.00     0.068 A
HETATM   16  C9  UNL     1       4.386  24.502  14.466  1.00  0.00     0.111 A
HETATM   17  N3  UNL     1       3.432  23.867  13.802  1.00  0.00    -0.310 N
HETATM   18  N4  UNL     1       2.683  23.181  14.639  1.00  0.00    -0.286 N
ATOM     19  H3  UNL     1       3.297  23.905  12.791  1.00  0.00     0.186 HD
ATOM     20  H4  UNL     1       1.882  22.605  14.383  1.00  0.00     0.188 HD
ENDBRANCH  12  14
ENDBRANCH  11  12
ENDBRANCH   1  11
TORSDOF 6
ENDMDL