MODEL 4
REMARK VINA RESULT: -6.528758313      2.654      6.500
REMARK  7 active torsions:
REMARK  status: ('A' for Active; 'I' for Inactive)
REMARK       I    between atoms: C1_2  and  N2_4
REMARK    1  A    between atoms: N2_4  and  N3_6
REMARK    2  A    between atoms: C2_8  and  C3_9
REMARK    3  A    between atoms: C2_8  and  C11_23
REMARK       I    between atoms: C3_9  and  N4_11
REMARK    4  A    between atoms: N4_11  and  C4_13
REMARK    5  A    between atoms: C4_13  and  C5_14
REMARK    6  A    between atoms: C4_13  and  C10_20
REMARK    7  A    between atoms: C5_14  and  C6_15
ROOT
HETATM    1  N3  UNL     1     -35.633   3.679   1.699  1.00  0.00    -0.291 N
ATOM      2  H3  UNL     1     -35.621   4.663   1.434  1.00  0.00     0.187 HD
HETATM    3  C2  UNL     1     -34.611   3.512   2.374  1.00  0.00     0.126 C
ENDROOT
BRANCH   3   4
HETATM    4  C3  UNL     1     -33.776   4.719   2.552  1.00  0.00     0.271 C
HETATM    5  O2  UNL     1     -32.620   4.887   2.140  1.00  0.00    -0.266 OA
HETATM    6  N4  UNL     1     -34.367   5.813   3.279  1.00  0.00    -0.341 N
ATOM      7  H4  UNL     1     -35.316   5.731   3.643  1.00  0.00     0.163 HD
BRANCH   6   8
HETATM    8  C4  UNL     1     -33.614   7.024   3.493  1.00  0.00     0.190 C
BRANCH   8   9
HETATM    9  C5  UNL     1     -33.844   7.524   4.921  1.00  0.00     0.076 C
BRANCH   9  10
HETATM   10  C6  UNL     1     -32.737   7.119   5.811  1.00  0.00    -0.032 A
HETATM   11  C7  UNL     1     -31.426   6.827   5.428  1.00  0.00     0.033 A
HETATM   12  C8  UNL     1     -30.749   6.500   6.572  1.00  0.00     0.142 A
HETATM   13  O3  UNL     1     -31.552   6.574   7.604  1.00  0.00    -0.334 OA
HETATM   14  C9  UNL     1     -32.739   6.939   7.187  1.00  0.00     0.148 A
ENDBRANCH   9  10
ENDBRANCH   8   9
BRANCH   8  15
HETATM   15  C10 UNL     1     -33.978   8.068   2.507  1.00  0.00     0.197 C
HETATM   16  O4  UNL     1     -34.952   8.822   2.747  1.00  0.00    -0.646 OA
HETATM   17  O5  UNL     1     -33.263   8.219   1.336  1.00  0.00    -0.646 OA
ENDBRANCH   8  15
ENDBRANCH   6   8
ENDBRANCH   3   4
BRANCH   3  18
HETATM   18  C11 UNL     1     -34.232   2.237   2.961  1.00  0.00    -0.003 A
HETATM   19  C12 UNL     1     -35.055   1.626   3.918  1.00  0.00     0.014 A
HETATM   20  C13 UNL     1     -34.763   0.420   4.518  1.00  0.00     0.001 A
HETATM   21  C14 UNL     1     -33.613  -0.259   4.193  1.00  0.00     0.000 A
HETATM   22  C15 UNL     1     -32.780   0.302   3.261  1.00  0.00     0.001 A
HETATM   23  C16 UNL     1     -33.092   1.532   2.660  1.00  0.00     0.014 A
ENDBRANCH   3  18
BRANCH   1  24
HETATM   24  N2  UNL     1     -36.724   3.191   1.164  1.00  0.00    -0.253 N
HETATM   25  C1  UNL     1     -37.964   3.932   1.235  1.00  0.00     0.347 C
HETATM   26  N1  UNL     1     -39.175   3.452   0.675  1.00  0.00    -0.038 NA
HETATM   27  O1  UNL     1     -37.970   5.041   1.814  1.00  0.00    -0.249 OA
ATOM     28  H2  UNL     1     -36.699   2.285   0.695  1.00  0.00     0.191 HD
ENDBRANCH   1  24
TORSDOF 7
ENDMDL