MODEL 5
REMARK VINA RESULT: -7.792806174      2.719      9.160
REMARK  7 active torsions:
REMARK  status: ('A' for Active; 'I' for Inactive)
REMARK       I    between atoms: C1_2  and  N2_4
REMARK    1  A    between atoms: N2_4  and  C2_6
REMARK    2  A    between atoms: C2_6  and  C3_7
REMARK    3  A    between atoms: C2_6  and  C12_23
REMARK    4  A    between atoms: C3_7  and  O2_8
REMARK    5  A    between atoms: O2_8  and  C4_9
REMARK    6  A    between atoms: C8_13  and  C9_14
REMARK    7  A    between atoms: N3_15  and  N4_17
ROOT
HETATM    1  C4  UNL     1     -34.406   1.439   3.485  1.00  0.00     0.069 A
HETATM    2  C5  UNL     1     -33.092   1.071   3.277  1.00  0.00     0.037 A
HETATM    3  C6  UNL     1     -32.497   0.119   4.077  1.00  0.00     0.004 A
HETATM    4  C7  UNL     1     -33.248  -0.455   5.086  1.00  0.00     0.013 A
HETATM    5  C8  UNL     1     -34.560  -0.111   5.320  1.00  0.00    -0.017 A
HETATM    6  C11 UNL     1     -35.136   0.837   4.516  1.00  0.00     0.049 A
ENDROOT
BRANCH   1   7
HETATM    7  O2  UNL     1     -35.023   2.395   2.692  1.00  0.00    -0.349 OA
BRANCH   7   8
HETATM    8  C3  UNL     1     -35.698   1.963   1.525  1.00  0.00     0.205 C
BRANCH   8   9
HETATM    9  C2  UNL     1     -36.167   3.205   0.800  1.00  0.00     0.143 C
BRANCH   9  10
HETATM   10  N2  UNL     1     -37.588   2.997   0.508  1.00  0.00    -0.335 N
HETATM   11  C1  UNL     1     -38.591   3.782   1.116  1.00  0.00     0.329 C
HETATM   12  N1  UNL     1     -39.946   3.538   0.798  1.00  0.00    -0.040 NA
HETATM   13  O1  UNL     1     -38.250   4.681   1.927  1.00  0.00    -0.251 OA
ATOM     14  H2  UNL     1     -37.860   2.267  -0.150  1.00  0.00     0.164 HD
ENDBRANCH   9  10
BRANCH   9  15
HETATM   15  C12 UNL     1     -35.401   3.476  -0.426  1.00  0.00    -0.033 A
HETATM   16  C13 UNL     1     -34.041   3.788  -0.386  1.00  0.00     0.009 A
HETATM   17  C14 UNL     1     -33.338   4.037  -1.526  1.00  0.00     0.001 A
HETATM   18  C15 UNL     1     -33.946   3.991  -2.766  1.00  0.00     0.000 A
HETATM   19  C16 UNL     1     -35.284   3.684  -2.800  1.00  0.00     0.001 A
HETATM   20  C17 UNL     1     -36.009   3.429  -1.657  1.00  0.00     0.009 A
ENDBRANCH   9  15
ENDBRANCH   8   9
ENDBRANCH   7   8
ENDBRANCH   1   7
BRANCH   5  21
HETATM   21  C9  UNL     1     -35.339  -0.721   6.384  1.00  0.00     0.118 C
HETATM   22  N3  UNL     1     -35.955  -1.824   6.115  1.00  0.00    -0.309 N
ATOM     23  H3  UNL     1     -35.859  -2.203   5.173  1.00  0.00     0.186 HD
BRANCH  22  24
HETATM   24  N4  UNL     1     -36.732  -2.526   7.010  1.00  0.00    -0.276 N
HETATM   25  C10 UNL     1     -36.312  -3.649   7.477  1.00  0.00     0.215 C
HETATM   26  N5  UNL     1     -35.048  -4.122   7.043  1.00  0.00    -0.065 NA
HETATM   27  N6  UNL     1     -37.095  -4.408   8.411  1.00  0.00    -0.065 NA
ATOM     28  H4  UNL     1     -37.637  -2.158   7.301  1.00  0.00     0.189 HD
ENDBRANCH  22  24
ENDBRANCH   5  21
TORSDOF 7
ENDMDL