MODEL 1
REMARK VINA RESULT: -6.840894127      0.000      0.000
REMARK  6 active torsions:
REMARK  status: ('A' for Active; 'I' for Inactive)
REMARK       I    between atoms: N1_2  and  C2_4
REMARK    1  A    between atoms: C2_4  and  C3_6
REMARK    2  A    between atoms: C3_6  and  C4_7
REMARK    3  A    between atoms: C3_6  and  N2_9
REMARK       I    between atoms: N2_9  and  C5_11
REMARK       I    between atoms: C5_11  and  N3_13
REMARK    4  A    between atoms: N3_13  and  S2_15
REMARK    5  A    between atoms: S2_15  and  C6_18
REMARK    6  A    between atoms: C6_18  and  C7_19
ROOT
HETATM    1  N2  UNL     1     -35.095  -2.162   7.435  1.00  0.00    -0.328 N
ATOM      2  H2  UNL     1     -34.331  -2.120   8.109  1.00  0.00     0.165 HD
HETATM    3  C5  UNL     1     -34.914  -1.525   6.192  1.00  0.00     0.330 C
HETATM    4  O2  UNL     1     -35.837  -1.552   5.322  1.00  0.00    -0.246 OA
HETATM    5  N3  UNL     1     -33.685  -0.855   5.931  1.00  0.00    -0.236 N
ATOM      6  H3  UNL     1     -32.963  -0.848   6.651  1.00  0.00     0.183 HD
ENDROOT
BRANCH   1   7
HETATM    7  C3  UNL     1     -36.288  -2.868   7.814  1.00  0.00     0.188 C
BRANCH   7   8
HETATM    8  C2  UNL     1     -36.106  -4.293   7.588  1.00  0.00     0.240 C
HETATM    9  N1  UNL     1     -34.880  -4.932   7.287  1.00  0.00    -0.364 N
HETATM   10  C1  UNL     1     -34.776  -6.354   7.078  1.00  0.00     0.149 C
ATOM     11  H1  UNL     1     -34.036  -4.363   7.214  1.00  0.00     0.161 HD
HETATM   12  O1  UNL     1     -37.120  -5.032   7.666  1.00  0.00    -0.271 OA
ENDBRANCH   7   8
BRANCH   7  13
HETATM   13  C4  UNL     1     -36.629  -2.457   9.204  1.00  0.00     0.121 C
HETATM   14  S1  UNL     1     -36.091  -0.826   9.673  1.00  0.00    -0.095 SA
ENDBRANCH   7  13
ENDBRANCH   1   7
BRANCH   5  15
HETATM   15  S2  UNL     1     -33.381  -0.054   4.434  1.00  0.00     0.238 S
HETATM   16  O3  UNL     1     -33.463  -1.054   3.312  1.00  0.00    -0.205 OA
HETATM   17  O4  UNL     1     -31.975   0.498   4.399  1.00  0.00    -0.205 OA
BRANCH  15  18
HETATM   18  C6  UNL     1     -34.522   1.260   4.224  1.00  0.00     0.202 C
BRANCH  18  19
HETATM   19  C7  UNL     1     -34.474   1.884   2.884  1.00  0.00    -0.043 A
HETATM   20  C8  UNL     1     -35.654   2.030   2.193  1.00  0.00     0.008 A
HETATM   21  C9  UNL     1     -35.667   2.620   0.932  1.00  0.00     0.001 A
HETATM   22  C10 UNL     1     -34.460   3.041   0.422  1.00  0.00     0.000 A
HETATM   23  C11 UNL     1     -33.274   2.896   1.114  1.00  0.00     0.001 A
HETATM   24  C12 UNL     1     -33.291   2.311   2.355  1.00  0.00     0.008 A
ENDBRANCH  18  19
ENDBRANCH  15  18
ENDBRANCH   5  15
TORSDOF 6
ENDMDL