MODEL 3
REMARK VINA RESULT: -7.423720505      1.536      2.033
REMARK  10 active torsions:
REMARK  status: ('A' for Active; 'I' for Inactive)
REMARK    1  A    between atoms: C1_2  and  C2_4
REMARK    2  A    between atoms: C2_4  and  O3_5
REMARK    3  A    between atoms: O3_5  and  C3_6
REMARK    4  A    between atoms: C3_6  and  C4_8
REMARK    5  A    between atoms: C4_8  and  C5_9
REMARK    6  A    between atoms: C4_8  and  N1_13
REMARK    7  A    between atoms: C5_9  and  C6_10
REMARK    8  A    between atoms: N1_13  and  C7_15
REMARK    9  A    between atoms: C7_15  and  N2_17
REMARK   10  A    between atoms: N2_17  and  C8_19
ROOT
HETATM    1  C4  UNL     1     -35.784  -1.109   6.553  1.00  0.00     0.193 C
ENDROOT
BRANCH   1   2
HETATM    2  C3  UNL     1     -36.317  -2.429   6.875  1.00  0.00     0.282 C
HETATM    3  O4  UNL     1     -37.517  -2.616   7.178  1.00  0.00    -0.263 OA
BRANCH   2   4
HETATM    4  O3  UNL     1     -35.500  -3.547   6.858  1.00  0.00    -0.309 OA
BRANCH   4   5
HETATM    5  C2  UNL     1     -35.840  -4.744   7.563  1.00  0.00     0.291 C
BRANCH   5   6
HETATM    6  C1  UNL     1     -36.129  -5.815   6.613  1.00  0.00     0.198 C
HETATM    7  O1  UNL     1     -37.321  -6.000   6.248  1.00  0.00    -0.646 OA
HETATM    8  O2  UNL     1     -35.112  -6.615   6.122  1.00  0.00    -0.646 OA
ENDBRANCH   5   6
ENDBRANCH   4   5
ENDBRANCH   2   4
ENDBRANCH   1   2
BRANCH   1   9
HETATM    9  C5  UNL     1     -34.795  -0.572   7.542  1.00  0.00     0.148 C
BRANCH   9  10
HETATM   10  C6  UNL     1     -35.368  -0.079   8.785  1.00  0.00     0.175 C
HETATM   11  O5  UNL     1     -35.383   1.127   9.122  1.00  0.00    -0.648 OA
HETATM   12  O6  UNL     1     -35.940  -0.973   9.673  1.00  0.00    -0.648 OA
ENDBRANCH   9  10
ENDBRANCH   1   9
BRANCH   1  13
HETATM   13  N1  UNL     1     -35.219  -1.109   5.221  1.00  0.00    -0.353 N
ATOM     14  H1  UNL     1     -35.490  -1.873   4.602  1.00  0.00     0.162 HD
BRANCH  13  15
HETATM   15  C7  UNL     1     -34.334  -0.156   4.706  1.00  0.00     0.168 C
HETATM   16  S1  UNL     1     -32.736  -0.430   4.704  1.00  0.00    -0.041 SA
BRANCH  15  17
HETATM   17  N2  UNL     1     -34.832   1.054   4.171  1.00  0.00    -0.363 N
ATOM     18  H2  UNL     1     -35.423   1.656   4.745  1.00  0.00     0.162 HD
BRANCH  17  19
HETATM   19  C8  UNL     1     -34.512   1.439   2.829  1.00  0.00     0.083 C
HETATM   20  C9  UNL     1     -35.704   1.826   2.013  1.00  0.00     0.025 C
HETATM   21  C10 UNL     1     -35.489   3.118   1.260  1.00  0.00     0.002 C
HETATM   22  C11 UNL     1     -34.177   3.114   0.508  1.00  0.00     0.000 C
HETATM   23  C12 UNL     1     -33.020   2.659   1.343  1.00  0.00     0.002 C
HETATM   24  C13 UNL     1     -33.489   2.550   2.780  1.00  0.00     0.025 C
ENDBRANCH  17  19
ENDBRANCH  15  17
ENDBRANCH  13  15
ENDBRANCH   1  13
TORSDOF 10
ENDMDL