MODEL 1
REMARK VINA RESULT: -8.796357622      0.000      0.000
REMARK  9 active torsions:
REMARK  status: ('A' for Active; 'I' for Inactive)
REMARK    1  A    between atoms: C2_2  and  N1_3
REMARK    2  A    between atoms: C2_2  and  C14_23
REMARK    3  A    between atoms: N1_3  and  C3_5
REMARK    4  A    between atoms: C3_5  and  C4_7
REMARK    5  A    between atoms: C4_7  and  N2_8
REMARK    6  A    between atoms: C4_7  and  C13_20
REMARK       I    between atoms: N2_8  and  C5_10
REMARK    7  A    between atoms: C5_10  and  O2_12
REMARK    8  A    between atoms: O2_12  and  C6_13
REMARK    9  A    between atoms: C6_13  and  C7_14
ROOT
HETATM    1  C4  UNL     1     -35.321  -1.930   7.404  1.00  0.00     0.249 C
ENDROOT
BRANCH   1   2
HETATM    2  C3  UNL     1     -35.790  -3.327   7.516  1.00  0.00     0.107 C
HETATM    3  S1  UNL     1     -37.136  -3.589   8.401  1.00  0.00    -0.063 SA
BRANCH   2   4
HETATM    4  N1  UNL     1     -35.095  -4.391   6.880  1.00  0.00    -0.368 N
ATOM      5  H1  UNL     1     -34.385  -4.153   6.187  1.00  0.00     0.161 HD
BRANCH   4   6
HETATM    6  C2  UNL     1     -35.330  -5.771   7.151  1.00  0.00     0.179 C
HETATM    7  C1  UNL     1     -34.064  -6.595   7.261  1.00  0.00     0.043 C
BRANCH   6   8
HETATM    8  C14 UNL     1     -36.268  -6.399   6.178  1.00  0.00     0.196 C
HETATM    9  O5  UNL     1     -37.479  -6.071   6.108  1.00  0.00    -0.646 OA
HETATM   10  O6  UNL     1     -35.824  -7.381   5.306  1.00  0.00    -0.646 OA
ENDBRANCH   6   8
ENDBRANCH   4   6
ENDBRANCH   2   4
ENDBRANCH   1   2
BRANCH   1  11
HETATM   11  N2  UNL     1     -35.336  -1.446   6.043  1.00  0.00    -0.316 N
HETATM   12  C5  UNL     1     -34.356  -0.532   5.559  1.00  0.00     0.361 C
HETATM   13  O1  UNL     1     -33.449  -0.126   6.315  1.00  0.00    -0.238 OA
ATOM     14  H2  UNL     1     -36.069  -1.767   5.410  1.00  0.00     0.166 HD
BRANCH  12  15
HETATM   15  O2  UNL     1     -34.420  -0.101   4.247  1.00  0.00    -0.299 OA
BRANCH  15  16
HETATM   16  C6  UNL     1     -33.352   0.625   3.635  1.00  0.00     0.219 C
BRANCH  16  17
HETATM   17  C7  UNL     1     -33.872   1.506   2.569  1.00  0.00    -0.034 A
HETATM   18  C8  UNL     1     -33.029   2.235   1.732  1.00  0.00     0.009 A
HETATM   19  C9  UNL     1     -33.512   3.059   0.737  1.00  0.00     0.001 A
HETATM   20  C10 UNL     1     -34.871   3.187   0.540  1.00  0.00     0.000 A
HETATM   21  C11 UNL     1     -35.737   2.471   1.361  1.00  0.00     0.001 A
HETATM   22  C12 UNL     1     -35.228   1.653   2.350  1.00  0.00     0.009 A
ENDBRANCH  16  17
ENDBRANCH  15  16
ENDBRANCH  12  15
ENDBRANCH   1  11
BRANCH   1  23
HETATM   23  C13 UNL     1     -36.036  -1.017   8.307  1.00  0.00     0.203 C
HETATM   24  O3  UNL     1     -36.858  -0.188   7.811  1.00  0.00    -0.646 OA
HETATM   25  O4  UNL     1     -35.840  -1.037   9.663  1.00  0.00    -0.646 OA
ENDBRANCH   1  23
TORSDOF 9
ENDMDL