MODEL 5
REMARK VINA RESULT: -6.788181365      4.738      9.457
REMARK  10 active torsions:
REMARK  status: ('A' for Active; 'I' for Inactive)
REMARK    1  A    between atoms: O1_2  and  C2_3
REMARK    2  A    between atoms: C2_3  and  C3_7
REMARK    3  A    between atoms: C3_7  and  N2_8
REMARK    4  A    between atoms: C3_7  and  N3_12
REMARK       I    between atoms: N3_12  and  C4_14
REMARK    5  A    between atoms: C4_14  and  C5_16
REMARK    6  A    between atoms: C5_16  and  N4_17
REMARK    7  A    between atoms: C5_16  and  C14_29
REMARK       I    between atoms: N4_17  and  C6_19
REMARK    8  A    between atoms: C6_19  and  O4_21
REMARK    9  A    between atoms: O4_21  and  C7_22
REMARK   10  A    between atoms: C7_22  and  C8_23
ROOT
HETATM    1  C5  UNL     1     -33.955   4.198   2.146  1.00  0.00     0.182 C
ENDROOT
BRANCH   1   2
HETATM    2  C4  UNL     1     -33.332   5.320   2.864  1.00  0.00     0.242 C
HETATM    3  N3  UNL     1     -33.931   5.896   4.006  1.00  0.00    -0.325 N
ATOM      4  H3  UNL     1     -34.820   5.510   4.326  1.00  0.00     0.165 HD
HETATM    5  O2  UNL     1     -32.242   5.780   2.457  1.00  0.00    -0.271 OA
BRANCH   3   6
HETATM    6  C3  UNL     1     -33.366   6.998   4.748  1.00  0.00     0.359 C
BRANCH   6   7
HETATM    7  C2  UNL     1     -34.248   7.334   5.880  1.00  0.00     0.162 C
HETATM    8  N1  UNL     1     -35.491   7.622   5.704  1.00  0.00    -0.380 N
ATOM      9  H12 UNL     1     -36.102   7.854   6.488  1.00  0.00     0.158 HD
ATOM     10  H11 UNL     1     -35.815   7.600   4.737  1.00  0.00     0.158 HD
BRANCH   7  11
HETATM   11  O1  UNL     1     -33.803   7.364   7.209  1.00  0.00    -0.341 OA
HETATM   12  C1  UNL     1     -32.491   6.903   7.510  1.00  0.00     0.211 C
ENDBRANCH   7  11
ENDBRANCH   6   7
BRANCH   6  13
HETATM   13  N2  UNL     1     -33.296   8.190   3.902  1.00  0.00    -0.051 N
ATOM     14  H23 UNL     1     -33.839   8.974   4.265  1.00  0.00     0.277 HD
ATOM     15  H22 UNL     1     -32.384   8.646   3.923  1.00  0.00     0.277 HD
ATOM     16  H21 UNL     1     -33.582   7.902   2.966  1.00  0.00     0.277 HD
ENDBRANCH   6  13
ENDBRANCH   3   6
ENDBRANCH   1   2
BRANCH   1  17
HETATM   17  N4  UNL     1     -33.363   2.932   2.403  1.00  0.00    -0.323 N
HETATM   18  C6  UNL     1     -33.993   1.830   3.022  1.00  0.00     0.361 C
HETATM   19  O3  UNL     1     -35.186   1.964   3.387  1.00  0.00    -0.238 OA
ATOM     20  H4  UNL     1     -32.393   2.808   2.113  1.00  0.00     0.165 HD
BRANCH  18  21
HETATM   21  O4  UNL     1     -33.384   0.618   3.250  1.00  0.00    -0.299 OA
BRANCH  21  22
HETATM   22  C7  UNL     1     -32.834   0.166   4.452  1.00  0.00     0.219 C
BRANCH  22  23
HETATM   23  C8  UNL     1     -33.865  -0.311   5.409  1.00  0.00    -0.034 A
HETATM   24  C9  UNL     1     -34.945  -1.093   5.050  1.00  0.00     0.009 A
HETATM   25  C10 UNL     1     -35.892  -1.531   5.945  1.00  0.00     0.001 A
HETATM   26  C11 UNL     1     -35.758  -1.167   7.282  1.00  0.00     0.000 A
HETATM   27  C12 UNL     1     -34.697  -0.390   7.670  1.00  0.00     0.001 A
HETATM   28  C13 UNL     1     -33.765   0.032   6.750  1.00  0.00     0.009 A
ENDBRANCH  22  23
ENDBRANCH  21  22
ENDBRANCH  18  21
ENDBRANCH   1  17
BRANCH   1  29
HETATM   29  C14 UNL     1     -33.947   4.490   0.640  1.00  0.00     0.009 C
HETATM   30  C15 UNL     1     -34.445   3.293  -0.143  1.00  0.00     0.012 C
HETATM   31  C16 UNL     1     -34.875   5.650   0.332  1.00  0.00     0.012 C
ENDBRANCH   1  29
TORSDOF 10
ENDMDL