MODEL 3
REMARK VINA RESULT: -5.737917753      2.821      4.050
REMARK  11 active torsions:
REMARK  status: ('A' for Active; 'I' for Inactive)
REMARK    1  A    between atoms: C2_2  and  N1_3
REMARK    2  A    between atoms: C2_2  and  C13_20
REMARK    3  A    between atoms: N1_3  and  C3_4
REMARK    4  A    between atoms: C3_4  and  O1_5
REMARK    5  A    between atoms: C3_4  and  C4_7
REMARK    6  A    between atoms: C4_7  and  N2_8
REMARK    7  A    between atoms: C4_7  and  C10_17
REMARK       I    between atoms: N2_8  and  C5_10
REMARK    8  A    between atoms: C5_10  and  O3_12
REMARK    9  A    between atoms: O3_12  and  C6_13
REMARK       I    between atoms: C13_20  and  N3_22
REMARK   10  A    between atoms: N3_22  and  C14_24
REMARK   11  A    between atoms: C14_24  and  C15_25
ROOT
HETATM    1  C3  UNL     1     -33.952   2.131   2.378  1.00  0.00     0.233 C
ENDROOT
BRANCH   1   2
HETATM    2  N1  UNL     1     -33.824   0.980   3.127  1.00  0.00    -0.408 NA
BRANCH   2   3
HETATM    3  C2  UNL     1     -33.702  -0.149   3.857  1.00  0.00     0.254 C
HETATM    4  C1  UNL     1     -32.349  -0.330   4.576  1.00  0.00     0.058 C
BRANCH   3   5
HETATM    5  C13 UNL     1     -34.744  -0.121   5.069  1.00  0.00     0.257 C
HETATM    6  O4  UNL     1     -35.077   1.060   5.300  1.00  0.00    -0.270 OA
HETATM    7  N3  UNL     1     -35.104  -1.265   5.615  1.00  0.00    -0.328 N
ATOM      8  H3  UNL     1     -34.651  -2.061   5.165  1.00  0.00     0.168 HD
BRANCH   7   9
HETATM    9  C14 UNL     1     -35.979  -1.678   6.693  1.00  0.00     0.175 C
BRANCH   9  10
HETATM   10  C15 UNL     1     -35.517  -1.366   8.028  1.00  0.00     0.214 C
HETATM   11  O5  UNL     1     -34.378  -1.249   8.401  1.00  0.00    -0.643 OA
HETATM   12  O6  UNL     1     -36.572  -1.183   8.995  1.00  0.00    -0.643 OA
ENDBRANCH   9  10
ENDBRANCH   7   9
ENDBRANCH   3   5
ENDBRANCH   2   3
ENDBRANCH   1   2
BRANCH   1  13
HETATM   13  O1  UNL     1     -33.103   2.276   1.347  1.00  0.00    -0.334 OA
ATOM     14  H1  UNL     1     -32.659   3.114   1.275  1.00  0.00     0.220 HD
ENDBRANCH   1  13
BRANCH   1  15
HETATM   15  C4  UNL     1     -34.830   3.297   2.415  1.00  0.00     0.082 C
BRANCH  15  16
HETATM   16  N2  UNL     1     -34.217   4.367   3.170  1.00  0.00    -0.301 N
HETATM   17  C5  UNL     1     -33.280   5.320   2.880  1.00  0.00     0.365 C
HETATM   18  O2  UNL     1     -32.686   5.483   1.827  1.00  0.00    -0.238 OA
ATOM     19  H2  UNL     1     -34.557   4.422   4.129  1.00  0.00     0.171 HD
BRANCH  17  20
HETATM   20  O3  UNL     1     -32.883   6.265   3.896  1.00  0.00    -0.294 OA
BRANCH  20  21
HETATM   21  C6  UNL     1     -33.734   7.384   4.134  1.00  0.00     0.061 C
HETATM   22  C7  UNL     1     -34.551   7.114   5.376  1.00  0.00     0.046 C
HETATM   23  C8  UNL     1     -34.652   7.654   2.991  1.00  0.00     0.046 C
HETATM   24  C9  UNL     1     -32.893   8.625   4.446  1.00  0.00     0.046 C
ENDBRANCH  20  21
ENDBRANCH  17  20
ENDBRANCH  15  16
BRANCH  15  25
HETATM   25  C10 UNL     1     -35.688   3.669   1.287  1.00  0.00     0.033 C
HETATM   26  C11 UNL     1     -36.493   2.664   0.568  1.00  0.00     0.016 C
HETATM   27  C12 UNL     1     -36.569   4.858   1.669  1.00  0.00     0.016 C
ENDBRANCH  15  25
ENDBRANCH   1  15
TORSDOF 11
ENDMDL