MODEL 1
REMARK VINA RESULT: -8.392932201      0.000      0.000
REMARK  10 active torsions:
REMARK  status: ('A' for Active; 'I' for Inactive)
REMARK    1  A    between atoms: C3_3  and  C4_4
REMARK       I    between atoms: C4_4  and  N1_6
REMARK    2  A    between atoms: N1_6  and  N2_7
REMARK    3  A    between atoms: C5_9  and  O2_10
REMARK    4  A    between atoms: C5_9  and  C6_12
REMARK    5  A    between atoms: C6_12  and  N3_13
REMARK    6  A    between atoms: N3_13  and  C7_15
REMARK    7  A    between atoms: C10_18  and  C11_19
REMARK       I    between atoms: C11_19  and  N4_21
REMARK    8  A    between atoms: N4_21  and  C12_23
REMARK    9  A    between atoms: C12_23  and  C13_24
REMARK   10  A    between atoms: C13_24  and  O4_26
ROOT
HETATM    1  C7  UNL     1     -33.583   0.008   5.190  1.00  0.00     0.028 A
HETATM    2  C8  UNL     1     -34.827   0.796   4.994  1.00  0.00     0.030 A
HETATM    3  C9  UNL     1     -34.973   1.528   3.800  1.00  0.00     0.019 A
HETATM    4  C10 UNL     1     -33.904   1.519   2.786  1.00  0.00     0.032 A
HETATM    5  C16 UNL     1     -32.869   0.787   3.129  1.00  0.00     0.019 A
HETATM    6  C17 UNL     1     -32.721   0.050   4.274  1.00  0.00     0.030 A
ENDROOT
BRANCH   1   7
HETATM    7  N3  UNL     1     -33.603  -0.622   6.492  1.00  0.00    -0.382 N
ATOM      8  H3  UNL     1     -33.096  -1.483   6.700  1.00  0.00     0.160 HD
BRANCH   7   9
HETATM    9  C6  UNL     1     -34.435   0.101   7.509  1.00  0.00     0.206 C
BRANCH   9  10
HETATM   10  C5  UNL     1     -35.578  -0.900   7.582  1.00  0.00     0.159 C
HETATM   11  N2  UNL     1     -35.550  -2.218   7.286  1.00  0.00    -0.212 N
ATOM     12  H2  UNL     1     -34.651  -2.685   7.170  1.00  0.00     0.204 HD
BRANCH  11  13
HETATM   13  N1  UNL     1     -36.661  -2.911   7.146  1.00  0.00    -0.280 NA
HETATM   14  C4  UNL     1     -37.833  -3.594   7.015  1.00  0.00     0.335 C
HETATM   15  O1  UNL     1     -39.013  -3.367   7.204  1.00  0.00    -0.250 OA
BRANCH  14  16
HETATM   16  C3  UNL     1     -37.469  -5.011   6.441  1.00  0.00     0.087 C
HETATM   17  C2  UNL     1     -36.358  -5.596   6.812  1.00  0.00    -0.024 C
HETATM   18  C1  UNL     1     -36.100  -6.945   6.177  1.00  0.00     0.036 C
ENDBRANCH  14  16
ENDBRANCH  11  13
BRANCH  10  19
HETATM   19  O2  UNL     1     -36.784  -0.376   7.959  1.00  0.00    -0.347 OA
ATOM     20  H2  UNL     1     -37.145   0.309   7.409  1.00  0.00     0.219 HD
ENDBRANCH  10  19
ENDBRANCH   9  10
ENDBRANCH   7   9
ENDBRANCH   1   7
BRANCH   4  21
HETATM   21  C11 UNL     1     -34.004   2.350   1.651  1.00  0.00     0.251 C
HETATM   22  O3  UNL     1     -32.960   2.786   1.075  1.00  0.00    -0.268 OA
HETATM   23  N4  UNL     1     -35.316   2.605   1.185  1.00  0.00    -0.354 N
ATOM     24  H4  UNL     1     -36.198   2.406   1.658  1.00  0.00     0.162 HD
BRANCH  23  25
HETATM   25  C12 UNL     1     -35.100   3.277  -0.247  1.00  0.00     0.154 C
BRANCH  25  26
HETATM   26  C13 UNL     1     -36.652   3.569  -0.621  1.00  0.00     0.134 C
HETATM   27  C14 UNL     1     -37.539   2.994   0.395  1.00  0.00     0.041 C
BRANCH  26  28
HETATM   28  O4  UNL     1     -36.748   2.958  -1.834  1.00  0.00    -0.389 OA
HETATM   29  C15 UNL     1     -37.128   3.608  -2.945  1.00  0.00     0.202 C
ENDBRANCH  26  28
ENDBRANCH  25  26
ENDBRANCH  23  25
ENDBRANCH   4  21
TORSDOF 10
ENDMDL