MODEL 4
REMARK VINA RESULT: -5.701857602      5.961      7.876
REMARK  10 active torsions:
REMARK  status: ('A' for Active; 'I' for Inactive)
REMARK    1  A    between atoms: C2_2  and  C4_4
REMARK    2  A    between atoms: C4_4  and  C5_6
REMARK    3  A    between atoms: C5_6  and  C6_7
REMARK    4  A    between atoms: C5_6  and  N1_11
REMARK    5  A    between atoms: C6_7  and  C7_8
REMARK       I    between atoms: N1_11  and  C8_12
REMARK    6  A    between atoms: C8_12  and  C9_14
REMARK    7  A    between atoms: C9_14  and  N2_15
REMARK    8  A    between atoms: C13_19  and  C15_21
REMARK    9  A    between atoms: C15_21  and  O5_22
REMARK   10  A    between atoms: N3_24  and  O6_26
ROOT
HETATM    1  C9  UNL     1     -37.811   3.500  -0.144  1.00  0.00     0.151 C
ENDROOT
BRANCH   1   2
HETATM    2  C8  UNL     1     -36.848   3.578  -1.315  1.00  0.00     0.321 C
HETATM    3  N1  UNL     1     -35.513   3.712  -1.082  1.00  0.00    -0.397 NA
HETATM    4  O4  UNL     1     -37.419   3.508  -2.433  1.00  0.00    -0.251 OA
BRANCH   3   5
HETATM    5  C5  UNL     1     -34.161   3.849  -0.850  1.00  0.00     0.246 C
BRANCH   5   6
HETATM    6  C4  UNL     1     -33.784   3.564   0.556  1.00  0.00     0.166 C
HETATM    7  O1  UNL     1     -33.068   4.402   1.131  1.00  0.00    -0.294 OA
BRANCH   6   8
HETATM    8  C2  UNL     1     -34.167   2.388   1.343  1.00  0.00     0.050 C
HETATM    9  C1  UNL     1     -32.981   1.816   2.126  1.00  0.00     0.017 C
HETATM   10  C3  UNL     1     -35.291   2.580   2.308  1.00  0.00     0.017 C
ENDBRANCH   6   8
ENDBRANCH   5   6
BRANCH   5  11
HETATM   11  C6  UNL     1     -33.485   5.180  -1.186  1.00  0.00     0.160 C
BRANCH  11  12
HETATM   12  C7  UNL     1     -32.724   5.076  -2.452  1.00  0.00     0.176 C
HETATM   13  O2  UNL     1     -31.510   5.366  -2.516  1.00  0.00    -0.648 OA
HETATM   14  O3  UNL     1     -33.370   4.651  -3.588  1.00  0.00    -0.648 OA
ENDBRANCH  11  12
ENDBRANCH   5  11
ENDBRANCH   3   5
ENDBRANCH   1   2
BRANCH   1  15
HETATM   15  N2  UNL     1     -38.869   4.417  -0.138  1.00  0.00    -0.270 NA
HETATM   16  C10 UNL     1     -38.177   5.754   0.020  1.00  0.00     0.096 C
HETATM   17  C11 UNL     1     -37.691   5.712   1.428  1.00  0.00     0.017 C
HETATM   18  C12 UNL     1     -38.737   4.905   2.137  1.00  0.00     0.035 C
HETATM   19  C13 UNL     1     -39.667   4.449   1.042  1.00  0.00     0.080 C
HETATM   20  C14 UNL     1     -40.348   3.151   1.444  1.00  0.00     0.042 C
BRANCH  19  21
HETATM   21  C15 UNL     1     -40.775   5.443   0.908  1.00  0.00     0.159 C
HETATM   22  N3  UNL     1     -41.613   5.437  -0.003  1.00  0.00    -0.249 N
ATOM     23  H3  UNL     1     -42.294   6.192   0.075  1.00  0.00     0.196 HD
BRANCH  21  24
HETATM   24  O5  UNL     1     -40.881   6.472   1.875  1.00  0.00    -0.347 OA
ATOM     25  H5  UNL     1     -41.589   7.099   1.793  1.00  0.00     0.219 HD
ENDBRANCH  21  24
BRANCH  22  26
HETATM   26  O6  UNL     1     -41.815   4.653  -1.065  1.00  0.00    -0.288 OA
ATOM     27  H6  UNL     1     -42.498   4.040  -1.307  1.00  0.00     0.244 HD
ENDBRANCH  22  26
ENDBRANCH  19  21
ENDBRANCH   1  15
TORSDOF 10
ENDMDL