MODEL 3
REMARK VINA RESULT: -7.509208044      6.292      9.108
REMARK  8 active torsions:
REMARK  status: ('A' for Active; 'I' for Inactive)
REMARK    1  A    between atoms: C2_2  and  C4_4
REMARK    2  A    between atoms: C4_4  and  C11_13
REMARK    3  A    between atoms: C5_5  and  C6_6
REMARK    4  A    between atoms: C11_13  and  O1_14
REMARK    5  A    between atoms: C11_13  and  N2_16
REMARK       I    between atoms: N2_16  and  C12_18
REMARK    6  A    between atoms: C12_18  and  C13_20
REMARK    7  A    between atoms: C13_20  and  N3_22
REMARK       I    between atoms: N3_22  and  C15_24
REMARK    8  A    between atoms: C15_24  and  C16_26
ROOT
HETATM    1  C11 UNL     1     -34.453   4.501   1.172  1.00  0.00     0.251 C
ENDROOT
BRANCH   1   2
HETATM    2  C4  UNL     1     -34.852   3.167   1.602  1.00  0.00    -0.028 C
HETATM    3  C5  UNL     1     -35.974   2.641   1.159  1.00  0.00     0.020 C
BRANCH   2   4
HETATM    4  C2  UNL     1     -34.008   2.386   2.570  1.00  0.00     0.011 C
HETATM    5  C1  UNL     1     -34.831   1.472   3.414  1.00  0.00     0.014 C
HETATM    6  C3  UNL     1     -32.869   1.657   1.924  1.00  0.00     0.014 C
ENDBRANCH   2   4
BRANCH   3   7
HETATM    7  C6  UNL     1     -36.949   3.156   0.258  1.00  0.00    -0.020 A
HETATM    8  C7  UNL     1     -38.154   3.672   0.755  1.00  0.00     0.014 A
HETATM    9  C8  UNL     1     -39.119   4.231  -0.025  1.00  0.00     0.018 A
HETATM   10  C9  UNL     1     -38.912   4.301  -1.399  1.00  0.00     0.087 A
HETATM   11  N1  UNL     1     -37.764   3.814  -1.902  1.00  0.00    -0.374 N
HETATM   12  C10 UNL     1     -36.807   3.256  -1.104  1.00  0.00     0.099 A
ATOM     13  H1  UNL     1     -37.605   3.863  -2.908  1.00  0.00     0.164 HD
ENDBRANCH   3   7
ENDBRANCH   1   2
BRANCH   1  14
HETATM   14  O1  UNL     1     -33.080   4.552   0.934  1.00  0.00    -0.373 OA
ATOM     15  H1  UNL     1     -32.673   5.227   1.463  1.00  0.00     0.212 HD
ENDBRANCH   1  14
BRANCH   1  16
HETATM   16  N2  UNL     1     -34.905   5.601   1.979  1.00  0.00    -0.329 N
HETATM   17  C12 UNL     1     -34.173   6.090   3.067  1.00  0.00     0.242 C
HETATM   18  O2  UNL     1     -33.043   5.558   3.368  1.00  0.00    -0.271 OA
ATOM     19  H2  UNL     1     -35.795   6.043   1.750  1.00  0.00     0.165 HD
BRANCH  17  20
HETATM   20  C13 UNL     1     -34.607   7.204   3.924  1.00  0.00     0.173 C
HETATM   21  C14 UNL     1     -34.701   8.531   3.251  1.00  0.00     0.042 C
BRANCH  20  22
HETATM   22  N3  UNL     1     -33.801   7.297   5.139  1.00  0.00    -0.339 N
HETATM   23  C15 UNL     1     -34.270   7.835   6.353  1.00  0.00     0.318 C
HETATM   24  O3  UNL     1     -35.440   8.267   6.433  1.00  0.00    -0.261 OA
ATOM     25  H3  UNL     1     -32.841   6.952   5.107  1.00  0.00     0.163 HD
BRANCH  23  26
HETATM   26  C16 UNL     1     -33.413   7.895   7.517  1.00  0.00     0.270 C
HETATM   27  O4  UNL     1     -32.395   7.199   7.629  1.00  0.00    -0.640 OA
HETATM   28  O5  UNL     1     -33.742   8.767   8.554  1.00  0.00    -0.640 OA
ENDBRANCH  23  26
ENDBRANCH  20  22
ENDBRANCH  17  20
ENDBRANCH   1  16
TORSDOF 8
ENDMDL