MODEL 2
REMARK VINA RESULT: -6.746711192      1.667      1.817
REMARK  13 active torsions:
REMARK  status: ('A' for Active; 'I' for Inactive)
REMARK    1  A    between atoms: C2_2  and  C16_32
REMARK    2  A    between atoms: N1_3  and  C3_5
REMARK    3  A    between atoms: C3_5  and  O1_6
REMARK    4  A    between atoms: C4_8  and  C5_9
REMARK    5  A    between atoms: C4_8  and  N2_16
REMARK    6  A    between atoms: C5_9  and  C6_10
REMARK    7  A    between atoms: N2_16  and  C12_17
REMARK    8  A    between atoms: C12_17  and  O2_18
REMARK    9  A    between atoms: C13_20  and  N3_21
REMARK       I    between atoms: N3_21  and  C14_23
REMARK   10  A    between atoms: C14_23  and  C15_25
REMARK       I    between atoms: C15_25  and  N4_27
REMARK   11  A    between atoms: N4_27  and  N5_29
REMARK   12  A    between atoms: C16_32  and  N6_33
REMARK   13  A    between atoms: C16_32  and  N7_37
ROOT
HETATM    1  C3  UNL     1      -4.484  -4.303  17.575  1.00  0.00     0.177 C
HETATM    2  C4  UNL     1      -4.417  -5.675  17.686  1.00  0.00     0.138 C
ENDROOT
BRANCH   2   3
HETATM    3  C5  UNL     1      -3.017  -5.856  16.564  1.00  0.00     0.082 C
BRANCH   3   4
HETATM    4  C6  UNL     1      -1.929  -6.171  17.411  1.00  0.00    -0.008 C
HETATM    5  C7  UNL     1      -1.187  -5.457  18.442  1.00  0.00     0.005 C
HETATM    6  C8  UNL     1      -0.344  -6.476  19.270  1.00  0.00     0.000 C
HETATM    7  C9  UNL     1      -0.210  -7.790  18.548  1.00  0.00     0.000 C
HETATM    8  C10 UNL     1       0.237  -7.446  17.102  1.00  0.00     0.000 C
HETATM    9  C11 UNL     1      -0.824  -6.689  16.385  1.00  0.00     0.005 C
ENDBRANCH   3   4
ENDBRANCH   2   3
BRANCH   2  10
HETATM   10  N2  UNL     1      -4.398  -6.995  17.814  1.00  0.00    -0.380 NA
BRANCH  10  11
HETATM   11  C12 UNL     1      -4.419  -8.351  17.961  1.00  0.00     0.230 C
HETATM   12  C13 UNL     1      -5.291  -9.260  17.282  1.00  0.00     0.163 C
BRANCH  11  13
HETATM   13  O2  UNL     1      -3.561  -8.964  18.740  1.00  0.00    -0.335 OA
ATOM     14  H2  UNL     1      -3.600  -8.872  19.685  1.00  0.00     0.220 HD
ENDBRANCH  11  13
BRANCH  12  15
HETATM   15  N3  UNL     1      -6.660  -8.962  17.074  1.00  0.00    -0.324 N
HETATM   16  C14 UNL     1      -7.603  -9.356  18.112  1.00  0.00     0.315 C
HETATM   17  O3  UNL     1      -7.185  -9.927  19.141  1.00  0.00    -0.262 OA
ATOM     18  H3  UNL     1      -6.975  -8.488  16.227  1.00  0.00     0.168 HD
BRANCH  16  19
HETATM   19  C15 UNL     1      -9.027  -9.103  17.913  1.00  0.00     0.327 C
HETATM   20  O4  UNL     1      -9.825  -9.284  18.823  1.00  0.00    -0.261 OA
HETATM   21  N4  UNL     1      -9.480  -8.641  16.598  1.00  0.00    -0.268 N
ATOM     22  H4  UNL     1      -8.765  -8.485  15.887  1.00  0.00     0.190 HD
BRANCH  21  23
HETATM   23  N5  UNL     1     -10.779  -8.400  16.241  1.00  0.00    -0.342 N
ATOM     24  H52 UNL     1     -11.463  -8.426  16.997  1.00  0.00     0.176 HD
ATOM     25  H51 UNL     1     -11.110  -8.201  15.297  1.00  0.00     0.176 HD
ENDBRANCH  21  23
ENDBRANCH  16  19
ENDBRANCH  12  15
ENDBRANCH  10  11
ENDBRANCH   2  10
BRANCH   1  26
HETATM   26  N1  UNL     1      -5.258  -3.353  18.270  1.00  0.00    -0.338 N
HETATM   27  C2  UNL     1      -5.054  -2.355  18.915  1.00  0.00     0.042 C
HETATM   28  C1  UNL     1      -3.780  -1.702  19.267  1.00  0.00     0.067 C
ATOM     29  H1  UNL     1      -6.254  -3.566  18.214  1.00  0.00     0.167 HD
BRANCH  27  30
HETATM   30  C16 UNL     1      -6.343  -1.539  19.290  1.00  0.00     0.422 C
BRANCH  30  31
HETATM   31  N6  UNL     1      -5.850  -0.420  20.031  1.00  0.00    -0.045 N
ATOM     32  H63 UNL     1      -4.842  -0.281  19.958  1.00  0.00     0.277 HD
ATOM     33  H62 UNL     1      -6.116   0.486  19.646  1.00  0.00     0.277 HD
ATOM     34  H61 UNL     1      -6.182  -0.582  20.983  1.00  0.00     0.277 HD
ENDBRANCH  30  31
BRANCH  30  35
HETATM   35  N7  UNL     1      -7.186  -2.303  20.115  1.00  0.00    -0.045 N
ATOM     36  H73 UNL     1      -7.985  -2.675  19.600  1.00  0.00     0.277 HD
ATOM     37  H72 UNL     1      -6.754  -3.188  20.383  1.00  0.00     0.277 HD
ATOM     38  H71 UNL     1      -7.476  -1.761  20.928  1.00  0.00     0.277 HD
ENDBRANCH  30  35
ENDBRANCH  27  30
ENDBRANCH   1  26
BRANCH   1  39
HETATM   39  O1  UNL     1      -3.714  -3.656  16.644  1.00  0.00    -0.344 OA
ATOM     40  H1  UNL     1      -3.518  -4.256  15.933  1.00  0.00     0.219 HD
ENDBRANCH   1  39
TORSDOF 13
ENDMDL