MODEL 5
REMARK VINA RESULT: -6.315046689      4.233      6.155
REMARK  9 active torsions:
REMARK  status: ('A' for Active; 'I' for Inactive)
REMARK    1  A    between atoms: C2_2  and  C3_3
REMARK    2  A    between atoms: C3_3  and  C5_5
REMARK    3  A    between atoms: C5_5  and  N1_6
REMARK    4  A    between atoms: C5_5  and  C6_10
REMARK       I    between atoms: C6_10  and  N2_12
REMARK    5  A    between atoms: N2_12  and  N3_14
REMARK       I    between atoms: N4_19  and  C11_21
REMARK    6  A    between atoms: C11_21  and  C12_23
REMARK    7  A    between atoms: C12_23  and  N5_24
REMARK    8  A    between atoms: C12_23  and  C15_33
REMARK       I    between atoms: N5_24  and  C13_26
REMARK    9  A    between atoms: C13_26  and  C14_28
ROOT
HETATM    1  N3  UNL     1      -3.864  -4.264  18.070  1.00  0.00    -0.278 N
HETATM    2  C7  UNL     1      -3.847  -3.878  16.684  1.00  0.00     0.151 C
HETATM    3  C8  UNL     1      -3.274  -5.052  15.947  1.00  0.00     0.029 C
HETATM    4  C9  UNL     1      -2.648  -5.914  17.006  1.00  0.00     0.080 C
HETATM    5  C10 UNL     1      -2.826  -5.209  18.292  1.00  0.00     0.101 C
HETATM    6  N4  UNL     1      -2.157  -5.424  19.374  1.00  0.00    -0.313 N
ATOM      7  H4  UNL     1      -2.378  -4.860  20.194  1.00  0.00     0.170 HD
HETATM    8  C11 UNL     1      -1.140  -6.393  19.491  1.00  0.00     0.254 C
HETATM    9  O2  UNL     1      -0.124  -6.271  18.764  1.00  0.00    -0.270 OA
ENDROOT
BRANCH   1  10
HETATM   10  N2  UNL     1      -4.765  -3.771  19.007  1.00  0.00    -0.265 N
HETATM   11  C6  UNL     1      -4.768  -2.452  19.498  1.00  0.00     0.267 C
HETATM   12  O1  UNL     1      -3.846  -1.709  18.999  1.00  0.00    -0.269 OA
ATOM     13  H2  UNL     1      -5.475  -4.411  19.364  1.00  0.00     0.190 HD
BRANCH  11  14
HETATM   14  C5  UNL     1      -5.694  -1.898  20.478  1.00  0.00     0.280 C
BRANCH  14  15
HETATM   15  C3  UNL     1      -5.902  -0.404  20.393  1.00  0.00     0.021 C
HETATM   16  C4  UNL     1      -5.286   0.378  21.498  1.00  0.00     0.012 C
BRANCH  15  17
HETATM   17  C2  UNL     1      -7.410  -0.112  20.448  1.00  0.00     0.002 C
HETATM   18  C1  UNL     1      -7.769   0.754  21.614  1.00  0.00     0.005 C
ENDBRANCH  15  17
ENDBRANCH  14  15
BRANCH  14  19
HETATM   19  N1  UNL     1      -7.008  -2.533  20.231  1.00  0.00    -0.066 N
ATOM     20  H13 UNL     1      -7.747  -2.173  20.835  1.00  0.00     0.275 HD
ATOM     21  H12 UNL     1      -7.424  -2.259  19.341  1.00  0.00     0.275 HD
ATOM     22  H11 UNL     1      -6.874  -3.540  20.319  1.00  0.00     0.275 HD
ENDBRANCH  14  19
ENDBRANCH  11  14
ENDBRANCH   1  10
BRANCH   8  23
HETATM   23  C12 UNL     1      -1.212  -7.543  20.428  1.00  0.00     0.267 C
BRANCH  23  24
HETATM   24  N5  UNL     1       0.079  -8.019  20.823  1.00  0.00    -0.334 N
HETATM   25  C13 UNL     1       0.739  -7.482  21.937  1.00  0.00     0.283 C
HETATM   26  O3  UNL     1       0.179  -6.564  22.594  1.00  0.00    -0.265 OA
ATOM     27  H5  UNL     1       0.526  -8.762  20.285  1.00  0.00     0.164 HD
BRANCH  25  28
HETATM   28  C14 UNL     1       2.073  -7.982  22.335  1.00  0.00     0.178 C
HETATM   29  N6  UNL     1       2.429  -8.001  23.571  1.00  0.00    -0.383 N
ATOM     30  H62 UNL     1       1.780  -7.665  24.283  1.00  0.00     0.157 HD
ATOM     31  H61 UNL     1       3.349  -8.346  23.845  1.00  0.00     0.157 HD
HETATM   32  N7  UNL     1       2.972  -8.446  21.347  1.00  0.00    -0.077 NA
ENDBRANCH  25  28
ENDBRANCH  23  24
BRANCH  23  33
HETATM   33  C15 UNL     1      -1.988  -8.668  19.867  1.00  0.00     0.263 C
HETATM   34  N8  UNL     1      -1.474  -9.994  19.904  1.00  0.00    -0.060 NA
HETATM   35  O4  UNL     1      -3.103  -8.474  19.355  1.00  0.00    -0.274 OA
ENDBRANCH  23  33
ENDBRANCH   8  23
TORSDOF 9
ENDMDL