MODEL 2
REMARK VINA RESULT: -7.436446007      1.557      1.794
REMARK  10 active torsions:
REMARK  status: ('A' for Active; 'I' for Inactive)
REMARK    1  A    between atoms: C1_2  and  C2_4
REMARK    2  A    between atoms: C2_4  and  C3_5
REMARK    3  A    between atoms: C3_5  and  N2_6
REMARK    4  A    between atoms: C3_5  and  C10_17
REMARK    5  A    between atoms: N2_6  and  S1_8
REMARK    6  A    between atoms: S1_8  and  C4_11
REMARK       I    between atoms: C10_17  and  N3_19
REMARK    7  A    between atoms: N3_19  and  C11_21
REMARK    8  A    between atoms: C11_21  and  N4_22
REMARK       I    between atoms: N4_22  and  C12_24
REMARK    9  A    between atoms: N6_26  and  O5_28
REMARK   10  A    between atoms: O5_28  and  C13_29
ROOT
HETATM    1  C3  UNL     1      -5.538  -1.107  20.940  1.00  0.00     0.193 C
ENDROOT
BRANCH   1   2
HETATM    2  C2  UNL     1      -6.293  -2.042  21.845  1.00  0.00     0.135 C
BRANCH   2   3
HETATM    3  C1  UNL     1      -7.752  -1.760  21.686  1.00  0.00     0.233 C
HETATM    4  N1  UNL     1      -8.470  -1.034  22.694  1.00  0.00    -0.062 NA
HETATM    5  O1  UNL     1      -8.310  -2.183  20.649  1.00  0.00    -0.277 OA
ENDBRANCH   2   3
ENDBRANCH   1   2
BRANCH   1   6
HETATM    6  N2  UNL     1      -6.151   0.146  20.907  1.00  0.00    -0.301 N
ATOM      7  H2  UNL     1      -6.884   0.304  20.217  1.00  0.00     0.173 HD
BRANCH   6   8
HETATM    8  S1  UNL     1      -5.753   1.391  21.926  1.00  0.00     0.259 S
HETATM    9  O2  UNL     1      -6.971   1.867  22.665  1.00  0.00    -0.201 OA
HETATM   10  O3  UNL     1      -4.700   1.107  22.959  1.00  0.00    -0.201 OA
BRANCH   8  11
HETATM   11  C4  UNL     1      -5.110   2.796  21.046  1.00  0.00     0.079 A
HETATM   12  C5  UNL     1      -5.774   3.315  19.945  1.00  0.00     0.025 A
HETATM   13  C6  UNL     1      -5.301   4.415  19.241  1.00  0.00     0.002 A
HETATM   14  C7  UNL     1      -4.114   5.037  19.640  1.00  0.00     0.000 A
HETATM   15  C8  UNL     1      -3.471   4.514  20.726  1.00  0.00     0.002 A
HETATM   16  C9  UNL     1      -3.941   3.420  21.426  1.00  0.00     0.025 A
ENDBRANCH   8  11
ENDBRANCH   6   8
ENDBRANCH   1   6
BRANCH   1  17
HETATM   17  C10 UNL     1      -5.158  -1.707  19.639  1.00  0.00     0.242 C
HETATM   18  O4  UNL     1      -5.133  -1.000  18.620  1.00  0.00    -0.271 OA
HETATM   19  N3  UNL     1      -4.831  -3.069  19.578  1.00  0.00    -0.343 N
ATOM     20  H3  UNL     1      -4.866  -3.648  20.417  1.00  0.00     0.164 HD
BRANCH  19  21
HETATM   21  C11 UNL     1      -4.441  -3.641  18.302  1.00  0.00     0.249 C
BRANCH  21  22
HETATM   22  N4  UNL     1      -2.999  -3.907  18.293  1.00  0.00    -0.347 N
HETATM   23  C12 UNL     1      -2.610  -5.238  17.972  1.00  0.00     0.209 C
HETATM   24  N5  UNL     1      -2.143  -6.099  18.989  1.00  0.00    -0.062 NA
HETATM   25  N6  UNL     1      -2.687  -5.640  16.760  1.00  0.00    -0.228 N
ATOM     26  H6  UNL     1      -3.030  -4.975  16.066  1.00  0.00     0.197 HD
ATOM     27  H4  UNL     1      -2.315  -3.181  18.505  1.00  0.00     0.163 HD
BRANCH  25  28
HETATM   28  O5  UNL     1      -2.352  -6.871  16.326  1.00  0.00    -0.181 OA
BRANCH  28  29
HETATM   29  C13 UNL     1      -1.099  -7.224  15.825  1.00  0.00     0.394 C
HETATM   30  N7  UNL     1      -0.947  -8.096  14.714  1.00  0.00    -0.031 NA
HETATM   31  O6  UNL     1      -0.077  -6.765  16.363  1.00  0.00    -0.240 OA
ENDBRANCH  28  29
ENDBRANCH  25  28
ENDBRANCH  21  22
ENDBRANCH  19  21
ENDBRANCH   1  17
TORSDOF 10
ENDMDL