MODEL 5
REMARK VINA RESULT: -7.357925751      2.724      2.919
REMARK  10 active torsions:
REMARK  status: ('A' for Active; 'I' for Inactive)
REMARK    1  A    between atoms: C1_2  and  C2_4
REMARK    2  A    between atoms: C2_4  and  C3_5
REMARK    3  A    between atoms: C3_5  and  N2_6
REMARK    4  A    between atoms: N2_6  and  C4_8
REMARK    5  A    between atoms: C4_8  and  N3_10
REMARK    6  A    between atoms: N3_10  and  N4_12
REMARK    7  A    between atoms: C5_14  and  C6_15
REMARK    8  A    between atoms: C10_19  and  S2_20
REMARK    9  A    between atoms: S2_20  and  N5_23
REMARK   10  A    between atoms: N5_23  and  N6_25
ROOT
HETATM    1  C6  UNL     1      -5.162  -1.703  19.537  1.00  0.00    -0.018 A
HETATM    2  C7  UNL     1      -6.380  -2.305  19.353  1.00  0.00     0.013 A
HETATM    3  C8  UNL     1      -7.507  -1.785  19.996  1.00  0.00     0.002 A
HETATM    4  C9  UNL     1      -7.432  -0.675  20.820  1.00  0.00     0.025 A
HETATM    5  C10 UNL     1      -6.216  -0.063  21.012  1.00  0.00     0.082 A
HETATM    6  C12 UNL     1      -5.117  -0.582  20.376  1.00  0.00     0.038 A
ENDROOT
BRANCH   1   7
HETATM    7  C5  UNL     1      -3.921  -2.143  18.914  1.00  0.00     0.118 C
HETATM    8  N4  UNL     1      -3.550  -3.268  18.554  1.00  0.00    -0.309 N
ATOM      9  H4  UNL     1      -2.617  -3.276  18.141  1.00  0.00     0.186 HD
BRANCH   8  10
HETATM   10  N3  UNL     1      -4.134  -4.496  18.598  1.00  0.00    -0.277 N
ATOM     11  H3  UNL     1      -4.980  -4.605  19.158  1.00  0.00     0.189 HD
BRANCH  10  12
HETATM   12  C4  UNL     1      -3.636  -5.636  17.909  1.00  0.00     0.186 C
HETATM   13  S1  UNL     1      -2.009  -5.770  17.654  1.00  0.00    -0.040 SA
BRANCH  12  14
HETATM   14  N2  UNL     1      -4.443  -6.677  17.422  1.00  0.00    -0.366 N
ATOM     15  H2  UNL     1      -5.050  -6.513  16.618  1.00  0.00     0.161 HD
BRANCH  14  16
HETATM   16  C3  UNL     1      -4.420  -7.975  18.049  1.00  0.00     0.131 C
BRANCH  16  17
HETATM   17  C2  UNL     1      -4.440  -9.052  16.981  1.00  0.00     0.119 C
BRANCH  17  18
HETATM   18  C1  UNL     1      -5.844  -9.141  16.453  1.00  0.00     0.232 C
HETATM   19  N1  UNL     1      -5.993  -9.685  15.146  1.00  0.00    -0.062 NA
HETATM   20  O1  UNL     1      -6.821  -8.751  17.148  1.00  0.00    -0.277 OA
ENDBRANCH  17  18
ENDBRANCH  16  17
ENDBRANCH  14  16
ENDBRANCH  12  14
ENDBRANCH  10  12
ENDBRANCH   8  10
ENDBRANCH   1   7
BRANCH   5  21
HETATM   21  S2  UNL     1      -6.098   1.359  22.053  1.00  0.00     0.276 S
HETATM   22  O2  UNL     1      -7.371   1.470  22.876  1.00  0.00    -0.199 OA
HETATM   23  O3  UNL     1      -4.979   1.192  23.035  1.00  0.00    -0.199 OA
BRANCH  21  24
HETATM   24  N5  UNL     1      -5.905   2.721  21.049  1.00  0.00    -0.221 N
ATOM     25  H5  UNL     1      -6.579   2.912  20.309  1.00  0.00     0.200 HD
BRANCH  24  26
HETATM   26  N6  UNL     1      -4.819   3.573  21.247  1.00  0.00    -0.266 N
HETATM   27  C11 UNL     1      -4.432   4.353  20.295  1.00  0.00     0.216 C
HETATM   28  N7  UNL     1      -5.110   4.342  19.052  1.00  0.00    -0.065 NA
HETATM   29  N8  UNL     1      -3.331   5.216  20.497  1.00  0.00    -0.065 NA
ATOM     30  H6  UNL     1      -4.330   3.579  22.142  1.00  0.00     0.190 HD
ENDBRANCH  24  26
ENDBRANCH  21  24
ENDBRANCH   5  21
TORSDOF 10
ENDMDL