MODEL 2
REMARK VINA RESULT: -5.969430393      2.902      4.001
REMARK  8 active torsions:
REMARK  status: ('A' for Active; 'I' for Inactive)
REMARK       I    between atoms: C2_2  and  N1_4
REMARK    1  A    between atoms: N1_4  and  N2_6
REMARK    2  A    between atoms: C3_8  and  C5_10
REMARK    3  A    between atoms: C5_10  and  C6_11
REMARK    4  A    between atoms: C6_11  and  N3_12
REMARK    5  A    between atoms: C6_11  and  C14_27
REMARK    6  A    between atoms: N3_12  and  C7_14
REMARK       I    between atoms: C14_27  and  N6_29
REMARK    7  A    between atoms: N6_29  and  C15_31
REMARK    8  A    between atoms: C15_31  and  C16_32
ROOT
HETATM    1  C6  UNL     1      -3.225  -7.670  18.271  1.00  0.00     0.177 C
ENDROOT
BRANCH   1   2
HETATM    2  C5  UNL     1      -4.146  -6.825  17.423  1.00  0.00     0.088 C
BRANCH   2   3
HETATM    3  C3  UNL     1      -3.947  -5.388  17.472  1.00  0.00     0.002 C
HETATM    4  N2  UNL     1      -4.066  -4.818  18.634  1.00  0.00    -0.307 N
ATOM      5  H2  UNL     1      -4.300  -5.390  19.445  1.00  0.00     0.186 HD
HETATM    6  C4  UNL     1      -3.612  -4.556  16.307  1.00  0.00     0.065 C
BRANCH   4   7
HETATM    7  N1  UNL     1      -3.884  -3.453  18.803  1.00  0.00    -0.271 N
HETATM    8  C2  UNL     1      -4.894  -2.593  19.271  1.00  0.00     0.232 C
HETATM    9  C1  UNL     1      -4.632  -1.157  19.427  1.00  0.00     0.119 C
HETATM   10  O1  UNL     1      -6.025  -3.065  19.554  1.00  0.00    -0.272 OA
ATOM     11  H1  UNL     1      -2.973  -3.054  18.576  1.00  0.00     0.190 HD
ENDBRANCH   4   7
ENDBRANCH   2   3
ENDBRANCH   1   2
BRANCH   1  12
HETATM   12  N3  UNL     1      -2.167  -8.185  17.501  1.00  0.00    -0.370 N
ATOM     13  H3  UNL     1      -2.296  -9.059  16.992  1.00  0.00     0.157 HD
BRANCH  12  14
HETATM   14  C7  UNL     1      -0.938  -7.513  17.421  1.00  0.00     0.271 C
HETATM   15  C8  UNL     1      -0.629  -6.800  16.132  1.00  0.00     0.081 C
HETATM   16  N4  UNL     1       0.113  -8.561  17.527  1.00  0.00    -0.038 N
HETATM   17  C9  UNL     1      -0.115  -9.241  18.783  1.00  0.00     0.266 C
ATOM     18  H42 UNL     1       0.139  -9.191  16.725  1.00  0.00     0.280 HD
ATOM     19  H41 UNL     1       1.060  -8.195  17.431  1.00  0.00     0.280 HD
HETATM   20  C10 UNL     1       0.513  -8.410  19.868  1.00  0.00     0.049 C
HETATM   21  C11 UNL     1       1.995  -8.774  19.946  1.00  0.00     0.039 C
HETATM   22  C12 UNL     1      -0.107  -8.666  21.217  1.00  0.00     0.039 C
HETATM   23  N5  UNL     1       0.303  -7.027  19.539  1.00  0.00    -0.347 N
HETATM   24  C13 UNL     1      -0.620  -6.581  18.531  1.00  0.00     0.274 C
ATOM     25  H5  UNL     1       0.838  -6.323  20.049  1.00  0.00     0.163 HD
HETATM   26  O2  UNL     1      -1.092  -5.427  18.657  1.00  0.00    -0.269 OA
ENDBRANCH  12  14
ENDBRANCH   1  12
BRANCH   1  27
HETATM   27  C14 UNL     1      -4.119  -8.759  18.812  1.00  0.00     0.240 C
HETATM   28  O3  UNL     1      -3.689  -9.525  19.712  1.00  0.00    -0.271 OA
HETATM   29  N6  UNL     1      -5.426  -8.945  18.334  1.00  0.00    -0.351 N
ATOM     30  H6  UNL     1      -5.780  -8.326  17.605  1.00  0.00     0.163 HD
BRANCH  29  31
HETATM   31  C15 UNL     1      -6.284  -9.989  18.844  1.00  0.00     0.222 C
BRANCH  31  32
HETATM   32  C16 UNL     1      -7.160  -9.510  19.938  1.00  0.00     0.248 C
HETATM   33  N7  UNL     1      -7.091 -10.123  21.209  1.00  0.00    -0.061 NA
HETATM   34  O4  UNL     1      -7.950  -8.579  19.740  1.00  0.00    -0.275 OA
ENDBRANCH  31  32
ENDBRANCH  29  31
ENDBRANCH   1  27
TORSDOF 8
ENDMDL