MODEL 2
REMARK VINA RESULT: -8.037840232      1.156      1.318
REMARK  9 active torsions:
REMARK  status: ('A' for Active; 'I' for Inactive)
REMARK    1  A    between atoms: C3_3  and  C4_5
REMARK    2  A    between atoms: C4_5  and  C5_6
REMARK    3  A    between atoms: C4_5  and  C13_21
REMARK       I    between atoms: C5_6  and  N1_8
REMARK    4  A    between atoms: N1_8  and  C6_10
REMARK    5  A    between atoms: C10_14  and  C11_15
REMARK    6  A    between atoms: C13_21  and  N4_22
REMARK    7  A    between atoms: C13_21  and  C14_30
REMARK    8  A    between atoms: N4_22  and  S1_24
REMARK    9  A    between atoms: S1_24  and  N5_25
ROOT
HETATM    1  C1  UNL     1      -8.257  -2.202  21.906  1.00  0.00     0.021 C
HETATM    2  C2  UNL     1      -7.799  -1.141  21.561  1.00  0.00    -0.039 C
HETATM    3  C3  UNL     1      -7.253   0.133  21.121  1.00  0.00     0.217 C
HETATM    4  O1  UNL     1      -8.059   1.061  20.967  1.00  0.00    -0.282 OA
ENDROOT
BRANCH   3   5
HETATM    5  C4  UNL     1      -5.812   0.290  20.878  1.00  0.00     0.193 C
BRANCH   5   6
HETATM    6  C5  UNL     1      -5.313  -0.507  19.722  1.00  0.00     0.237 C
HETATM    7  O2  UNL     1      -5.215   0.061  18.609  1.00  0.00    -0.272 OA
HETATM    8  N1  UNL     1      -4.959  -1.849  19.845  1.00  0.00    -0.326 N
ATOM      9  H1  UNL     1      -5.067  -2.240  20.781  1.00  0.00     0.169 HD
BRANCH   8  10
HETATM   10  C6  UNL     1      -4.479  -2.741  18.883  1.00  0.00     0.035 A
HETATM   11  C7  UNL     1      -4.884  -2.616  17.536  1.00  0.00     0.029 A
HETATM   12  C8  UNL     1      -4.450  -3.475  16.556  1.00  0.00     0.003 A
HETATM   13  C9  UNL     1      -3.602  -4.493  16.857  1.00  0.00     0.015 A
HETATM   14  C10 UNL     1      -3.176  -4.664  18.146  1.00  0.00     0.007 A
HETATM   15  C12 UNL     1      -3.629  -3.780  19.125  1.00  0.00     0.044 A
BRANCH  14  16
HETATM   16  C11 UNL     1      -2.262  -5.753  18.496  1.00  0.00     0.120 C
HETATM   17  N2  UNL     1      -1.037  -5.478  18.719  1.00  0.00    -0.387 N
ATOM     18  H22 UNL     1      -0.697  -4.519  18.653  1.00  0.00     0.157 HD
ATOM     19  H21 UNL     1      -0.400  -6.237  18.963  1.00  0.00     0.157 HD
HETATM   20  N3  UNL     1      -2.730  -7.076  18.586  1.00  0.00    -0.082 NA
ENDBRANCH  14  16
ENDBRANCH   8  10
ENDBRANCH   5   6
BRANCH   5  21
HETATM   21  C13 UNL     1      -5.322   1.702  20.929  1.00  0.00     0.204 C
BRANCH  21  22
HETATM   22  N4  UNL     1      -6.167   2.658  20.320  1.00  0.00    -0.288 N
ATOM     23  H4  UNL     1      -7.168   2.494  20.213  1.00  0.00     0.174 HD
BRANCH  22  24
HETATM   24  S1  UNL     1      -5.439   4.090  19.777  1.00  0.00     0.313 S
HETATM   25  O3  UNL     1      -4.624   3.745  18.538  1.00  0.00    -0.183 OA
HETATM   26  O4  UNL     1      -6.421   5.135  19.342  1.00  0.00    -0.183 OA
BRANCH  24  27
HETATM   27  N5  UNL     1      -4.378   4.829  20.915  1.00  0.00    -0.312 N
ATOM     28  H52 UNL     1      -3.525   4.369  21.233  1.00  0.00     0.170 HD
ATOM     29  H51 UNL     1      -4.676   5.750  21.235  1.00  0.00     0.170 HD
ENDBRANCH  24  27
ENDBRANCH  22  24
ENDBRANCH  21  22
BRANCH  21  30
HETATM   30  C14 UNL     1      -5.219   2.011  22.406  1.00  0.00     0.255 C
HETATM   31  N6  UNL     1      -4.344   1.307  23.262  1.00  0.00    -0.060 NA
HETATM   32  O5  UNL     1      -5.938   2.919  22.858  1.00  0.00    -0.275 OA
ENDBRANCH  21  30
ENDBRANCH   5  21
ENDBRANCH   3   5
TORSDOF 9
ENDMDL