MODEL 2
REMARK VINA RESULT: -4.972306942      2.246      5.700
REMARK  8 active torsions:
REMARK  status: ('A' for Active; 'I' for Inactive)
REMARK    1  A    between atoms: C2_2  and  C3_6
REMARK    2  A    between atoms: C3_6  and  N2_7
REMARK    3  A    between atoms: N2_7  and  C4_9
REMARK    4  A    between atoms: C5_10  and  C6_11
REMARK    5  A    between atoms: C7_15  and  C8_16
REMARK    6  A    between atoms: C9_19  and  N5_20
REMARK       I    between atoms: N5_20  and  C10_22
REMARK    7  A    between atoms: C12_25  and  N6_26
REMARK       I    between atoms: N6_26  and  C13_28
REMARK    8  A    between atoms: C13_28  and  C14_30
ROOT
HETATM    1  C4  UNL     1      -3.034  -8.515  18.047  1.00  0.00     0.139 C
HETATM    2  C5  UNL     1      -4.174  -7.722  17.479  1.00  0.00     0.235 C
HETATM    3  O2  UNL     1      -3.816  -6.944  16.422  1.00  0.00    -0.358 OA
HETATM    4  C7  UNL     1      -2.648  -6.295  16.400  1.00  0.00     0.236 C
HETATM    5  C9  UNL     1      -1.460  -7.101  16.716  1.00  0.00     0.147 C
HETATM    6  C12 UNL     1      -1.843  -8.491  17.115  1.00  0.00     0.135 C
ENDROOT
BRANCH   1   7
HETATM    7  N2  UNL     1      -2.613  -8.014  19.313  1.00  0.00    -0.407 N
ATOM      8  H2  UNL     1      -3.105  -7.244  19.767  1.00  0.00     0.154 HD
BRANCH   7   9
HETATM    9  C3  UNL     1      -1.486  -8.624  19.917  1.00  0.00     0.166 C
BRANCH   9  10
HETATM   10  C2  UNL     1      -0.629  -7.542  20.470  1.00  0.00    -0.007 C
HETATM   11  C1  UNL     1      -0.626  -7.187  21.908  1.00  0.00     0.064 C
HETATM   12  N1  UNL     1       0.133  -6.891  19.692  1.00  0.00    -0.405 N
ATOM     13  H12 UNL     1       0.721  -6.149  20.071  1.00  0.00     0.155 HD
ATOM     14  H11 UNL     1       0.131  -7.135  18.702  1.00  0.00     0.155 HD
ENDBRANCH   9  10
ENDBRANCH   7   9
ENDBRANCH   1   7
BRANCH   2  15
HETATM   15  C6  UNL     1      -5.259  -8.625  17.042  1.00  0.00     0.262 C
HETATM   16  N3  UNL     1      -6.370  -8.911  17.868  1.00  0.00    -0.060 NA
HETATM   17  O1  UNL     1      -5.191  -9.150  15.912  1.00  0.00    -0.274 OA
ENDBRANCH   2  15
BRANCH   6  18
HETATM   18  N6  UNL     1      -2.075  -9.262  15.912  1.00  0.00    -0.352 N
HETATM   19  C13 UNL     1      -1.139 -10.237  15.464  1.00  0.00     0.221 C
HETATM   20  O5  UNL     1      -0.084 -10.444  16.129  1.00  0.00    -0.273 OA
ATOM     21  H6  UNL     1      -2.926  -9.102  15.373  1.00  0.00     0.163 HD
BRANCH  19  22
HETATM   22  C14 UNL     1      -1.361 -11.032  14.230  1.00  0.00     0.070 C
HETATM   23  C15 UNL     1      -2.822 -11.442  14.212  1.00  0.00     0.019 C
HETATM   24  C16 UNL     1      -1.051 -10.126  13.057  1.00  0.00     0.019 C
ENDBRANCH  19  22
ENDBRANCH   6  18
BRANCH   5  25
HETATM   25  N5  UNL     1      -0.477  -7.136  15.640  1.00  0.00    -0.352 N
HETATM   26  C10 UNL     1       0.922  -7.134  15.832  1.00  0.00     0.214 C
HETATM   27  C11 UNL     1       1.915  -7.172  14.756  1.00  0.00     0.117 C
HETATM   28  O4  UNL     1       1.387  -7.096  17.026  1.00  0.00    -0.274 OA
ATOM     29  H5  UNL     1      -0.824  -7.164  14.682  1.00  0.00     0.163 HD
ENDBRANCH   5  25
BRANCH   4  30
HETATM   30  C8  UNL     1      -2.751  -5.047  17.217  1.00  0.00     0.262 C
HETATM   31  N4  UNL     1      -1.939  -4.884  18.339  1.00  0.00    -0.060 NA
HETATM   32  O3  UNL     1      -3.564  -4.173  16.881  1.00  0.00    -0.274 OA
ENDBRANCH   4  30
TORSDOF 8
ENDMDL