MODEL 5
REMARK VINA RESULT: -5.705981372      0.886      2.490
REMARK  9 active torsions:
REMARK  status: ('A' for Active; 'I' for Inactive)
REMARK       I    between atoms: C2_2  and  N1_4
REMARK    1  A    between atoms: N1_4  and  C3_6
REMARK    2  A    between atoms: C3_6  and  C4_7
REMARK    3  A    between atoms: C3_6  and  C5_10
REMARK       I    between atoms: C5_10  and  N2_12
REMARK    4  A    between atoms: N2_12  and  C6_14
REMARK    5  A    between atoms: C6_14  and  C7_15
REMARK    6  A    between atoms: C6_14  and  C11_24
REMARK       I    between atoms: C7_15  and  N3_17
REMARK    7  A    between atoms: N3_17  and  C8_19
REMARK    8  A    between atoms: C8_19  and  C10_21
REMARK       I    between atoms: C11_24  and  N4_26
REMARK    9  A    between atoms: N4_26  and  C12_28
ROOT
HETATM    1  C6  UNL     1      -3.379  -6.279  17.781  1.00  0.00     0.269 C
ENDROOT
BRANCH   1   2
HETATM    2  N2  UNL     1      -4.449  -7.061  18.242  1.00  0.00    -0.338 N
HETATM    3  C5  UNL     1      -5.006  -8.140  17.408  1.00  0.00     0.252 C
HETATM    4  O4  UNL     1      -4.558  -8.373  16.272  1.00  0.00    -0.271 OA
ATOM      5  H2  UNL     1      -4.845  -6.880  19.164  1.00  0.00     0.163 HD
BRANCH   3   6
HETATM    6  C3  UNL     1      -6.095  -8.943  17.971  1.00  0.00     0.278 C
BRANCH   6   7
HETATM    7  N1  UNL     1      -5.589 -10.083  18.644  1.00  0.00    -0.339 N
HETATM    8  C2  UNL     1      -4.710 -10.349  19.692  1.00  0.00     0.214 C
HETATM    9  C1  UNL     1      -4.502 -11.789  20.136  1.00  0.00     0.117 C
HETATM   10  O1  UNL     1      -4.080  -9.479  20.304  1.00  0.00    -0.274 OA
ATOM     11  H1  UNL     1      -5.975 -10.944  18.256  1.00  0.00     0.163 HD
ENDBRANCH   6   7
BRANCH   6  12
HETATM   12  C4  UNL     1      -7.119  -9.396  16.996  1.00  0.00     0.206 C
HETATM   13  O2  UNL     1      -8.128  -8.656  16.803  1.00  0.00    -0.646 OA
HETATM   14  O3  UNL     1      -7.020 -10.608  16.304  1.00  0.00    -0.646 OA
ENDBRANCH   6  12
ENDBRANCH   3   6
ENDBRANCH   1   2
BRANCH   1  15
HETATM   15  C7  UNL     1      -2.153  -6.262  18.600  1.00  0.00     0.254 C
HETATM   16  O5  UNL     1      -1.353  -5.308  18.680  1.00  0.00    -0.270 OA
HETATM   17  N3  UNL     1      -1.957  -7.495  19.356  1.00  0.00    -0.323 N
ATOM     18  H3  UNL     1      -2.677  -8.208  19.243  1.00  0.00     0.169 HD
BRANCH  17  19
HETATM   19  C8  UNL     1      -0.901  -7.819  20.217  1.00  0.00     0.085 C
HETATM   20  C9  UNL     1      -0.823  -7.186  21.549  1.00  0.00     0.076 C
BRANCH  19  21
HETATM   21  C10 UNL     1      -0.608  -9.264  20.229  1.00  0.00     0.222 C
HETATM   22  O6  UNL     1      -0.028  -9.801  21.175  1.00  0.00    -0.643 OA
HETATM   23  O7  UNL     1      -0.991 -10.021  19.100  1.00  0.00    -0.643 OA
ENDBRANCH  19  21
ENDBRANCH  17  19
ENDBRANCH   1  15
BRANCH   1  24
HETATM   24  C11 UNL     1      -3.860  -4.867  17.567  1.00  0.00     0.250 C
HETATM   25  O8  UNL     1      -3.680  -4.319  16.420  1.00  0.00    -0.271 OA
HETATM   26  N4  UNL     1      -4.515  -4.123  18.563  1.00  0.00    -0.351 N
ATOM     27  H4  UNL     1      -4.689  -4.620  19.436  1.00  0.00     0.163 HD
BRANCH  26  28
HETATM   28  C12 UNL     1      -4.969  -2.780  18.531  1.00  0.00     0.022 C
HETATM   29  C13 UNL     1      -6.031  -2.593  19.623  1.00  0.00     0.037 C
HETATM   30  C14 UNL     1      -3.780  -1.841  18.939  1.00  0.00     0.037 C
HETATM   31  C15 UNL     1      -5.468  -2.346  17.216  1.00  0.00     0.037 C
ENDBRANCH  26  28
ENDBRANCH   1  24
TORSDOF 9
ENDMDL