MODEL 3
REMARK VINA RESULT: -7.790965580      1.568      1.971
REMARK  8 active torsions:
REMARK  status: ('A' for Active; 'I' for Inactive)
REMARK       I    between atoms: C2_2  and  N1_4
REMARK    1  A    between atoms: N1_4  and  C3_6
REMARK    2  A    between atoms: C3_6  and  C4_7
REMARK    3  A    between atoms: C3_6  and  C14_32
REMARK       I    between atoms: C4_7  and  N2_9
REMARK    4  A    between atoms: N2_9  and  C5_11
REMARK    5  A    between atoms: C5_11  and  C6_12
REMARK       I    between atoms: C6_12  and  N3_14
REMARK    6  A    between atoms: N3_14  and  C7_16
REMARK    7  A    between atoms: C7_16  and  C9_18
REMARK       I    between atoms: C9_18  and  N4_20
REMARK    8  A    between atoms: N4_20  and  C10_22
ROOT
HETATM    1  C6  UNL     1      -5.071  -2.268  19.377  1.00  0.00     0.236 C
HETATM    2  O3  UNL     1      -4.210  -1.524  19.910  1.00  0.00    -0.272 OA
HETATM    3  N3  UNL     1      -6.343  -2.403  19.974  1.00  0.00    -0.347 N
ATOM      4  H3  UNL     1      -7.020  -3.013  19.516  1.00  0.00     0.163 HD
ENDROOT
BRANCH   3   5
HETATM    5  C7  UNL     1      -6.751  -1.742  21.180  1.00  0.00     0.172 C
HETATM    6  C8  UNL     1      -8.156  -2.146  21.606  1.00  0.00     0.042 C
BRANCH   5   7
HETATM    7  C9  UNL     1      -6.719  -0.279  21.097  1.00  0.00     0.242 C
HETATM    8  O4  UNL     1      -7.703   0.350  20.662  1.00  0.00    -0.271 OA
HETATM    9  N4  UNL     1      -5.578   0.433  21.509  1.00  0.00    -0.332 N
ATOM     10  H4  UNL     1      -4.770  -0.078  21.865  1.00  0.00     0.165 HD
BRANCH   9  11
HETATM   11  C10 UNL     1      -5.528   1.896  21.435  1.00  0.00     0.234 C
HETATM   12  C11 UNL     1      -4.125   2.341  21.700  1.00  0.00     0.074 C
HETATM   13  C12 UNL     1      -4.078   3.847  21.613  1.00  0.00     0.127 C
HETATM   14  N5  UNL     1      -4.385   4.217  20.248  1.00  0.00    -0.356 N
HETATM   15  C13 UNL     1      -5.462   3.546  19.613  1.00  0.00     0.214 C
ATOM     16  H5  UNL     1      -3.847   4.933  19.760  1.00  0.00     0.163 HD
HETATM   17  N6  UNL     1      -5.955   4.059  18.540  1.00  0.00    -0.365 N
HETATM   18  O5  UNL     1      -5.966   2.354  20.155  1.00  0.00    -0.296 OA
ATOM     19  H62 UNL     1      -5.589   4.926  18.147  1.00  0.00     0.159 HD
ATOM     20  H61 UNL     1      -6.729   3.577  18.085  1.00  0.00     0.159 HD
ENDBRANCH   9  11
ENDBRANCH   5   7
ENDBRANCH   3   5
BRANCH   1  21
HETATM   21  C5  UNL     1      -4.746  -2.996  18.128  1.00  0.00     0.225 C
BRANCH  21  22
HETATM   22  N2  UNL     1      -3.992  -4.188  18.299  1.00  0.00    -0.351 N
HETATM   23  C4  UNL     1      -3.374  -4.854  17.221  1.00  0.00     0.241 C
HETATM   24  O2  UNL     1      -3.490  -4.386  16.064  1.00  0.00    -0.271 OA
ATOM     25  H2  UNL     1      -3.895  -4.577  19.236  1.00  0.00     0.163 HD
BRANCH  23  26
HETATM   26  C3  UNL     1      -2.577  -6.102  17.395  1.00  0.00     0.179 C
BRANCH  26  27
HETATM   27  N1  UNL     1      -1.540  -6.218  16.413  1.00  0.00    -0.348 N
HETATM   28  C2  UNL     1      -1.297  -7.448  15.734  1.00  0.00     0.214 C
HETATM   29  C1  UNL     1      -0.235  -7.600  14.716  1.00  0.00     0.117 C
HETATM   30  O1  UNL     1      -2.004  -8.481  15.986  1.00  0.00    -0.274 OA
ATOM     31  H1  UNL     1      -0.964  -5.405  16.195  1.00  0.00     0.163 HD
ENDBRANCH  26  27
BRANCH  26  32
HETATM   32  C14 UNL     1      -2.061  -6.222  18.813  1.00  0.00     0.009 C
HETATM   33  C15 UNL     1      -0.659  -5.693  18.951  1.00  0.00     0.012 C
HETATM   34  C16 UNL     1      -2.214  -7.630  19.343  1.00  0.00     0.012 C
ENDBRANCH  26  32
ENDBRANCH  23  26
ENDBRANCH  21  22
ENDBRANCH   1  21
TORSDOF 8
ENDMDL