MODEL 3
REMARK VINA RESULT: -7.414697176      1.826      2.060
REMARK  9 active torsions:
REMARK  status: ('A' for Active; 'I' for Inactive)
REMARK    1  A    between atoms: C2_2  and  C4_4
REMARK    2  A    between atoms: C4_4  and  N1_5
REMARK    3  A    between atoms: C4_4  and  C15_28
REMARK       I    between atoms: N1_5  and  C5_7
REMARK    4  A    between atoms: C5_7  and  C6_9
REMARK    5  A    between atoms: C6_9  and  N2_10
REMARK       I    between atoms: N2_10  and  C7_12
REMARK    6  A    between atoms: C7_12  and  C8_14
REMARK    7  A    between atoms: C8_14  and  C9_15
REMARK    8  A    between atoms: C9_15  and  C10_16
REMARK       I    between atoms: C10_16  and  N3_18
REMARK       I    between atoms: N3_18  and  C11_20
REMARK    9  A    between atoms: C15_28  and  C16_30
ROOT
HETATM    1  C6  UNL     1      -6.347  -1.502  19.604  1.00  0.00     0.113 A
HETATM    2  C12 UNL     1      -6.455  -2.529  20.713  1.00  0.00     0.041 A
HETATM    3  C13 UNL     1      -7.949  -2.401  20.680  1.00  0.00     0.006 A
HETATM    4  C14 UNL     1      -7.832  -1.303  19.650  1.00  0.00     0.041 A
ENDROOT
BRANCH   1   5
HETATM    5  C5  UNL     1      -5.544  -0.355  20.108  1.00  0.00     0.246 C
HETATM    6  N1  UNL     1      -6.040   0.925  20.308  1.00  0.00    -0.347 N
ATOM      7  H1  UNL     1      -7.017   1.140  20.111  1.00  0.00     0.163 HD
HETATM    8  O1  UNL     1      -4.319  -0.593  20.366  1.00  0.00    -0.271 OA
BRANCH   6   9
HETATM    9  C4  UNL     1      -5.128   1.973  20.813  1.00  0.00     0.167 C
BRANCH   9  10
HETATM   10  C2  UNL     1      -5.445   2.015  22.295  1.00  0.00     0.008 C
HETATM   11  C1  UNL     1      -4.282   1.557  23.107  1.00  0.00     0.012 C
HETATM   12  C3  UNL     1      -6.697   1.349  22.720  1.00  0.00     0.012 C
ENDBRANCH   9  10
BRANCH   9  13
HETATM   13  C15 UNL     1      -5.365   3.230  20.104  1.00  0.00     0.236 C
HETATM   14  O4  UNL     1      -6.447   3.324  19.418  1.00  0.00    -0.285 OA
BRANCH  13  15
HETATM   15  C16 UNL     1      -4.505   4.391  20.086  1.00  0.00     0.302 C
HETATM   16  N6  UNL     1      -3.443   4.547  21.061  1.00  0.00    -0.054 NA
HETATM   17  O5  UNL     1      -4.571   5.344  19.272  1.00  0.00    -0.268 OA
ENDBRANCH  13  15
ENDBRANCH   9  13
ENDBRANCH   6   9
ENDBRANCH   1   5
BRANCH   1  18
HETATM   18  N2  UNL     1      -5.888  -2.086  18.374  1.00  0.00    -0.343 N
HETATM   19  C7  UNL     1      -4.964  -3.161  18.277  1.00  0.00     0.219 C
HETATM   20  O2  UNL     1      -4.524  -3.636  19.371  1.00  0.00    -0.274 OA
ATOM     21  H2  UNL     1      -6.254  -1.699  17.504  1.00  0.00     0.163 HD
BRANCH  19  22
HETATM   22  C8  UNL     1      -4.543  -3.691  16.946  1.00  0.00     0.112 C
BRANCH  22  23
HETATM   23  C9  UNL     1      -3.301  -4.497  17.101  1.00  0.00     0.112 C
BRANCH  23  24
HETATM   24  C10 UNL     1      -3.507  -5.959  16.964  1.00  0.00     0.224 C
HETATM   25  O3  UNL     1      -2.857  -6.656  16.130  1.00  0.00    -0.273 OA
HETATM   26  N3  UNL     1      -4.460  -6.589  17.793  1.00  0.00    -0.301 N
HETATM   27  C11 UNL     1      -4.671  -7.979  17.681  1.00  0.00     0.188 C
ATOM     28  H3  UNL     1      -4.994  -6.042  18.470  1.00  0.00     0.171 HD
HETATM   29  N4  UNL     1      -5.538  -8.549  18.435  1.00  0.00    -0.373 N
HETATM   30  N5  UNL     1      -3.958  -8.782  16.764  1.00  0.00    -0.064 NA
ATOM     31  H42 UNL     1      -6.053  -7.969  19.097  1.00  0.00     0.158 HD
ATOM     32  H41 UNL     1      -5.690  -9.553  18.354  1.00  0.00     0.158 HD
ENDBRANCH  23  24
ENDBRANCH  22  23
ENDBRANCH  19  22
ENDBRANCH   1  18
TORSDOF 9
ENDMDL