MODEL 2
REMARK VINA RESULT: -7.142500488      1.287      1.860
REMARK  8 active torsions:
REMARK  status: ('A' for Active; 'I' for Inactive)
REMARK    1  A    between atoms: C1_2  and  C2_4
REMARK    2  A    between atoms: C4_6  and  C5_7
REMARK    3  A    between atoms: C5_7  and  C6_8
REMARK    4  A    between atoms: C6_8  and  C7_9
REMARK    5  A    between atoms: C7_9  and  C8_10
REMARK    6  A    between atoms: C8_10  and  O3_11
REMARK       I    between atoms: N1_14  and  C10_15
REMARK    7  A    between atoms: C10_15  and  C11_17
REMARK    8  A    between atoms: C14_20  and  N2_21
ROOT
HETATM    1  C2  UNL     1     -38.353  20.095 107.249  1.00  0.00     0.188 C
HETATM    2  C3  UNL     1     -39.658  20.891 107.259  1.00  0.00     0.042 C
HETATM    3  C4  UNL     1     -39.849  21.266 105.809  1.00  0.00     0.006 C
HETATM    4  C9  UNL     1     -38.794  20.522 105.039  1.00  0.00     0.131 C
HETATM    5  N1  UNL     1     -38.414  19.469 105.960  1.00  0.00    -0.337 N
HETATM    6  C10 UNL     1     -38.182  18.135 105.624  1.00  0.00     0.224 C
HETATM    7  O4  UNL     1     -38.301  17.837 104.380  1.00  0.00    -0.273 OA
ENDROOT
BRANCH   6   8
HETATM    8  C11 UNL     1     -37.820  17.020 106.527  1.00  0.00     0.078 C
HETATM    9  C12 UNL     1     -38.523  15.792 106.173  1.00  0.00     0.016 C
HETATM   10  C13 UNL     1     -37.655  14.543 106.058  1.00  0.00     0.026 C
HETATM   11  C14 UNL     1     -36.631  14.650 107.150  1.00  0.00     0.089 C
HETATM   12  C20 UNL     1     -35.657  15.687 106.699  1.00  0.00     0.026 C
HETATM   13  C21 UNL     1     -36.340  17.003 106.653  1.00  0.00     0.016 C
BRANCH  11  14
HETATM   14  N2  UNL     1     -36.053  13.423 107.600  1.00  0.00    -0.330 N
HETATM   15  C15 UNL     1     -34.701  13.099 107.108  1.00  0.00     0.128 C
HETATM   16  C16 UNL     1     -34.411  11.637 107.153  1.00  0.00     0.022 C
HETATM   17  C17 UNL     1     -35.546  10.794 106.613  1.00  0.00     0.021 C
HETATM   18  C18 UNL     1     -36.224  10.159 107.802  1.00  0.00     0.124 C
HETATM   19  N3  UNL     1     -36.728  11.164 108.701  1.00  0.00    -0.343 N
HETATM   20  C19 UNL     1     -36.781  12.580 108.485  1.00  0.00     0.318 C
ATOM     21  H3  UNL     1     -37.088  10.831 109.595  1.00  0.00     0.164 HD
HETATM   22  O5  UNL     1     -37.607  13.219 109.184  1.00  0.00    -0.247 OA
ENDBRANCH  11  14
ENDBRANCH   6   8
BRANCH   1  23
HETATM   23  C1  UNL     1     -37.191  21.002 107.434  1.00  0.00     0.196 C
HETATM   24  O1  UNL     1     -36.054  20.646 107.038  1.00  0.00    -0.646 OA
HETATM   25  O2  UNL     1     -37.288  22.246 108.031  1.00  0.00    -0.646 OA
ENDBRANCH   1  23
BRANCH   3  26
HETATM   26  C5  UNL     1     -39.742  22.781 105.629  1.00  0.00     0.006 C
BRANCH  26  27
HETATM   27  C6  UNL     1     -38.542  23.164 104.848  1.00  0.00     0.002 C
BRANCH  27  28
HETATM   28  C7  UNL     1     -38.078  24.544 105.154  1.00  0.00     0.026 C
BRANCH  28  29
HETATM   29  C8  UNL     1     -36.636  24.701 105.495  1.00  0.00     0.164 C
BRANCH  29  30
HETATM   30  O3  UNL     1     -35.960  23.520 105.608  1.00  0.00    -0.401 OA
ATOM     31  H3  UNL     1     -36.008  22.972 104.832  1.00  0.00     0.209 HD
ENDBRANCH  29  30
ENDBRANCH  28  29
ENDBRANCH  27  28
ENDBRANCH  26  27
ENDBRANCH   3  26
TORSDOF 8
ENDMDL