MODEL 2
REMARK VINA RESULT: -9.135338772      1.207      1.272
REMARK  9 active torsions:
REMARK  status: ('A' for Active; 'I' for Inactive)
REMARK    1  A    between atoms: C1_4  and  O1_5
REMARK    2  A    between atoms: C1_4  and  C2_7
REMARK    3  A    between atoms: N2_9  and  C4_10
REMARK    4  A    between atoms: C4_10  and  O2_11
REMARK    5  A    between atoms: C4_10  and  C5_13
REMARK    6  A    between atoms: N3_21  and  C13_22
REMARK    7  A    between atoms: C13_22  and  C14_23
REMARK    8  A    between atoms: C14_23  and  N4_24
REMARK       I    between atoms: N4_24  and  C15_26
REMARK    9  A    between atoms: C15_26  and  C16_28
ROOT
HETATM    1  C2  UNL     1     -38.407  19.327 106.090  1.00  0.00     0.171 C
HETATM    2  C3  UNL     1     -37.044  19.576 106.726  1.00  0.00     0.158 C
HETATM    3  N2  UNL     1     -36.995  20.902 107.225  1.00  0.00    -0.361 N
HETATM    4  C11 UNL     1     -38.015  21.244 108.230  1.00  0.00     0.144 C
HETATM    5  C12 UNL     1     -39.338  20.680 107.840  1.00  0.00     0.137 C
HETATM    6  N3  UNL     1     -39.406  20.236 106.490  1.00  0.00    -0.397 N
ENDROOT
BRANCH   6   7
HETATM    7  C13 UNL     1     -39.643  21.228 105.499  1.00  0.00     0.137 C
BRANCH   7   8
HETATM    8  C14 UNL     1     -39.113  20.867 104.129  1.00  0.00     0.142 C
BRANCH   8   9
HETATM    9  N4  UNL     1     -40.053  21.077 103.066  1.00  0.00    -0.359 N
HETATM   10  C15 UNL     1     -40.339  22.306 102.452  1.00  0.00     0.222 C
HETATM   11  O3  UNL     1     -39.768  23.375 102.802  1.00  0.00    -0.273 OA
ATOM     12  H4  UNL     1     -40.559  20.259 102.726  1.00  0.00     0.162 HD
BRANCH  10  13
HETATM   13  C16 UNL     1     -41.338  22.351 101.364  1.00  0.00     0.082 C
HETATM   14  C17 UNL     1     -41.782  23.764 101.041  1.00  0.00     0.019 C
HETATM   15  C18 UNL     1     -41.786  23.718  99.516  1.00  0.00    -0.013 C
HETATM   16  C19 UNL     1     -42.736  22.658  99.085  1.00  0.00     0.005 C
HETATM   17  C22 UNL     1     -40.433  23.013  99.306  1.00  0.00     0.010 C
HETATM   18  C20 UNL     1     -42.024  21.310  99.279  1.00  0.00     0.006 C
HETATM   19  C21 UNL     1     -40.824  21.744 100.084  1.00  0.00    -0.001 C
ENDBRANCH  10  13
ENDBRANCH   8   9
ENDBRANCH   7   8
ENDBRANCH   6   7
BRANCH   1  20
HETATM   20  C1  UNL     1     -38.804  17.900 106.231  1.00  0.00     0.133 C
HETATM   21  N1  UNL     1     -39.230  17.189 105.247  1.00  0.00    -0.382 N
ATOM     22  H12 UNL     1     -39.502  16.211 105.344  1.00  0.00     0.158 HD
ATOM     23  H11 UNL     1     -39.307  17.602 104.318  1.00  0.00     0.158 HD
BRANCH  20  24
HETATM   24  O1  UNL     1     -38.699  17.339 107.494  1.00  0.00    -0.348 OA
ATOM     25  H1  UNL     1     -38.988  17.828 108.255  1.00  0.00     0.219 HD
ENDBRANCH  20  24
ENDBRANCH   1  20
BRANCH   3  26
HETATM   26  C4  UNL     1     -36.063  21.866 106.862  1.00  0.00     0.117 C
BRANCH  26  27
HETATM   27  O2  UNL     1     -34.840  21.419 106.716  1.00  0.00    -0.349 OA
ATOM     28  H2  UNL     1     -34.464  21.563 105.856  1.00  0.00     0.219 HD
ENDBRANCH  26  27
BRANCH  26  29
HETATM   29  C5  UNL     1     -36.197  23.296 106.610  1.00  0.00     0.060 C
HETATM   30  C6  UNL     1     -36.305  24.057 107.903  1.00  0.00     0.013 C
HETATM   31  C7  UNL     1     -37.338  25.162 107.766  1.00  0.00     0.001 C
HETATM   32  C8  UNL     1     -36.949  25.991 106.553  1.00  0.00     0.000 C
HETATM   33  C9  UNL     1     -37.198  25.168 105.298  1.00  0.00     0.001 C
HETATM   34  C10 UNL     1     -37.308  23.685 105.671  1.00  0.00     0.013 C
ENDBRANCH  26  29
ENDBRANCH   3  26
TORSDOF 9
ENDMDL