MODEL 1
REMARK VINA RESULT: -9.028413846      0.000      0.000
REMARK  6 active torsions:
REMARK  status: ('A' for Active; 'I' for Inactive)
REMARK    1  A    between atoms: C6_6  and  C7_7
REMARK    2  A    between atoms: C11_13  and  N1_14
REMARK       I    between atoms: N1_14  and  C12_16
REMARK    3  A    between atoms: C12_16  and  C13_18
REMARK    4  A    between atoms: C13_18  and  N2_19
REMARK    5  A    between atoms: N2_19  and  S1_21
REMARK    6  A    between atoms: S1_21  and  C14_24
ROOT
HETATM    1  N1  UNL     1     -39.453  23.132 104.667  1.00  0.00    -0.354 N
ATOM      2  H1  UNL     1     -39.814  24.082 104.573  1.00  0.00     0.162 HD
HETATM    3  C12 UNL     1     -39.833  22.126 103.661  1.00  0.00     0.236 C
HETATM    4  O3  UNL     1     -39.373  21.007 103.803  1.00  0.00    -0.272 OA
ENDROOT
BRANCH   1   5
HETATM    5  C11 UNL     1     -38.612  22.829 105.750  1.00  0.00     0.092 C
HETATM    6  C4  UNL     1     -37.142  23.009 105.364  1.00  0.00     0.011 C
HETATM    7  C3  UNL     1     -36.693  24.437 105.441  1.00  0.00     0.015 C
HETATM    8  C5  UNL     1     -36.348  22.204 106.360  1.00  0.00     0.027 C
HETATM    9  C2  UNL     1     -36.906  24.962 106.848  1.00  0.00    -0.042 C
HETATM   10  C1  UNL     1     -36.362  26.380 106.948  1.00  0.00     0.015 C
HETATM   11  C10 UNL     1     -38.387  24.933 107.106  1.00  0.00     0.015 C
HETATM   12  C19 UNL     1     -36.120  24.128 107.826  1.00  0.00     0.029 C
HETATM   13  C9  UNL     1     -38.883  23.518 107.045  1.00  0.00     0.011 C
HETATM   14  C8  UNL     1     -38.093  22.736 108.096  1.00  0.00     0.027 C
HETATM   15  C6  UNL     1     -36.633  22.701 107.750  1.00  0.00     0.050 C
BRANCH  15  16
HETATM   16  C7  UNL     1     -35.941  21.805 108.696  1.00  0.00     0.181 C
HETATM   17  O1  UNL     1     -36.209  21.768 109.930  1.00  0.00    -0.647 OA
HETATM   18  O2  UNL     1     -34.940  20.962 108.240  1.00  0.00    -0.647 OA
ENDBRANCH  15  16
ENDBRANCH   1   5
BRANCH   3  19
HETATM   19  C13 UNL     1     -40.701  22.584 102.555  1.00  0.00     0.234 C
BRANCH  19  20
HETATM   20  N2  UNL     1     -41.237  21.319 102.081  1.00  0.00    -0.310 N
ATOM     21  H2  UNL     1     -41.616  20.506 102.565  1.00  0.00     0.172 HD
BRANCH  20  22
HETATM   22  S1  UNL     1     -40.991  21.697 100.330  1.00  0.00     0.231 S
HETATM   23  O4  UNL     1     -40.514  20.668  99.471  1.00  0.00    -0.206 OA
HETATM   24  O5  UNL     1     -39.802  22.723 100.501  1.00  0.00    -0.206 OA
BRANCH  22  25
HETATM   25  C14 UNL     1     -42.363  22.589  99.740  1.00  0.00     0.129 C
HETATM   26  C15 UNL     1     -42.571  22.232  98.270  1.00  0.00     0.022 C
HETATM   27  C16 UNL     1     -43.299  23.455  97.776  1.00  0.00     0.001 C
HETATM   28  C17 UNL     1     -42.391  24.562  98.291  1.00  0.00     0.001 C
HETATM   29  C18 UNL     1     -42.127  24.120  99.701  1.00  0.00     0.022 C
ENDBRANCH  22  25
ENDBRANCH  20  22
ENDBRANCH  19  20
ENDBRANCH   3  19
TORSDOF 6
ENDMDL