MODEL 4
REMARK VINA RESULT: -9.033325291      5.692      9.165
REMARK  7 active torsions:
REMARK  status: ('A' for Active; 'I' for Inactive)
REMARK    1  A    between atoms: C6_6  and  N1_7
REMARK       I    between atoms: N1_7  and  C7_9
REMARK    2  A    between atoms: C7_9  and  C8_11
REMARK    3  A    between atoms: C8_11  and  C9_12
REMARK    4  A    between atoms: C11_14  and  C12_15
REMARK       I    between atoms: C12_15  and  N2_17
REMARK    5  A    between atoms: N2_17  and  C13_19
REMARK    6  A    between atoms: C13_19  and  C14_20
REMARK    7  A    between atoms: C13_19  and  C15_23
ROOT
HETATM    1  C9  UNL     1     -41.641  22.000  99.797  1.00  0.00     0.092 C
HETATM    2  C10 UNL     1     -41.368  21.309 101.105  1.00  0.00     0.077 C
HETATM    3  C11 UNL     1     -40.727  22.416 101.876  1.00  0.00     0.081 C
HETATM    4  N3  UNL     1     -41.095  23.540 101.402  1.00  0.00    -0.326 N
ATOM      5  H3  UNL     1     -40.788  24.443 101.763  1.00  0.00     0.168 HD
HETATM    6  C21 UNL     1     -41.987  23.375 100.307  1.00  0.00     0.227 C
HETATM    7  O5  UNL     1     -42.856  24.167  99.855  1.00  0.00    -0.273 OA
ENDROOT
BRANCH   3   8
HETATM    8  C12 UNL     1     -39.817  22.212 103.001  1.00  0.00     0.264 C
HETATM    9  O2  UNL     1     -39.132  23.169 103.467  1.00  0.00    -0.266 OA
HETATM   10  N2  UNL     1     -39.653  20.947 103.623  1.00  0.00    -0.341 N
ATOM     11  H2  UNL     1     -40.191  20.155 103.270  1.00  0.00     0.163 HD
BRANCH  10  12
HETATM   12  C13 UNL     1     -38.753  20.733 104.741  1.00  0.00     0.190 C
BRANCH  12  13
HETATM   13  C14 UNL     1     -38.541  19.297 104.965  1.00  0.00     0.197 C
HETATM   14  O3  UNL     1     -39.262  18.473 104.299  1.00  0.00    -0.646 OA
HETATM   15  O4  UNL     1     -37.604  18.819 105.856  1.00  0.00    -0.646 OA
ENDBRANCH  12  13
BRANCH  12  16
HETATM   16  C15 UNL     1     -39.424  21.405 105.939  1.00  0.00     0.019 C
HETATM   17  C16 UNL     1     -39.504  20.436 107.087  1.00  0.00     0.007 C
HETATM   18  C17 UNL     1     -40.133  21.179 108.255  1.00  0.00     0.000 C
HETATM   19  C18 UNL     1     -39.273  22.308 108.722  1.00  0.00     0.000 C
HETATM   20  C19 UNL     1     -38.344  22.859 107.692  1.00  0.00     0.000 C
HETATM   21  C20 UNL     1     -38.851  22.737 106.273  1.00  0.00     0.007 C
ENDBRANCH  12  16
ENDBRANCH  10  12
ENDBRANCH   3   8
BRANCH   1  22
HETATM   22  C8  UNL     1     -42.719  21.418  98.971  1.00  0.00     0.117 C
BRANCH  22  23
HETATM   23  C7  UNL     1     -43.075  22.351  97.869  1.00  0.00     0.218 C
HETATM   24  N1  UNL     1     -42.062  23.110  97.195  1.00  0.00    -0.356 N
ATOM     25  H1  UNL     1     -41.081  23.025  97.459  1.00  0.00     0.162 HD
HETATM   26  O1  UNL     1     -44.255  22.520  97.475  1.00  0.00    -0.274 OA
BRANCH  24  27
HETATM   27  C6  UNL     1     -42.471  23.997  96.134  1.00  0.00     0.088 C
HETATM   28  C2  UNL     1     -41.336  24.342  95.202  1.00  0.00     0.004 C
HETATM   29  C1  UNL     1     -41.219  23.351  94.065  1.00  0.00     0.012 C
HETATM   30  C3  UNL     1     -41.753  25.678  94.642  1.00  0.00     0.006 C
HETATM   31  C4  UNL     1     -42.454  26.393  95.766  1.00  0.00     0.002 C
HETATM   32  C5  UNL     1     -42.782  25.345  96.791  1.00  0.00     0.025 C
ENDBRANCH  24  27
ENDBRANCH  22  23
ENDBRANCH   1  22
TORSDOF 7
ENDMDL