MODEL 2
REMARK VINA RESULT: -6.445736876      2.654      4.507
REMARK  5 active torsions:
REMARK  status: ('A' for Active; 'I' for Inactive)
REMARK    1  A    between atoms: N1_2  and  S1_4
REMARK    2  A    between atoms: S1_4  and  C2_7
REMARK    3  A    between atoms: C2_7  and  C3_8
REMARK       I    between atoms: C3_8  and  N2_10
REMARK    4  A    between atoms: N2_10  and  C4_12
REMARK    5  A    between atoms: C12_23  and  C13_24
ROOT
HETATM    1  C4  UNL     1     -37.205  16.824 106.849  1.00  0.00     0.092 C
HETATM    2  C5  UNL     1     -38.640  17.061 107.309  1.00  0.00     0.009 C
HETATM    3  C6  UNL     1     -39.415  16.422 106.177  1.00  0.00     0.007 C
HETATM    4  C7  UNL     1     -38.603  16.747 104.967  1.00  0.00     0.007 C
HETATM    5  C8  UNL     1     -37.300  17.353 105.437  1.00  0.00     0.009 C
HETATM    6  C9  UNL     1     -37.355  18.846 105.516  1.00  0.00     0.020 C
HETATM    7  C10 UNL     1     -38.441  19.386 106.363  1.00  0.00     0.013 C
HETATM    8  C11 UNL     1     -39.473  20.114 105.491  1.00  0.00     0.244 C
HETATM    9  N3  UNL     1     -38.627  21.294 105.620  1.00  0.00    -0.069 N
ATOM     10  H31 UNL     1     -39.010  22.235 105.522  1.00  0.00     0.277 HD
ATOM     11  H32 UNL     1     -37.936  21.531 104.908  1.00  0.00     0.277 HD
HETATM   12  C12 UNL     1     -38.227  20.774 106.915  1.00  0.00     0.200 C
HETATM   13  C16 UNL     1     -38.998  18.488 107.389  1.00  0.00     0.020 C
ENDROOT
BRANCH   1  14
HETATM   14  N2  UNL     1     -36.883  15.428 106.912  1.00  0.00    -0.354 N
HETATM   15  C3  UNL     1     -35.791  14.866 107.576  1.00  0.00     0.243 C
HETATM   16  O3  UNL     1     -34.987  15.594 108.184  1.00  0.00    -0.272 OA
ATOM     17  H2  UNL     1     -37.511  14.786 106.429  1.00  0.00     0.162 HD
BRANCH  15  18
HETATM   18  C2  UNL     1     -35.518  13.378 107.601  1.00  0.00     0.163 C
HETATM   19  C17 UNL     1     -35.792  12.784 106.233  1.00  0.00     0.037 C
HETATM   20  C18 UNL     1     -34.428  12.568 105.631  1.00  0.00     0.002 C
HETATM   21  C19 UNL     1     -33.430  12.530 106.735  1.00  0.00     0.002 C
HETATM   22  C20 UNL     1     -34.081  13.187 107.908  1.00  0.00     0.037 C
BRANCH  18  23
HETATM   23  S1  UNL     1     -36.652  12.682 108.763  1.00  0.00     0.243 S
HETATM   24  O1  UNL     1     -38.002  13.364 108.622  1.00  0.00    -0.205 OA
HETATM   25  O2  UNL     1     -36.897  11.248 108.278  1.00  0.00    -0.205 OA
BRANCH  23  26
HETATM   26  N1  UNL     1     -36.149  12.671 110.365  1.00  0.00    -0.323 N
HETATM   27  C1  UNL     1     -37.165  12.323 111.305  1.00  0.00     0.159 C
ATOM     28  H1  UNL     1     -35.194  12.895 110.644  1.00  0.00     0.171 HD
ENDBRANCH  23  26
ENDBRANCH  18  23
ENDBRANCH  15  18
ENDBRANCH   1  14
BRANCH  12  29
HETATM   29  C13 UNL     1     -36.841  21.113 107.344  1.00  0.00     0.017 A
HETATM   30  C14 UNL     1     -36.488  21.627 108.661  1.00  0.00     0.007 A
HETATM   31  C15 UNL     1     -36.620  22.624 107.573  1.00  0.00     0.007 A
ENDBRANCH  12  29
TORSDOF 5
ENDMDL