MODEL 2
REMARK VINA RESULT: -6.322255024      0.880      1.104
REMARK  7 active torsions:
REMARK  status: ('A' for Active; 'I' for Inactive)
REMARK    1  A    between atoms: C2_2  and  N1_4
REMARK       I    between atoms: N1_4  and  C4_6
REMARK    2  A    between atoms: C4_6  and  C5_8
REMARK       I    between atoms: N2_13  and  C10_14
REMARK    3  A    between atoms: C10_14  and  C11_16
REMARK    4  A    between atoms: C11_16  and  N3_17
REMARK    5  A    between atoms: C11_16  and  C17_26
REMARK    6  A    between atoms: N3_17  and  C12_20
REMARK    7  A    between atoms: C17_26  and  N4_27
ROOT
HETATM    1  C11 UNL     1     -32.872  14.715 108.129  1.00  0.00     0.313 C
ENDROOT
BRANCH   1   2
HETATM    2  C10 UNL     1     -34.331  14.879 108.182  1.00  0.00     0.254 C
HETATM    3  N2  UNL     1     -35.292  13.927 108.557  1.00  0.00    -0.337 N
HETATM    4  C5  UNL     1     -36.717  14.203 108.504  1.00  0.00     0.179 C
HETATM    5  C9  UNL     1     -34.930  12.629 109.063  1.00  0.00     0.127 C
HETATM    6  C6  UNL     1     -37.514  12.987 108.929  1.00  0.00     0.035 C
HETATM    7  C7  UNL     1     -37.099  12.341 110.186  1.00  0.00     0.004 C
HETATM    8  C8  UNL     1     -35.642  12.353 110.395  1.00  0.00     0.020 C
HETATM    9  O2  UNL     1     -34.737  16.052 107.838  1.00  0.00    -0.271 OA
BRANCH   4  10
HETATM   10  C4  UNL     1     -37.212  14.524 107.153  1.00  0.00     0.240 C
HETATM   11  N1  UNL     1     -37.720  15.806 106.882  1.00  0.00    -0.355 N
ATOM     12  H1  UNL     1     -37.743  16.506 107.624  1.00  0.00     0.162 HD
HETATM   13  O1  UNL     1     -37.182  13.670 106.259  1.00  0.00    -0.271 OA
BRANCH  11  14
HETATM   14  C2  UNL     1     -38.211  16.149 105.562  1.00  0.00     0.076 C
HETATM   15  C1  UNL     1     -38.125  17.666 105.424  1.00  0.00     0.032 C
HETATM   16  C3  UNL     1     -39.647  15.762 105.349  1.00  0.00     0.032 C
ENDBRANCH  11  14
ENDBRANCH   4  10
ENDBRANCH   1   2
BRANCH   1  17
HETATM   17  N3  UNL     1     -32.214  15.584 109.123  1.00  0.00    -0.049 N
ATOM     18  H32 UNL     1     -31.281  15.880 108.835  1.00  0.00     0.279 HD
ATOM     19  H31 UNL     1     -32.636  16.511 109.181  1.00  0.00     0.279 HD
BRANCH  17  20
HETATM   20  C12 UNL     1     -32.216  14.879 110.399  1.00  0.00     0.256 C
HETATM   21  C13 UNL     1     -32.935  15.738 111.430  1.00  0.00     0.041 C
HETATM   22  C14 UNL     1     -32.426  15.179 112.741  1.00  0.00     0.010 C
HETATM   23  C15 UNL     1     -31.106  14.497 112.453  1.00  0.00     0.080 C
HETATM   24  C16 UNL     1     -30.874  14.799 111.020  1.00  0.00     0.157 C
HETATM   25  O3  UNL     1     -29.795  14.943 110.503  1.00  0.00    -0.296 OA
ENDBRANCH  17  20
ENDBRANCH   1  17
BRANCH   1  26
HETATM   26  C17 UNL     1     -32.250  15.111 106.795  1.00  0.00     0.160 C
HETATM   27  C18 UNL     1     -32.107  16.576 106.592  1.00  0.00     0.041 C
HETATM   28  C19 UNL     1     -31.136  16.848 105.466  1.00  0.00     0.002 C
HETATM   29  C20 UNL     1     -29.733  16.380 105.743  1.00  0.00     0.000 C
HETATM   30  C21 UNL     1     -29.770  15.414 106.903  1.00  0.00     0.002 C
HETATM   31  C22 UNL     1     -30.904  14.455 106.613  1.00  0.00     0.041 C
BRANCH  26  32
HETATM   32  N4  UNL     1     -33.092  14.587 105.708  1.00  0.00    -0.068 N
ATOM     33  H43 UNL     1     -33.232  13.579 105.773  1.00  0.00     0.275 HD
ATOM     34  H42 UNL     1     -34.068  14.870 105.800  1.00  0.00     0.275 HD
ATOM     35  H41 UNL     1     -32.686  14.868 104.816  1.00  0.00     0.275 HD
ENDBRANCH  26  32
ENDBRANCH   1  26
TORSDOF 7
ENDMDL