MODEL 5
REMARK VINA RESULT: -7.209585828     13.631     16.054
REMARK  8 active torsions:
REMARK  status: ('A' for Active; 'I' for Inactive)
REMARK    1  A    between atoms: C1_2  and  C2_4
REMARK    2  A    between atoms: C2_4  and  C3_5
REMARK    3  A    between atoms: C3_5  and  N1_6
REMARK       I    between atoms: N1_6  and  C4_8
REMARK    4  A    between atoms: C4_8  and  C5_10
REMARK    5  A    between atoms: N2_13  and  C8_14
REMARK    6  A    between atoms: C8_14  and  O4_15
REMARK    7  A    between atoms: C8_14  and  C9_17
REMARK    8  A    between atoms: C19_27  and  C20_28
ROOT
HETATM    1  C5  UNL     1     -37.659  22.143  93.246  1.00  0.00     0.082 C
HETATM    2  C6  UNL     1     -36.350  22.883  93.230  1.00  0.00     0.034 C
HETATM    3  C7  UNL     1     -35.165  21.981  93.194  1.00  0.00     0.126 C
HETATM    4  N2  UNL     1     -35.474  20.667  92.566  1.00  0.00    -0.350 N
HETATM    5  C19 UNL     1     -36.476  20.675  91.567  1.00  0.00     0.188 C
HETATM    6  C21 UNL     1     -37.800  21.252  92.048  1.00  0.00     0.050 C
ENDROOT
BRANCH   4   7
HETATM    7  C8  UNL     1     -34.758  19.572  93.016  1.00  0.00     0.123 C
BRANCH   7   8
HETATM    8  O4  UNL     1     -35.480  18.642  93.572  1.00  0.00    -0.349 OA
ATOM      9  H4  UNL     1     -35.547  17.839  93.070  1.00  0.00     0.219 HD
ENDBRANCH   7   8
BRANCH   7  10
HETATM   10  C9  UNL     1     -33.328  19.257  92.988  1.00  0.00     0.026 C
HETATM   11  C10 UNL     1     -32.461  20.192  92.227  1.00  0.00     0.022 C
HETATM   12  C11 UNL     1     -31.012  19.727  92.350  1.00  0.00    -0.013 C
HETATM   13  C12 UNL     1     -30.530  19.750  93.767  1.00  0.00     0.009 C
HETATM   14  C16 UNL     1     -30.925  18.348  91.750  1.00  0.00     0.009 C
HETATM   15  C13 UNL     1     -31.426  18.838  94.577  1.00  0.00    -0.013 C
HETATM   16  C14 UNL     1     -31.255  17.450  94.050  1.00  0.00     0.009 C
HETATM   17  C18 UNL     1     -32.825  19.352  94.453  1.00  0.00     0.022 C
HETATM   18  C15 UNL     1     -31.699  17.393  92.600  1.00  0.00    -0.013 C
HETATM   19  C17 UNL     1     -33.154  17.813  92.599  1.00  0.00     0.022 C
ENDBRANCH   7  10
ENDBRANCH   4   7
BRANCH   5  20
HETATM   20  C20 UNL     1     -36.061  21.516  90.378  1.00  0.00     0.196 C
HETATM   21  O5  UNL     1     -34.913  21.399  89.881  1.00  0.00    -0.646 OA
HETATM   22  O6  UNL     1     -36.921  22.436  89.802  1.00  0.00    -0.646 OA
ENDBRANCH   5  20
BRANCH   1  23
HETATM   23  C4  UNL     1     -38.758  23.130  93.316  1.00  0.00     0.222 C
HETATM   24  N1  UNL     1     -40.119  22.760  93.183  1.00  0.00    -0.360 N
ATOM     25  H1  UNL     1     -40.325  21.772  93.034  1.00  0.00     0.162 HD
HETATM   26  O3  UNL     1     -38.485  24.340  93.499  1.00  0.00    -0.273 OA
BRANCH  24  27
HETATM   27  C3  UNL     1     -41.221  23.657  93.241  1.00  0.00     0.133 C
BRANCH  27  28
HETATM   28  C2  UNL     1     -41.600  24.056  94.646  1.00  0.00     0.133 C
BRANCH  28  29
HETATM   29  C1  UNL     1     -41.732  25.512  94.804  1.00  0.00     0.174 C
HETATM   30  O1  UNL     1     -40.719  26.245  94.698  1.00  0.00    -0.648 OA
HETATM   31  O2  UNL     1     -42.964  26.082  95.069  1.00  0.00    -0.648 OA
ENDBRANCH  28  29
ENDBRANCH  27  28
ENDBRANCH  24  27
ENDBRANCH   1  23
TORSDOF 8
ENDMDL