MODEL 5
REMARK VINA RESULT: -8.551014308      1.825      2.505
REMARK  9 active torsions:
REMARK  status: ('A' for Active; 'I' for Inactive)
REMARK    1  A    between atoms: C3_3  and  N1_4
REMARK       I    between atoms: N1_4  and  C4_6
REMARK    2  A    between atoms: C4_6  and  C5_8
REMARK    3  A    between atoms: C9_12  and  C10_13
REMARK    4  A    between atoms: C10_13  and  N2_14
REMARK    5  A    between atoms: N2_14  and  C11_16
REMARK    6  A    between atoms: C11_16  and  N3_18
REMARK    7  A    between atoms: N3_18  and  N4_20
REMARK    8  A    between atoms: C12_22  and  N5_23
REMARK    9  A    between atoms: N5_23  and  C14_25
ROOT
HETATM    1  C1  UNL     1     -37.632  23.900  93.890  1.00  0.00     0.014 C
HETATM    2  C2  UNL     1     -38.707  23.533  93.473  1.00  0.00    -0.098 C
HETATM    3  C3  UNL     1     -40.009  23.064  92.983  1.00  0.00     0.216 C
ENDROOT
BRANCH   3   4
HETATM    4  N1  UNL     1     -40.909  23.124  94.110  1.00  0.00    -0.350 N
HETATM    5  C4  UNL     1     -41.529  24.328  94.513  1.00  0.00     0.226 C
HETATM    6  O1  UNL     1     -41.289  25.373  93.869  1.00  0.00    -0.273 OA
ATOM      7  H1  UNL     1     -41.105  22.270  94.631  1.00  0.00     0.163 HD
BRANCH   5   8
HETATM    8  C5  UNL     1     -42.459  24.365  95.691  1.00  0.00     0.037 C
HETATM    9  C6  UNL     1     -43.861  24.631  95.192  1.00  0.00     0.025 C
HETATM   10  C7  UNL     1     -42.395  23.056  96.393  1.00  0.00     0.019 C
HETATM   11  C8  UNL     1     -43.000  23.119  97.801  1.00  0.00     0.011 C
HETATM   12  C9  UNL     1     -42.273  24.132  98.576  1.00  0.00     0.024 C
HETATM   13  C20 UNL     1     -42.589  25.497  97.921  1.00  0.00     0.011 C
HETATM   14  C21 UNL     1     -41.984  25.504  96.560  1.00  0.00     0.019 C
BRANCH  12  15
HETATM   15  C10 UNL     1     -42.397  24.223 100.041  1.00  0.00     0.068 C
BRANCH  15  16
HETATM   16  N2  UNL     1     -41.413  23.683 100.882  1.00  0.00    -0.345 N
ATOM     17  H2  UNL     1     -40.655  24.324 101.118  1.00  0.00     0.167 HD
BRANCH  16  18
HETATM   18  C11 UNL     1     -41.300  22.415 101.450  1.00  0.00     0.190 C
HETATM   19  S1  UNL     1     -41.087  21.021 100.618  1.00  0.00    -0.039 SA
BRANCH  18  20
HETATM   20  N3  UNL     1     -41.307  22.338 102.905  1.00  0.00    -0.275 N
ATOM     21  H3  UNL     1     -42.167  22.562 103.405  1.00  0.00     0.189 HD
BRANCH  20  22
HETATM   22  N4  UNL     1     -40.196  21.973 103.629  1.00  0.00    -0.294 N
HETATM   23  C12 UNL     1     -39.983  22.300 104.846  1.00  0.00     0.195 C
ATOM     24  H4  UNL     1     -39.492  21.401 103.162  1.00  0.00     0.187 HD
BRANCH  23  25
HETATM   25  N5  UNL     1     -38.831  21.915 105.578  1.00  0.00    -0.376 N
HETATM   26  C13 UNL     1     -38.600  20.527 105.881  1.00  0.00     0.150 C
BRANCH  25  27
HETATM   27  C14 UNL     1     -37.890  22.954 106.016  1.00  0.00     0.084 C
HETATM   28  C15 UNL     1     -38.073  24.213 105.230  1.00  0.00     0.025 C
HETATM   29  C16 UNL     1     -36.989  25.190 105.614  1.00  0.00     0.002 C
HETATM   30  C17 UNL     1     -37.050  25.477 107.111  1.00  0.00     0.000 C
HETATM   31  C18 UNL     1     -36.980  24.204 107.913  1.00  0.00     0.002 C
HETATM   32  C19 UNL     1     -37.997  23.173 107.491  1.00  0.00     0.025 C
ENDBRANCH  25  27
ENDBRANCH  23  25
ENDBRANCH  20  22
ENDBRANCH  18  20
ENDBRANCH  16  18
ENDBRANCH  15  16
ENDBRANCH  12  15
ENDBRANCH   5   8
ENDBRANCH   3   4
TORSDOF 9
ENDMDL