MODEL 4
REMARK VINA RESULT: -6.529295387      1.580      2.098
REMARK  6 active torsions:
REMARK  status: ('A' for Active; 'I' for Inactive)
REMARK    1  A    between atoms: C2_2  and  O1_3
REMARK    2  A    between atoms: C2_2  and  C3_5
REMARK    3  A    between atoms: C7_10  and  N1_11
REMARK       I    between atoms: N1_11  and  C8_13
REMARK    4  A    between atoms: C8_13  and  C9_15
REMARK    5  A    between atoms: C13_19  and  N2_20
REMARK    6  A    between atoms: N2_20  and  C14_22
ROOT
HETATM    1  N1  UNL     1     -40.193  23.233  94.404  1.00  0.00    -0.347 N
ATOM      2  H1  UNL     1     -40.198  22.318  94.856  1.00  0.00     0.163 HD
HETATM    3  C8  UNL     1     -40.774  24.350  95.052  1.00  0.00     0.223 C
HETATM    4  O3  UNL     1     -40.765  25.461  94.499  1.00  0.00    -0.273 OA
ENDROOT
BRANCH   3   5
HETATM    5  C9  UNL     1     -41.392  24.190  96.393  1.00  0.00     0.083 C
HETATM    6  C10 UNL     1     -42.443  23.120  96.259  1.00  0.00     0.014 C
HETATM    7  C11 UNL     1     -43.393  23.050  97.400  1.00  0.00     0.003 C
HETATM    8  C12 UNL     1     -43.718  24.340  98.059  1.00  0.00     0.025 C
HETATM    9  C13 UNL     1     -42.578  25.296  98.221  1.00  0.00     0.081 C
HETATM   10  C20 UNL     1     -41.935  25.495  96.867  1.00  0.00     0.017 C
HETATM   11  C21 UNL     1     -42.942  25.993  95.852  1.00  0.00     0.013 C
BRANCH   9  12
HETATM   12  N2  UNL     1     -41.569  24.843  99.120  1.00  0.00    -0.413 N
ATOM     13  H2  UNL     1     -40.683  25.335  99.242  1.00  0.00     0.154 HD
BRANCH  12  14
HETATM   14  C14 UNL     1     -41.891  23.630  99.849  1.00  0.00     0.077 C
HETATM   15  C15 UNL     1     -41.861  23.790 101.327  1.00  0.00     0.024 C
HETATM   16  C16 UNL     1     -41.248  22.558 101.958  1.00  0.00     0.002 C
HETATM   17  C17 UNL     1     -41.708  21.292 101.252  1.00  0.00     0.000 C
HETATM   18  C18 UNL     1     -41.086  21.259  99.862  1.00  0.00     0.002 C
HETATM   19  C19 UNL     1     -40.749  22.663  99.487  1.00  0.00     0.024 C
ENDBRANCH  12  14
ENDBRANCH   9  12
ENDBRANCH   3   5
BRANCH   1  20
HETATM   20  C7  UNL     1     -39.595  23.397  93.102  1.00  0.00     0.184 C
HETATM   21  C6  UNL     1     -38.131  23.608  93.268  1.00  0.00     0.184 C
HETATM   22  C5  UNL     1     -37.494  22.288  93.172  1.00  0.00     0.297 C
HETATM   23  O2  UNL     1     -37.562  24.670  93.450  1.00  0.00    -0.293 OA
HETATM   24  C4  UNL     1     -36.669  22.202  91.897  1.00  0.00     0.082 C
HETATM   25  N3  UNL     1     -38.473  21.369  92.653  1.00  0.00     0.110 N
HETATM   26  C3  UNL     1     -37.577  21.058  91.554  1.00  0.00     0.254 C
HETATM   27  C22 UNL     1     -39.640  22.132  92.294  1.00  0.00     0.306 C
BRANCH  26  28
HETATM   28  C2  UNL     1     -36.961  19.689  91.715  1.00  0.00     0.147 C
HETATM   29  C1  UNL     1     -37.296  18.883  90.476  1.00  0.00     0.041 C
BRANCH  28  30
HETATM   30  O1  UNL     1     -35.563  19.789  91.805  1.00  0.00    -0.394 OA
ATOM     31  H1  UNL     1     -35.198  18.918  91.700  1.00  0.00     0.210 HD
ENDBRANCH  28  30
ENDBRANCH  26  28
ENDBRANCH   1  20
TORSDOF 6
ENDMDL