MODEL 1
REMARK VINA RESULT: -7.636793147      0.000      0.000
REMARK  8 active torsions:
REMARK  status: ('A' for Active; 'I' for Inactive)
REMARK    1  A    between atoms: C2_2  and  N1_4
REMARK       I    between atoms: N1_4  and  C4_6
REMARK       I    between atoms: C4_6  and  N2_8
REMARK    2  A    between atoms: N2_8  and  C5_10
REMARK    3  A    between atoms: C5_10  and  C6_11
REMARK    4  A    between atoms: C5_10  and  C16_28
REMARK       I    between atoms: C6_11  and  N3_13
REMARK    5  A    between atoms: C10_17  and  C11_18
REMARK    6  A    between atoms: C11_18  and  O3_19
REMARK    7  A    between atoms: C11_18  and  N4_21
REMARK    8  A    between atoms: N4_21  and  C12_23
ROOT
HETATM    1  C12 UNL     1     -35.866  23.883 107.986  1.00  0.00     0.121 A
HETATM    2  C13 UNL     1     -35.817  22.584 108.684  1.00  0.00     0.091 C
HETATM    3  N5  UNL     1     -35.802  21.564 109.236  1.00  0.00    -0.195 NA
HETATM    4  C14 UNL     1     -35.225  24.003 106.646  1.00  0.00     0.050 A
HETATM    5  C15 UNL     1     -34.604  24.611 107.901  1.00  0.00     0.050 A
ENDROOT
BRANCH   1   6
HETATM    6  N4  UNL     1     -37.174  24.511 108.157  1.00  0.00    -0.351 N
ATOM      7  H4  UNL     1     -37.272  25.300 108.797  1.00  0.00     0.163 HD
BRANCH   6   8
HETATM    8  C11 UNL     1     -38.314  24.042 107.445  1.00  0.00     0.136 C
BRANCH   8   9
HETATM    9  C10 UNL     1     -39.124  22.890 107.596  1.00  0.00     0.162 C
HETATM   10  N3  UNL     1     -39.027  21.665 106.959  1.00  0.00    -0.335 N
HETATM   11  C6  UNL     1     -38.206  20.840 106.208  1.00  0.00     0.267 C
HETATM   12  C7  UNL     1     -40.404  21.103 107.333  1.00  0.00     0.127 C
HETATM   13  O2  UNL     1     -36.942  20.974 106.184  1.00  0.00    -0.266 OA
HETATM   14  C8  UNL     1     -40.076  21.115 108.882  1.00  0.00     0.022 C
HETATM   15  C9  UNL     1     -39.208  22.369 109.058  1.00  0.00     0.035 C
BRANCH  11  16
HETATM   16  C5  UNL     1     -38.756  19.698 105.370  1.00  0.00     0.086 C
BRANCH  16  17
HETATM   17  N2  UNL     1     -39.380  20.101 104.188  1.00  0.00    -0.307 N
HETATM   18  C4  UNL     1     -39.528  21.293 103.482  1.00  0.00     0.320 C
HETATM   19  N1  UNL     1     -40.246  21.254 102.230  1.00  0.00    -0.339 N
HETATM   20  O1  UNL     1     -39.082  22.423 103.820  1.00  0.00    -0.247 OA
ATOM     21  H1  UNL     1     -40.674  20.376 101.936  1.00  0.00     0.164 HD
ATOM     22  H2  UNL     1     -39.847  19.324 103.722  1.00  0.00     0.170 HD
BRANCH  19  23
HETATM   23  C2  UNL     1     -40.378  22.402 101.388  1.00  0.00     0.078 C
HETATM   24  C1  UNL     1     -41.556  23.266 101.778  1.00  0.00     0.032 C
HETATM   25  C3  UNL     1     -40.690  21.799  99.979  1.00  0.00     0.032 C
ENDBRANCH  19  23
ENDBRANCH  16  17
BRANCH  16  26
HETATM   26  C16 UNL     1     -38.060  18.415 105.485  1.00  0.00     0.041 C
HETATM   27  C17 UNL     1     -38.347  17.463 104.311  1.00  0.00     0.011 C
HETATM   28  C18 UNL     1     -39.542  16.589 104.506  1.00  0.00     0.001 C
HETATM   29  C19 UNL     1     -39.197  15.462 105.482  1.00  0.00     0.000 C
HETATM   30  C20 UNL     1     -38.319  16.124 106.540  1.00  0.00     0.001 C
HETATM   31  C21 UNL     1     -38.626  17.596 106.687  1.00  0.00     0.011 C
ENDBRANCH  16  26
ENDBRANCH  11  16
ENDBRANCH   8   9
BRANCH   8  32
HETATM   32  O3  UNL     1     -38.656  24.829 106.462  1.00  0.00    -0.348 OA
ATOM     33  H3  UNL     1     -37.930  25.170 105.953  1.00  0.00     0.219 HD
ENDBRANCH   8  32
ENDBRANCH   6   8
ENDBRANCH   1   6
TORSDOF 8
ENDMDL