MODEL 1
REMARK VINA RESULT: -8.973024626      0.000      0.000
REMARK  8 active torsions:
REMARK  status: ('A' for Active; 'I' for Inactive)
REMARK    1  A    between atoms: C2_2  and  C4_4
REMARK    2  A    between atoms: C4_4  and  N1_5
REMARK    3  A    between atoms: C4_4  and  C35_43
REMARK       I    between atoms: N1_5  and  C5_7
REMARK    4  A    between atoms: C5_7  and  C6_9
REMARK    5  A    between atoms: C8_14  and  C9_15
REMARK    6  A    between atoms: C35_43  and  O5_44
REMARK    7  A    between atoms: C35_43  and  C36_46
REMARK    8  A    between atoms: C36_46  and  C37_47
ROOT
HETATM    1  C6  UNL     1      40.010  55.557 134.991  1.00  0.00     0.192 C
HETATM    2  N2  UNL     1      40.098  56.565 133.916  1.00  0.00    -0.346 N
ATOM      3  H2  UNL     1      40.322  57.489 134.288  1.00  0.00     0.163 HD
HETATM    4  C7  UNL     1      39.956  56.592 132.506  1.00  0.00     0.223 C
HETATM    5  O2  UNL     1      40.246  57.726 132.048  1.00  0.00    -0.273 OA
HETATM    6  C8  UNL     1      39.564  55.673 131.425  1.00  0.00     0.082 C
HETATM    7  C15 UNL     1      38.179  55.102 131.586  1.00  0.00     0.015 C
HETATM    8  C16 UNL     1      37.555  55.481 132.937  1.00  0.00     0.007 C
HETATM    9  C17 UNL     1      37.999  54.575 134.026  1.00  0.00     0.008 C
HETATM   10  C18 UNL     1      37.008  53.494 134.343  1.00  0.00    -0.004 C
HETATM   11  C19 UNL     1      35.732  53.863 134.949  1.00  0.00     0.006 C
HETATM   12  C20 UNL     1      35.095  52.643 135.635  1.00  0.00     0.007 C
HETATM   13  C21 UNL     1      35.535  51.367 134.948  1.00  0.00     0.009 C
HETATM   14  C22 UNL     1      34.659  50.251 135.360  1.00  0.00     0.017 C
HETATM   15  C23 UNL     1      33.306  50.711 135.899  1.00  0.00     0.023 C
HETATM   16  C24 UNL     1      34.312  49.355 134.159  1.00  0.00     0.023 C
HETATM   17  C25 UNL     1      35.229  49.345 136.382  1.00  0.00     0.135 C
HETATM   18  O3  UNL     1      34.609  48.963 137.369  1.00  0.00    -0.297 OA
HETATM   19  C26 UNL     1      36.637  48.908 136.150  1.00  0.00     0.080 C
HETATM   20  C27 UNL     1      37.445  50.172 136.085  1.00  0.00     0.017 C
HETATM   21  C28 UNL     1      37.008  51.125 135.031  1.00  0.00    -0.035 C
HETATM   22  C29 UNL     1      37.407  50.440 133.704  1.00  0.00     0.016 C
HETATM   23  C30 UNL     1      37.781  52.394 135.066  1.00  0.00     0.005 C
HETATM   24  C31 UNL     1      38.187  52.931 136.396  1.00  0.00     0.085 C
HETATM   25  C32 UNL     1      38.247  54.438 136.404  1.00  0.00     0.138 C
HETATM   26  O4  UNL     1      37.999  54.985 137.489  1.00  0.00    -0.297 OA
HETATM   27  C33 UNL     1      38.563  55.276 135.259  1.00  0.00     0.050 C
HETATM   28  C34 UNL     1      37.911  56.644 135.433  1.00  0.00     0.026 C
ENDROOT
BRANCH   1  29
HETATM   29  C5  UNL     1      40.834  56.081 136.068  1.00  0.00     0.242 C
HETATM   30  N1  UNL     1      40.479  57.237 136.780  1.00  0.00    -0.352 N
ATOM     31  H1  UNL     1      39.617  57.718 136.524  1.00  0.00     0.163 HD
HETATM   32  O1  UNL     1      41.898  55.525 136.416  1.00  0.00    -0.271 OA
BRANCH  30  33
HETATM   33  C4  UNL     1      41.287  57.787 137.874  1.00  0.00     0.117 C
BRANCH  33  34
HETATM   34  C2  UNL     1      41.625  59.229 137.708  1.00  0.00     0.003 C
HETATM   35  C1  UNL     1      41.235  59.885 136.452  1.00  0.00     0.011 C
HETATM   36  C3  UNL     1      43.087  59.450 137.980  1.00  0.00     0.011 C
ENDBRANCH  33  34
BRANCH  33  37
HETATM   37  C35 UNL     1      40.638  57.418 139.149  1.00  0.00     0.151 C
BRANCH  37  38
HETATM   38  O5  UNL     1      40.052  56.124 139.096  1.00  0.00    -0.393 OA
ATOM     39  H5  UNL     1      39.750  55.832 139.949  1.00  0.00     0.210 HD
ENDBRANCH  37  38
BRANCH  37  40
HETATM   40  C36 UNL     1      39.730  58.402 139.776  1.00  0.00     0.146 C
BRANCH  40  41
HETATM   41  C37 UNL     1      38.293  58.191 139.511  1.00  0.00     0.175 C
HETATM   42  O6  UNL     1      37.824  58.109 138.355  1.00  0.00    -0.648 OA
HETATM   43  O7  UNL     1      37.367  58.070 140.553  1.00  0.00    -0.648 OA
ENDBRANCH  40  41
ENDBRANCH  37  40
ENDBRANCH  33  37
ENDBRANCH  30  33
ENDBRANCH   1  29
BRANCH   6  44
HETATM   44  C9  UNL     1      39.735  56.338 130.074  1.00  0.00    -0.002 C
HETATM   45  C10 UNL     1      38.474  56.868 129.482  1.00  0.00     0.005 C
HETATM   46  C11 UNL     1      38.209  56.280 128.087  1.00  0.00     0.000 C
HETATM   47  C12 UNL     1      39.338  56.648 127.179  1.00  0.00     0.000 C
HETATM   48  C13 UNL     1      40.637  56.241 127.826  1.00  0.00     0.000 C
HETATM   49  C14 UNL     1      40.401  55.403 129.087  1.00  0.00     0.005 C
ENDBRANCH   6  44
TORSDOF 8
ENDMDL