MODEL 2
REMARK VINA RESULT: -10.460406560      1.074      1.593
REMARK  7 active torsions:
REMARK  status: ('A' for Active; 'I' for Inactive)
REMARK    1  A    between atoms: C2_2  and  C4_4
REMARK    2  A    between atoms: C20_20  and  O1_21
REMARK    3  A    between atoms: C29_31  and  N1_33
REMARK    4  A    between atoms: N1_33  and  S1_35
REMARK    5  A    between atoms: S1_35  and  N2_38
REMARK    6  A    between atoms: N2_38  and  S2_40
REMARK    7  A    between atoms: S2_40  and  N3_43
REMARK       I    between atoms: N3_43  and  C31_45
ROOT
HETATM    1  C4  UNL     1      39.202  54.189 133.728  1.00  0.00     0.042 C
HETATM    2  C5  UNL     1      40.288  55.305 133.739  1.00  0.00     0.012 C
HETATM    3  C6  UNL     1      40.018  56.388 134.721  1.00  0.00     0.011 C
HETATM    4  C7  UNL     1      39.989  55.873 136.185  1.00  0.00    -0.030 C
HETATM    5  C8  UNL     1      41.471  55.783 136.490  1.00  0.00     0.016 C
HETATM    6  C9  UNL     1      39.195  54.651 136.227  1.00  0.00     0.023 C
HETATM    7  C10 UNL     1      37.708  55.025 136.336  1.00  0.00     0.008 C
HETATM    8  C11 UNL     1      37.572  55.532 137.755  1.00  0.00     0.006 C
HETATM    9  C12 UNL     1      38.183  56.906 137.703  1.00  0.00    -0.001 C
HETATM   10  C13 UNL     1      38.220  57.376 139.125  1.00  0.00    -0.005 C
HETATM   11  C14 UNL     1      37.261  58.426 139.528  1.00  0.00     0.006 C
HETATM   12  C15 UNL     1      37.536  58.684 141.021  1.00  0.00     0.006 C
HETATM   13  C16 UNL     1      38.967  59.138 141.182  1.00  0.00     0.004 C
HETATM   14  C17 UNL     1      39.298  59.659 142.521  1.00  0.00    -0.017 C
HETATM   15  C18 UNL     1      38.253  59.288 143.571  1.00  0.00     0.018 C
HETATM   16  C19 UNL     1      39.334  61.195 142.519  1.00  0.00     0.018 C
HETATM   17  C20 UNL     1      40.624  59.213 143.080  1.00  0.00     0.126 C
HETATM   18  C21 UNL     1      41.725  59.121 142.094  1.00  0.00     0.033 C
HETATM   19  C22 UNL     1      41.320  58.813 140.701  1.00  0.00     0.012 C
HETATM   20  C23 UNL     1      39.963  58.090 140.657  1.00  0.00    -0.035 C
HETATM   21  C24 UNL     1      39.969  56.843 141.450  1.00  0.00     0.016 C
HETATM   22  C25 UNL     1      39.608  57.953 139.224  1.00  0.00    -0.001 C
HETATM   23  C26 UNL     1      40.376  56.945 138.424  1.00  0.00     0.016 C
HETATM   24  C27 UNL     1      39.540  56.968 137.114  1.00  0.00    -0.032 C
HETATM   25  C28 UNL     1      39.742  58.368 136.585  1.00  0.00     0.016 C
HETATM   26  C29 UNL     1      39.253  53.672 135.120  1.00  0.00     0.050 C
HETATM   27  C30 UNL     1      40.610  52.933 135.306  1.00  0.00     0.040 C
ENDROOT
BRANCH  26  28
HETATM   28  N1  UNL     1      38.315  52.610 135.436  1.00  0.00    -0.291 N
ATOM     29  H1  UNL     1      37.659  52.725 136.209  1.00  0.00     0.174 HD
BRANCH  28  30
HETATM   30  S1  UNL     1      38.305  51.208 134.547  1.00  0.00     0.330 S
HETATM   31  O2  UNL     1      38.981  50.029 135.236  1.00  0.00    -0.182 OA
HETATM   32  O3  UNL     1      38.857  51.345 133.131  1.00  0.00    -0.182 OA
BRANCH  30  33
HETATM   33  N2  UNL     1      36.701  50.627 134.273  1.00  0.00    -0.177 N
ATOM     34  H2  UNL     1      36.342  50.415 133.343  1.00  0.00     0.195 HD
BRANCH  33  35
HETATM   35  S2  UNL     1      35.775  50.436 135.683  1.00  0.00     0.335 S
HETATM   36  O4  UNL     1      34.368  50.022 135.250  1.00  0.00    -0.181 OA
HETATM   37  O5  UNL     1      35.616  51.789 136.326  1.00  0.00    -0.181 OA
BRANCH  35  38
HETATM   38  N3  UNL     1      36.327  49.290 136.801  1.00  0.00    -0.237 N
HETATM   39  C31 UNL     1      36.706  47.964 136.434  1.00  0.00     0.228 C
HETATM   40  C32 UNL     1      37.186  46.970 137.398  1.00  0.00     0.118 C
HETATM   41  O6  UNL     1      36.619  47.647 135.222  1.00  0.00    -0.273 OA
ATOM     42  H3  UNL     1      36.392  49.560 137.782  1.00  0.00     0.183 HD
ENDBRANCH  35  38
ENDBRANCH  33  35
ENDBRANCH  30  33
ENDBRANCH  28  30
ENDBRANCH  26  28
BRANCH   1  43
HETATM   43  C2  UNL     1      38.021  54.742 133.142  1.00  0.00    -0.086 C
HETATM   44  C1  UNL     1      37.946  55.928 132.588  1.00  0.00     0.014 C
HETATM   45  C3  UNL     1      36.654  54.111 133.090  1.00  0.00     0.043 C
ENDBRANCH   1  43
BRANCH  17  46
HETATM   46  O1  UNL     1      41.009  60.175 144.046  1.00  0.00    -0.395 OA
ATOM     47  H1  UNL     1      41.910  60.410 143.858  1.00  0.00     0.210 HD
ENDBRANCH  17  46
TORSDOF 7
ENDMDL