MODEL 1
REMARK VINA RESULT: -8.981280337      0.000      0.000
REMARK  11 active torsions:
REMARK  status: ('A' for Active; 'I' for Inactive)
REMARK    1  A    between atoms: C2_2  and  C3_3
REMARK    2  A    between atoms: C3_3  and  O1_4
REMARK    3  A    between atoms: C3_3  and  C4_6
REMARK    4  A    between atoms: C4_6  and  O2_7
REMARK    5  A    between atoms: C4_6  and  C5_9
REMARK    6  A    between atoms: N1_12  and  C7_13
REMARK    7  A    between atoms: C7_13  and  C8_14
REMARK    8  A    between atoms: C8_14  and  O4_15
REMARK    9  A    between atoms: C8_14  and  N2_17
REMARK   10  A    between atoms: C11_20  and  N3_21
REMARK   11  A    between atoms: C29_39  and  O5_40
ROOT
HETATM    1  C5  UNL     1      37.721  54.749 135.730  1.00  0.00     0.116 C
HETATM    2  C6  UNL     1      38.304  53.902 134.654  1.00  0.00     0.227 C
HETATM    3  O3  UNL     1      37.755  52.954 134.082  1.00  0.00    -0.273 OA
HETATM    4  N1  UNL     1      39.609  54.429 134.443  1.00  0.00    -0.338 N
HETATM    5  C15 UNL     1      40.124  54.565 135.797  1.00  0.00     0.036 C
HETATM    6  C16 UNL     1      40.764  53.226 136.102  1.00  0.00     0.039 C
HETATM    7  C17 UNL     1      41.125  55.653 135.900  1.00  0.00     0.032 C
HETATM    8  C18 UNL     1      41.431  56.131 137.266  1.00  0.00     0.012 C
HETATM    9  C19 UNL     1      40.314  56.115 138.253  1.00  0.00    -0.032 C
HETATM   10  C20 UNL     1      40.621  55.019 139.255  1.00  0.00     0.016 C
HETATM   11  C21 UNL     1      38.954  55.868 137.640  1.00  0.00     0.002 C
HETATM   12  C22 UNL     1      37.973  55.525 138.751  1.00  0.00     0.006 C
HETATM   13  C23 UNL     1      38.189  56.281 140.006  1.00  0.00     0.006 C
HETATM   14  C24 UNL     1      38.955  57.559 139.811  1.00  0.00     0.003 C
HETATM   15  C25 UNL     1      39.134  58.329 141.120  1.00  0.00    -0.035 C
HETATM   16  C26 UNL     1      39.733  57.548 142.226  1.00  0.00     0.016 C
HETATM   17  C27 UNL     1      37.808  58.883 141.618  1.00  0.00     0.012 C
HETATM   18  C28 UNL     1      37.600  60.335 141.194  1.00  0.00     0.033 C
HETATM   19  C29 UNL     1      38.548  61.262 141.881  1.00  0.00     0.126 C
HETATM   20  C30 UNL     1      39.942  60.640 141.829  1.00  0.00    -0.017 C
HETATM   21  C31 UNL     1      40.454  60.399 143.188  1.00  0.00     0.018 C
HETATM   22  C32 UNL     1      40.840  61.751 141.241  1.00  0.00     0.018 C
HETATM   23  C33 UNL     1      39.978  59.550 140.833  1.00  0.00     0.004 C
HETATM   24  C34 UNL     1      41.344  59.141 140.416  1.00  0.00     0.007 C
HETATM   25  C35 UNL     1      41.436  57.832 139.706  1.00  0.00     0.011 C
HETATM   26  C36 UNL     1      40.177  57.472 138.973  1.00  0.00    -0.032 C
HETATM   27  C37 UNL     1      40.049  58.491 137.827  1.00  0.00     0.016 C
HETATM   28  C38 UNL     1      38.881  54.802 136.629  1.00  0.00     0.034 C
ENDROOT
BRANCH   4  29
HETATM   29  C7  UNL     1      40.270  54.740 133.198  1.00  0.00     0.190 C
BRANCH  29  30
HETATM   30  C8  UNL     1      39.761  55.888 132.419  1.00  0.00     0.374 C
BRANCH  30  31
HETATM   31  O4  UNL     1      39.269  56.961 133.127  1.00  0.00    -0.366 OA
ATOM     32  H4  UNL     1      39.850  57.702 133.254  1.00  0.00     0.212 HD
ENDBRANCH  30  31
BRANCH  30  33
HETATM   33  N2  UNL     1      38.787  55.425 131.459  1.00  0.00     0.120 N
HETATM   34  C9  UNL     1      37.517  56.038 131.510  1.00  0.00     0.278 C
HETATM   35  C10 UNL     1      37.396  56.946 130.301  1.00  0.00     0.068 C
HETATM   36  C11 UNL     1      38.507  56.544 129.382  1.00  0.00     0.252 C
HETATM   37  C14 UNL     1      39.276  55.489 130.102  1.00  0.00     0.311 C
BRANCH  36  38
HETATM   38  N3  UNL     1      38.056  56.172 128.073  1.00  0.00     0.086 N
HETATM   39  C12 UNL     1      37.678  54.798 127.927  1.00  0.00     0.310 C
HETATM   40  C13 UNL     1      38.972  56.600 127.059  1.00  0.00     0.310 C
ENDBRANCH  36  38
ENDBRANCH  30  33
ENDBRANCH  29  30
ENDBRANCH   4  29
BRANCH   1  41
HETATM   41  C4  UNL     1      37.208  55.959 135.065  1.00  0.00     0.160 C
BRANCH  41  42
HETATM   42  C3  UNL     1      35.691  56.037 135.130  1.00  0.00     0.147 C
BRANCH  42  43
HETATM   43  C2  UNL     1      35.110  54.732 135.667  1.00  0.00     0.030 C
HETATM   44  C1  UNL     1      34.385  53.993 134.592  1.00  0.00     0.007 C
ENDBRANCH  42  43
BRANCH  42  45
HETATM   45  O1  UNL     1      35.124  56.197 133.879  1.00  0.00    -0.393 OA
ATOM     46  H1  UNL     1      34.354  56.735 134.023  1.00  0.00     0.210 HD
ENDBRANCH  42  45
ENDBRANCH  41  42
BRANCH  41  47
HETATM   47  O2  UNL     1      37.655  57.190 135.432  1.00  0.00    -0.392 OA
ATOM     48  H2  UNL     1      38.072  57.554 134.660  1.00  0.00     0.210 HD
ENDBRANCH  41  47
ENDBRANCH   1  41
BRANCH  19  49
HETATM   49  O5  UNL     1      38.477  62.493 141.275  1.00  0.00    -0.395 OA
ATOM     50  H5  UNL     1      39.338  62.895 141.299  1.00  0.00     0.210 HD
ENDBRANCH  19  49
TORSDOF 11
ENDMDL