MODEL 2
REMARK VINA RESULT: -8.745507216      1.123      2.787
REMARK  10 active torsions:
REMARK  status: ('A' for Active; 'I' for Inactive)
REMARK    1  A    between atoms: O1_2  and  C2_3
REMARK    2  A    between atoms: C2_3  and  C3_5
REMARK    3  A    between atoms: C3_5  and  N1_6
REMARK    4  A    between atoms: C3_5  and  C32_41
REMARK    5  A    between atoms: N1_6  and  C4_8
REMARK    6  A    between atoms: C4_8  and  O3_9
REMARK    7  A    between atoms: C4_8  and  C5_11
REMARK    8  A    between atoms: C17_24  and  C19_26
REMARK       I    between atoms: C32_41  and  N2_43
REMARK    9  A    between atoms: N2_43  and  C33_45
REMARK   10  A    between atoms: C33_45  and  C35_47
ROOT
HETATM    1  C5  UNL     1      38.569  56.975 137.278  1.00  0.00     0.037 C
HETATM    2  C6  UNL     1      37.629  55.843 137.614  1.00  0.00     0.023 C
HETATM    3  C7  UNL     1      38.260  54.501 137.523  1.00  0.00     0.035 C
HETATM    4  C8  UNL     1      39.709  54.396 137.682  1.00  0.00    -0.081 C
HETATM    5  C9  UNL     1      40.059  53.508 138.862  1.00  0.00     0.043 C
HETATM    6  C10 UNL     1      40.565  55.630 137.557  1.00  0.00    -0.071 C
HETATM    7  C11 UNL     1      41.502  55.486 136.448  1.00  0.00     0.044 C
HETATM    8  C12 UNL     1      39.906  56.907 137.963  1.00  0.00     0.010 C
HETATM    9  C13 UNL     1      39.872  56.942 139.478  1.00  0.00     0.003 C
HETATM   10  C14 UNL     1      38.770  56.647 140.344  1.00  0.00     0.011 C
HETATM   11  C15 UNL     1      40.777  58.038 140.005  1.00  0.00     0.029 C
HETATM   12  C16 UNL     1      40.216  58.964 141.059  1.00  0.00     0.136 C
HETATM   13  O4  UNL     1      40.220  58.381 142.322  1.00  0.00    -0.363 OA
HETATM   14  C17 UNL     1      39.888  59.113 143.392  1.00  0.00     0.145 C
HETATM   15  C18 UNL     1      40.085  58.143 144.599  1.00  0.00     0.058 C
HETATM   16  C20 UNL     1      40.866  60.254 143.717  1.00  0.00     0.050 C
HETATM   17  C21 UNL     1      41.756  60.344 142.538  1.00  0.00     0.015 C
HETATM   18  C22 UNL     1      41.004  60.239 141.198  1.00  0.00    -0.017 C
HETATM   19  C23 UNL     1      40.111  61.481 141.140  1.00  0.00     0.018 C
HETATM   20  C24 UNL     1      42.106  60.461 140.222  1.00  0.00     0.012 C
HETATM   21  C25 UNL     1      41.548  60.153 138.863  1.00  0.00     0.011 C
HETATM   22  C26 UNL     1      41.392  58.674 138.827  1.00  0.00    -0.029 C
HETATM   23  C27 UNL     1      42.837  58.206 138.701  1.00  0.00     0.016 C
HETATM   24  C28 UNL     1      40.488  58.202 137.678  1.00  0.00    -0.023 C
HETATM   25  C29 UNL     1      41.276  58.558 136.506  1.00  0.00     0.017 C
HETATM   26  C30 UNL     1      39.279  59.121 137.786  1.00  0.00     0.012 C
HETATM   27  C31 UNL     1      38.021  58.306 137.814  1.00  0.00     0.020 C
ENDROOT
BRANCH   1  28
HETATM   28  C4  UNL     1      38.439  57.153 135.833  1.00  0.00     0.122 C
BRANCH  28  29
HETATM   29  N1  UNL     1      38.372  56.238 134.777  1.00  0.00    -0.352 N
ATOM     30  H1  UNL     1      37.433  55.998 134.460  1.00  0.00     0.162 HD
BRANCH  29  31
HETATM   31  C3  UNL     1      39.465  55.580 134.068  1.00  0.00     0.276 C
BRANCH  31  32
HETATM   32  C2  UNL     1      39.193  54.232 133.570  1.00  0.00     0.290 C
HETATM   33  O2  UNL     1      38.739  53.920 132.450  1.00  0.00    -0.262 OA
BRANCH  32  34
HETATM   34  O1  UNL     1      39.460  53.182 134.432  1.00  0.00    -0.324 OA
HETATM   35  C1  UNL     1      40.623  52.434 134.510  1.00  0.00     0.213 C
ENDBRANCH  32  34
ENDBRANCH  31  32
BRANCH  31  36
HETATM   36  C32 UNL     1      39.948  56.430 132.977  1.00  0.00     0.251 C
HETATM   37  O7  UNL     1      40.630  57.469 133.348  1.00  0.00    -0.271 OA
HETATM   38  N2  UNL     1      39.794  56.305 131.592  1.00  0.00    -0.345 N
ATOM     39  H2  UNL     1      39.267  55.515 131.218  1.00  0.00     0.163 HD
BRANCH  38  40
HETATM   40  C33 UNL     1      40.368  57.277 130.669  1.00  0.00     0.181 C
HETATM   41  C34 UNL     1      39.373  57.725 129.611  1.00  0.00     0.043 C
BRANCH  40  42
HETATM   42  C35 UNL     1      41.658  56.890 130.091  1.00  0.00     0.196 C
HETATM   43  O8  UNL     1      42.594  56.529 130.815  1.00  0.00    -0.646 OA
HETATM   44  O9  UNL     1      41.806  56.937 128.728  1.00  0.00    -0.646 OA
ENDBRANCH  40  42
ENDBRANCH  38  40
ENDBRANCH  31  36
ENDBRANCH  29  31
ENDBRANCH  28  29
BRANCH  28  45
HETATM   45  O3  UNL     1      38.350  58.343 135.296  1.00  0.00    -0.349 OA
ATOM     46  H3  UNL     1      38.649  58.958 135.955  1.00  0.00     0.219 HD
ENDBRANCH  28  45
ENDBRANCH   1  28
BRANCH  14  47
HETATM   47  C19 UNL     1      38.517  59.591 143.558  1.00  0.00     0.208 C
HETATM   48  O5  UNL     1      38.343  60.739 144.041  1.00  0.00    -0.646 OA
HETATM   49  O6  UNL     1      37.440  58.839 143.207  1.00  0.00    -0.646 OA
ENDBRANCH  14  47
TORSDOF 10
ENDMDL