MODEL 2
REMARK VINA RESULT: -10.551553854      1.702      3.305
REMARK  8 active torsions:
REMARK  status: ('A' for Active; 'I' for Inactive)
REMARK    1  A    between atoms: N1_1  and  C1_5
REMARK    2  A    between atoms: C1_5  and  C2_6
REMARK    3  A    between atoms: C2_6  and  C3_7
REMARK    4  A    between atoms: C3_7  and  C4_8
REMARK    5  A    between atoms: C4_8  and  N2_9
REMARK    6  A    between atoms: C4_8  and  C28_42
REMARK       I    between atoms: N2_9  and  C5_11
REMARK    7  A    between atoms: C5_11  and  C6_13
REMARK    8  A    between atoms: C6_13  and  C7_15
REMARK       I    between atoms: C7_15  and  N3_17
ROOT
HETATM    1  C6  UNL     1      38.576  56.988 135.917  1.00  0.00     0.306 C
HETATM    2  O2  UNL     1      37.394  56.759 136.216  1.00  0.00    -0.276 OA
ENDROOT
BRANCH   1   3
HETATM    3  C5  UNL     1      39.467  57.513 136.955  1.00  0.00     0.297 C
HETATM    4  N2  UNL     1      39.799  58.881 137.015  1.00  0.00    -0.347 N
ATOM      5  H2  UNL     1      39.354  59.458 136.300  1.00  0.00     0.163 HD
HETATM    6  O1  UNL     1      39.927  56.707 137.790  1.00  0.00    -0.264 OA
BRANCH   4   7
HETATM    7  C4  UNL     1      40.656  59.596 137.911  1.00  0.00     0.115 C
BRANCH   7   8
HETATM    8  C3  UNL     1      41.127  60.838 137.230  1.00  0.00     0.029 C
BRANCH   8   9
HETATM    9  C2  UNL     1      42.600  60.713 136.816  1.00  0.00     0.029 C
BRANCH   9  10
HETATM   10  C1  UNL     1      43.470  61.084 138.021  1.00  0.00     0.230 C
BRANCH  10  11
HETATM   11  N1  UNL     1      44.115  59.915 138.565  1.00  0.00    -0.079 N
ATOM     12  H13 UNL     1      43.637  59.573 139.398  1.00  0.00     0.274 HD
ATOM     13  H12 UNL     1      43.985  59.098 137.968  1.00  0.00     0.274 HD
ATOM     14  H11 UNL     1      45.103  60.097 138.745  1.00  0.00     0.274 HD
ENDBRANCH  10  11
ENDBRANCH   9  10
ENDBRANCH   8   9
ENDBRANCH   7   8
BRANCH   7  15
HETATM   15  C28 UNL     1      39.995  59.913 139.215  1.00  0.00     0.177 C
HETATM   16  N5  UNL     1      38.802  59.095 139.462  1.00  0.00    -0.347 N
HETATM   17  C29 UNL     1      38.301  58.929 140.786  1.00  0.00     0.223 C
ATOM     18  H5  UNL     1      38.327  58.643 138.680  1.00  0.00     0.163 HD
HETATM   19  O5  UNL     1      37.078  58.675 140.910  1.00  0.00    -0.273 OA
HETATM   20  C30 UNL     1      39.141  59.041 141.977  1.00  0.00     0.089 C
HETATM   21  C31 UNL     1      38.480  59.662 143.175  1.00  0.00     0.015 C
HETATM   22  C35 UNL     1      40.408  59.873 141.719  1.00  0.00     0.070 C
HETATM   23  C32 UNL     1      39.401  59.378 144.373  1.00  0.00     0.001 C
HETATM   24  C33 UNL     1      40.756  59.997 144.103  1.00  0.00     0.001 C
HETATM   25  C34 UNL     1      41.377  59.455 142.809  1.00  0.00     0.013 C
HETATM   26  C36 UNL     1      40.882  59.532 140.378  1.00  0.00     0.156 C
HETATM   27  O6  UNL     1      41.912  58.981 140.184  1.00  0.00    -0.295 OA
ENDBRANCH   7  15
ENDBRANCH   4   7
ENDBRANCH   1   3
BRANCH   1  28
HETATM   28  C7  UNL     1      39.067  56.749 134.589  1.00  0.00     0.302 C
HETATM   29  O3  UNL     1      40.291  56.899 134.328  1.00  0.00    -0.263 OA
HETATM   30  N3  UNL     1      38.166  56.349 133.592  1.00  0.00    -0.309 N
HETATM   31  C8  UNL     1      37.928  55.088 133.270  1.00  0.00     0.086 C
ATOM     32  H3  UNL     1      37.663  57.075 133.082  1.00  0.00     0.170 HD
HETATM   33  C9  UNL     1      38.688  54.084 134.042  1.00  0.00     0.076 C
HETATM   34  N4  UNL     1      36.993  54.847 132.253  1.00  0.00    -0.317 N
HETATM   35  C10 UNL     1      37.870  53.299 135.021  1.00  0.00     0.008 C
HETATM   36  C11 UNL     1      38.797  52.217 135.588  1.00  0.00     0.004 C
HETATM   37  C12 UNL     1      38.337  50.861 135.153  1.00  0.00     0.027 C
HETATM   38  C13 UNL     1      37.095  50.420 135.808  1.00  0.00    -0.031 C
HETATM   39  C14 UNL     1      36.648  49.190 135.589  1.00  0.00    -0.031 C
HETATM   40  C15 UNL     1      37.343  48.232 134.711  1.00  0.00     0.027 C
HETATM   41  C16 UNL     1      36.324  47.195 134.240  1.00  0.00     0.004 C
HETATM   42  C17 UNL     1      36.947  46.015 133.583  1.00  0.00     0.000 C
HETATM   43  C18 UNL     1      36.941  46.022 132.085  1.00  0.00     0.000 C
HETATM   44  C19 UNL     1      35.581  46.041 131.485  1.00  0.00     0.000 C
HETATM   45  C20 UNL     1      35.511  46.330 130.029  1.00  0.00     0.000 C
HETATM   46  C21 UNL     1      36.205  47.548 129.547  1.00  0.00     0.000 C
HETATM   47  C22 UNL     1      35.262  48.729 129.289  1.00  0.00     0.000 C
HETATM   48  C23 UNL     1      35.932  50.043 129.714  1.00  0.00     0.000 C
HETATM   49  C24 UNL     1      36.268  49.953 131.191  1.00  0.00     0.000 C
HETATM   50  C25 UNL     1      35.952  51.245 131.895  1.00  0.00     0.009 C
HETATM   51  C26 UNL     1      36.909  52.363 131.527  1.00  0.00     0.103 C
HETATM   52  C27 UNL     1      36.311  53.663 131.916  1.00  0.00     0.223 C
HETATM   53  O4  UNL     1      35.026  53.691 131.941  1.00  0.00    -0.273 OA
ATOM     54  H4  UNL     1      36.773  55.654 131.668  1.00  0.00     0.170 HD
ENDBRANCH   1  28
TORSDOF 8
ENDMDL