MODEL 2
REMARK VINA RESULT: -10.557814127      1.142      1.429
REMARK  8 active torsions:
REMARK  status: ('A' for Active; 'I' for Inactive)
REMARK    1  A    between atoms: N1_4  and  C4_5
REMARK    2  A    between atoms: C4_5  and  C6_7
REMARK    3  A    between atoms: C6_7  and  O1_8
REMARK    4  A    between atoms: C21_24  and  N2_25
REMARK    5  A    between atoms: N2_25  and  O2_26
REMARK       I    between atoms: N2_25  and  C22_28
REMARK       I    between atoms: C22_28  and  N3_30
REMARK    6  A    between atoms: N3_30  and  C23_31
REMARK    7  A    between atoms: C26_34  and  C27_35
REMARK       I    between atoms: C27_35  and  N4_37
REMARK    8  A    between atoms: C35_45  and  C36_46
ROOT
HETATM    1  C1  UNL     1      39.622  50.963 134.700  1.00  0.00     0.016 C
HETATM    2  C2  UNL     1      38.435  51.918 134.312  1.00  0.00     0.030 C
HETATM    3  C3  UNL     1      37.640  52.048 135.527  1.00  0.00     0.131 C
HETATM    4  N1  UNL     1      36.627  51.053 135.805  1.00  0.00    -0.386 N
HETATM    5  C7  UNL     1      36.787  49.737 135.462  1.00  0.00     0.058 C
HETATM    6  C8  UNL     1      37.308  48.747 136.449  1.00  0.00     0.044 C
HETATM    7  C9  UNL     1      36.708  47.411 136.471  1.00  0.00     0.005 C
HETATM    8  C10 UNL     1      36.104  46.842 135.254  1.00  0.00     0.000 C
HETATM    9  C11 UNL     1      36.978  46.589 134.085  1.00  0.00     0.000 C
HETATM   10  C12 UNL     1      36.279  46.371 132.785  1.00  0.00     0.000 C
HETATM   11  C13 UNL     1      35.206  47.320 132.418  1.00  0.00     0.000 C
HETATM   12  C14 UNL     1      35.586  48.173 131.190  1.00  0.00     0.000 C
HETATM   13  C15 UNL     1      36.131  49.495 131.656  1.00  0.00     0.000 C
HETATM   14  C16 UNL     1      35.929  50.632 130.684  1.00  0.00     0.000 C
HETATM   15  C17 UNL     1      37.233  51.368 130.467  1.00  0.00     0.000 C
HETATM   16  C18 UNL     1      37.493  52.448 131.497  1.00  0.00     0.004 C
HETATM   17  C19 UNL     1      38.920  52.445 131.975  1.00  0.00     0.036 C
HETATM   18  C20 UNL     1      38.980  52.939 133.487  1.00  0.00    -0.056 C
HETATM   19  C21 UNL     1      38.824  54.372 133.382  1.00  0.00     0.132 C
ENDROOT
BRANCH  19  20
HETATM   20  N2  UNL     1      39.133  55.270 134.440  1.00  0.00    -0.172 N
HETATM   21  C22 UNL     1      38.211  55.711 135.421  1.00  0.00     0.419 C
HETATM   22  O3  UNL     1      37.025  55.403 135.336  1.00  0.00    -0.228 OA
HETATM   23  N3  UNL     1      38.718  56.552 136.529  1.00  0.00    -0.388 NA
BRANCH  20  24
HETATM   24  O2  UNL     1      40.430  55.739 134.462  1.00  0.00    -0.278 OA
ATOM     25  H2  UNL     1      41.102  55.092 134.284  1.00  0.00     0.245 HD
ENDBRANCH  20  24
BRANCH  23  26
HETATM   26  C23 UNL     1      39.139  57.268 137.473  1.00  0.00     0.183 C
HETATM   27  C24 UNL     1      38.109  57.546 138.575  1.00  0.00     0.041 C
HETATM   28  C25 UNL     1      38.386  58.867 139.190  1.00  0.00     0.017 C
HETATM   29  C26 UNL     1      39.862  58.976 139.447  1.00  0.00     0.079 C
HETATM   30  C34 UNL     1      40.529  57.646 139.541  1.00  0.00     0.032 C
HETATM   31  C35 UNL     1      40.419  56.847 138.302  1.00  0.00     0.123 C
BRANCH  29  32
HETATM   32  C27 UNL     1      40.072  59.854 140.611  1.00  0.00     0.224 C
HETATM   33  O4  UNL     1      40.569  61.011 140.392  1.00  0.00    -0.273 OA
HETATM   34  N4  UNL     1      39.780  59.544 141.937  1.00  0.00    -0.342 N
HETATM   35  C28 UNL     1      40.024  60.405 143.117  1.00  0.00     0.087 C
HETATM   36  C31 UNL     1      39.200  58.406 142.586  1.00  0.00     0.087 C
HETATM   37  C29 UNL     1      40.898  59.443 143.892  1.00  0.00     0.027 C
HETATM   38  C33 UNL     1      38.676  60.403 143.749  1.00  0.00     0.027 C
HETATM   39  C30 UNL     1      40.300  58.084 143.583  1.00  0.00     0.027 C
HETATM   40  C32 UNL     1      38.082  59.064 143.386  1.00  0.00     0.027 C
ENDBRANCH  29  32
BRANCH  31  41
HETATM   41  C36 UNL     1      41.614  57.083 137.454  1.00  0.00     0.180 C
HETATM   42  O5  UNL     1      42.068  56.151 136.756  1.00  0.00    -0.648 OA
HETATM   43  O6  UNL     1      42.277  58.314 137.390  1.00  0.00    -0.648 OA
ENDBRANCH  31  41
ENDBRANCH  23  26
ENDBRANCH  19  20
BRANCH   4  44
HETATM   44  C4  UNL     1      35.343  51.620 136.031  1.00  0.00     0.102 C
HETATM   45  C5  UNL     1      34.743  52.319 134.839  1.00  0.00     0.034 C
BRANCH  44  46
HETATM   46  C6  UNL     1      34.298  50.727 136.614  1.00  0.00     0.189 C
BRANCH  46  47
HETATM   47  O1  UNL     1      33.060  51.306 136.686  1.00  0.00    -0.399 OA
ATOM     48  H1  UNL     1      32.346  50.680 136.676  1.00  0.00     0.209 HD
ENDBRANCH  46  47
ENDBRANCH  44  46
ENDBRANCH   4  44
TORSDOF 8
ENDMDL