MODEL 1
REMARK VINA RESULT: -9.866728230      0.000      0.000
REMARK  11 active torsions:
REMARK  status: ('A' for Active; 'I' for Inactive)
REMARK    1  A    between atoms: C2_2  and  C3_3
REMARK    2  A    between atoms: C5_5  and  N1_6
REMARK    3  A    between atoms: C5_5  and  C36_46
REMARK       I    between atoms: N1_6  and  C6_8
REMARK    4  A    between atoms: C6_8  and  C7_10
REMARK    5  A    between atoms: C7_10  and  N2_11
REMARK       I    between atoms: N2_11  and  C8_13
REMARK    6  A    between atoms: C8_13  and  C9_15
REMARK    7  A    between atoms: C21_27  and  O3_28
REMARK    8  A    between atoms: C29_37  and  O4_38
REMARK    9  A    between atoms: O4_38  and  C30_39
REMARK   10  A    between atoms: C36_46  and  C37_48
REMARK   11  A    between atoms: C37_48  and  O7_49
ROOT
HETATM    1  C9  UNL     1      39.045  57.691 137.862  1.00  0.00     0.068 C
HETATM    2  C10 UNL     1      39.719  58.892 137.231  1.00  0.00     0.022 C
HETATM    3  C11 UNL     1      40.459  59.818 138.093  1.00  0.00     0.011 C
HETATM    4  C12 UNL     1      40.813  59.418 139.478  1.00  0.00    -0.035 C
HETATM    5  C13 UNL     1      41.966  60.384 139.867  1.00  0.00     0.016 C
HETATM    6  C14 UNL     1      41.640  58.149 139.308  1.00  0.00     0.017 C
HETATM    7  C15 UNL     1      40.784  57.002 139.694  1.00  0.00     0.017 C
HETATM    8  C16 UNL     1      40.500  57.185 141.097  1.00  0.00     0.013 C
HETATM    9  C17 UNL     1      40.481  58.629 141.632  1.00  0.00     0.006 C
HETATM   10  C18 UNL     1      39.983  58.802 143.005  1.00  0.00    -0.017 C
HETATM   11  C19 UNL     1      40.210  57.486 143.789  1.00  0.00     0.018 C
HETATM   12  C20 UNL     1      40.876  59.781 143.792  1.00  0.00     0.018 C
HETATM   13  C21 UNL     1      38.578  59.275 143.153  1.00  0.00     0.127 C
HETATM   14  C22 UNL     1      37.891  59.778 141.912  1.00  0.00     0.042 C
HETATM   15  C23 UNL     1      38.436  59.036 140.658  1.00  0.00    -0.033 C
HETATM   16  C24 UNL     1      37.761  57.787 140.962  1.00  0.00     0.016 C
HETATM   17  C25 UNL     1      37.778  59.395 139.372  1.00  0.00     0.011 C
HETATM   18  C26 UNL     1      37.794  58.181 138.473  1.00  0.00     0.022 C
HETATM   19  C27 UNL     1      39.812  59.446 140.549  1.00  0.00    -0.025 C
HETATM   20  C28 UNL     1      39.726  60.958 140.801  1.00  0.00     0.017 C
HETATM   21  C29 UNL     1      39.964  56.757 138.510  1.00  0.00     0.153 C
ENDROOT
BRANCH   1  22
HETATM   22  C8  UNL     1      38.458  56.985 136.658  1.00  0.00     0.230 C
HETATM   23  N2  UNL     1      37.921  55.707 136.556  1.00  0.00    -0.342 N
ATOM     24  H2  UNL     1      37.913  55.159 137.417  1.00  0.00     0.163 HD
HETATM   25  O2  UNL     1      38.425  57.591 135.561  1.00  0.00    -0.273 OA
BRANCH  23  26
HETATM   26  C7  UNL     1      37.386  55.069 135.415  1.00  0.00     0.114 C
HETATM   27  C32 UNL     1      36.057  55.616 134.957  1.00  0.00     0.041 C
HETATM   28  C33 UNL     1      34.983  54.892 135.748  1.00  0.00     0.003 C
HETATM   29  C34 UNL     1      35.667  53.805 136.522  1.00  0.00     0.003 C
HETATM   30  C35 UNL     1      36.945  53.632 135.781  1.00  0.00     0.041 C
BRANCH  26  31
HETATM   31  C6  UNL     1      38.274  55.022 134.232  1.00  0.00     0.247 C
HETATM   32  N1  UNL     1      38.174  55.960 133.191  1.00  0.00    -0.342 N
ATOM     33  H1  UNL     1      37.443  56.666 133.283  1.00  0.00     0.163 HD
HETATM   34  O1  UNL     1      39.135  54.125 134.155  1.00  0.00    -0.271 OA
BRANCH  32  35
HETATM   35  C5  UNL     1      38.994  56.034 132.004  1.00  0.00     0.103 A
HETATM   36  C3  UNL     1      38.208  56.477 130.734  1.00  0.00     0.046 A
HETATM   37  C4  UNL     1      38.887  55.133 130.861  1.00  0.00     0.051 A
BRANCH  36  38
HETATM   38  C2  UNL     1      36.732  56.477 130.811  1.00  0.00    -0.029 C
HETATM   39  C1  UNL     1      36.069  56.070 129.718  1.00  0.00     0.007 C
ENDBRANCH  36  38
BRANCH  35  40
HETATM   40  C36 UNL     1      40.238  56.910 132.039  1.00  0.00     0.178 C
HETATM   41  O6  UNL     1      40.689  57.259 133.125  1.00  0.00    -0.293 OA
BRANCH  40  42
HETATM   42  C37 UNL     1      40.928  57.348 130.825  1.00  0.00     0.245 C
BRANCH  42  43
HETATM   43  O7  UNL     1      40.579  58.697 130.548  1.00  0.00    -0.393 OA
ATOM     44  H7  UNL     1      40.637  59.207 131.347  1.00  0.00     0.209 HD
ENDBRANCH  42  43
ENDBRANCH  40  42
ENDBRANCH  35  40
ENDBRANCH  32  35
ENDBRANCH  26  31
ENDBRANCH  23  26
ENDBRANCH   1  22
BRANCH  21  45
HETATM   45  O4  UNL     1      40.993  56.526 137.508  1.00  0.00    -0.315 OA
BRANCH  45  46
HETATM   46  C30 UNL     1      41.151  55.361 136.810  1.00  0.00     0.255 C
HETATM   47  C31 UNL     1      40.780  54.029 137.364  1.00  0.00     0.126 C
HETATM   48  O5  UNL     1      41.628  55.403 135.655  1.00  0.00    -0.266 OA
ENDBRANCH  45  46
ENDBRANCH  21  45
BRANCH  13  49
HETATM   49  O3  UNL     1      38.442  60.299 144.139  1.00  0.00    -0.395 OA
ATOM     50  H3  UNL     1      37.545  60.596 144.238  1.00  0.00     0.210 HD
ENDBRANCH  13  49
TORSDOF 11
ENDMDL