MODEL 3
REMARK VINA RESULT: -9.090241764      1.716      2.241
REMARK  9 active torsions:
REMARK  status: ('A' for Active; 'I' for Inactive)
REMARK    1  A    between atoms: C3_3  and  C4_4
REMARK    2  A    between atoms: C8_8  and  O1_9
REMARK    3  A    between atoms: C16_18  and  C17_19
REMARK    4  A    between atoms: C17_19  and  C18_20
REMARK    5  A    between atoms: C19_23  and  C20_24
REMARK    6  A    between atoms: C20_24  and  C21_25
REMARK       I    between atoms: C21_25  and  N1_27
REMARK    7  A    between atoms: N1_27  and  C22_29
REMARK    8  A    between atoms: C28_38  and  C29_39
REMARK    9  A    between atoms: C29_39  and  N3_40
ROOT
HETATM    1  C1  UNL     1      43.900  59.656 138.256  1.00  0.00     0.112 C
HETATM    2  C2  UNL     1      42.444  59.515 138.279  1.00  0.00    -0.111 C
HETATM    3  C3  UNL     1      41.240  59.395 138.320  1.00  0.00    -0.102 C
ENDROOT
BRANCH   3   4
HETATM    4  C4  UNL     1      39.760  59.250 138.397  1.00  0.00     0.070 C
HETATM    5  C5  UNL     1      39.366  59.914 139.665  1.00  0.00     0.023 C
HETATM    6  C6  UNL     1      38.306  59.325 140.495  1.00  0.00    -0.002 C
HETATM    7  C7  UNL     1      38.545  59.538 141.973  1.00  0.00     0.037 C
HETATM    8  C11 UNL     1      38.140  57.811 140.310  1.00  0.00    -0.036 C
HETATM    9  C8  UNL     1      37.451  59.024 142.844  1.00  0.00     0.118 C
HETATM   10  C9  UNL     1      36.934  57.671 142.491  1.00  0.00     0.032 C
HETATM   11  C10 UNL     1      36.895  57.380 141.022  1.00  0.00     0.012 C
HETATM   12  C12 UNL     1      39.340  57.175 140.962  1.00  0.00     0.016 C
HETATM   13  C13 UNL     1      38.045  57.618 138.855  1.00  0.00     0.000 C
HETATM   14  C14 UNL     1      37.775  56.214 138.394  1.00  0.00     0.011 C
HETATM   15  C37 UNL     1      39.453  57.813 138.271  1.00  0.00     0.010 C
HETATM   16  C15 UNL     1      38.002  56.442 136.891  1.00  0.00    -0.005 C
HETATM   17  C16 UNL     1      38.095  55.207 136.097  1.00  0.00     0.004 C
HETATM   18  C36 UNL     1      39.361  57.177 136.969  1.00  0.00    -0.004 C
HETATM   19  C19 UNL     1      37.266  55.266 134.826  1.00  0.00    -0.001 C
HETATM   20  C27 UNL     1      37.654  56.474 134.004  1.00  0.00     0.011 C
HETATM   21  C28 UNL     1      39.065  56.650 133.641  1.00  0.00     0.014 C
HETATM   22  C34 UNL     1      40.010  57.278 134.592  1.00  0.00     0.007 C
HETATM   23  C35 UNL     1      39.454  58.014 135.746  1.00  0.00     0.006 C
BRANCH   9  24
HETATM   24  O1  UNL     1      37.967  58.944 144.154  1.00  0.00    -0.396 OA
ATOM     25  H1  UNL     1      37.237  59.062 144.750  1.00  0.00     0.210 HD
ENDBRANCH   9  24
BRANCH  17  26
HETATM   26  C17 UNL     1      37.681  53.965 136.867  1.00  0.00     0.118 C
BRANCH  26  27
HETATM   27  C18 UNL     1      38.347  52.740 136.407  1.00  0.00     0.172 C
HETATM   28  O2  UNL     1      37.733  51.664 136.280  1.00  0.00    -0.648 OA
HETATM   29  O3  UNL     1      39.697  52.775 136.103  1.00  0.00    -0.648 OA
ENDBRANCH  26  27
ENDBRANCH  17  26
BRANCH  19  30
HETATM   30  C20 UNL     1      35.838  55.480 135.256  1.00  0.00     0.108 C
BRANCH  30  31
HETATM   31  C21 UNL     1      34.950  54.518 134.565  1.00  0.00     0.218 C
HETATM   32  O4  UNL     1      34.672  53.388 134.982  1.00  0.00    -0.274 OA
HETATM   33  N1  UNL     1      34.335  54.875 133.303  1.00  0.00    -0.356 N
ATOM     34  H1  UNL     1      34.528  55.796 132.908  1.00  0.00     0.162 HD
BRANCH  33  35
HETATM   35  C22 UNL     1      33.465  53.985 132.583  1.00  0.00     0.087 C
HETATM   36  C23 UNL     1      34.264  53.215 131.526  1.00  0.00     0.052 C
HETATM   37  C24 UNL     1      34.017  53.760 130.142  1.00  0.00     0.234 C
HETATM   38  N2  UNL     1      32.629  53.644 129.784  1.00  0.00    -0.075 N
HETATM   39  C25 UNL     1      31.722  53.728 130.893  1.00  0.00     0.234 C
ATOM     40  H22 UNL     1      32.386  54.334 129.073  1.00  0.00     0.277 HD
ATOM     41  H21 UNL     1      32.468  52.786 129.258  1.00  0.00     0.277 HD
HETATM   42  C26 UNL     1      32.289  54.680 131.945  1.00  0.00     0.052 C
ENDBRANCH  33  35
ENDBRANCH  30  31
ENDBRANCH  19  30
BRANCH  21  43
HETATM   43  C29 UNL     1      39.642  55.413 133.019  1.00  0.00     0.277 C
BRANCH  43  44
HETATM   44  N3  UNL     1      39.818  55.478 131.584  1.00  0.00     0.090 N
HETATM   45  C30 UNL     1      39.605  56.841 131.168  1.00  0.00     0.282 C
HETATM   46  C31 UNL     1      38.729  57.030 129.979  1.00  0.00     0.104 C
HETATM   47  S1  UNL     1      37.099  56.284 130.387  1.00  0.00    -0.166 SA
HETATM   48  C32 UNL     1      37.545  54.639 131.077  1.00  0.00     0.104 C
HETATM   49  C33 UNL     1      39.035  54.528 130.847  1.00  0.00     0.282 C
ENDBRANCH  43  44
ENDBRANCH  21  43
ENDBRANCH   3   4
TORSDOF 9
ENDMDL