MODEL 4
REMARK VINA RESULT: -9.324055853      2.865      9.173
REMARK  8 active torsions:
REMARK  status: ('A' for Active; 'I' for Inactive)
REMARK    1  A    between atoms: C2_2  and  C3_3
REMARK    2  A    between atoms: C3_3  and  C4_4
REMARK    3  A    between atoms: C4_4  and  C5_5
REMARK    4  A    between atoms: C5_5  and  O1_6
REMARK    5  A    between atoms: C23_26  and  N1_27
REMARK    6  A    between atoms: N1_27  and  S1_29
REMARK    7  A    between atoms: S1_29  and  C24_32
REMARK    8  A    between atoms: C36_44  and  O5_45
ROOT
HETATM    1  C5  UNL     1      41.147  59.543 140.858  1.00  0.00     0.076 C
HETATM    2  C6  UNL     1      40.393  58.510 140.114  1.00  0.00     0.038 C
HETATM    3  C7  UNL     1      39.958  58.738 138.688  1.00  0.00     0.002 C
HETATM    4  C8  UNL     1      38.632  59.491 138.691  1.00  0.00     0.007 C
HETATM    5  C9  UNL     1      37.508  58.754 139.438  1.00  0.00     0.012 C
HETATM    6  C10 UNL     1      38.236  57.623 140.122  1.00  0.00    -0.017 A
HETATM    7  C11 UNL     1      38.754  56.743 139.038  1.00  0.00     0.005 C
HETATM    8  C12 UNL     1      37.478  56.373 138.245  1.00  0.00     0.007 C
HETATM    9  C13 UNL     1      37.610  55.033 137.577  1.00  0.00     0.014 C
HETATM   10  C14 UNL     1      37.991  55.235 136.091  1.00  0.00     0.004 C
HETATM   11  C15 UNL     1      36.909  56.012 135.393  1.00  0.00     0.020 C
HETATM   12  C16 UNL     1      39.307  55.856 136.142  1.00  0.00     0.136 C
HETATM   13  O2  UNL     1      39.897  55.620 134.869  1.00  0.00    -0.384 OA
HETATM   14  C17 UNL     1      40.788  54.607 134.873  1.00  0.00     0.173 C
HETATM   15  C18 UNL     1      40.473  53.414 135.681  1.00  0.00     0.015 C
HETATM   16  C19 UNL     1      41.467  52.356 135.140  1.00  0.00     0.013 C
HETATM   17  C20 UNL     1      39.079  52.950 135.738  1.00  0.00    -0.021 C
HETATM   18  C21 UNL     1      39.009  51.772 134.746  1.00  0.00     0.017 C
HETATM   19  C22 UNL     1      38.822  52.230 137.073  1.00  0.00     0.017 C
HETATM   20  C23 UNL     1      37.972  53.890 135.353  1.00  0.00     0.111 C
HETATM   21  C27 UNL     1      39.609  57.202 136.653  1.00  0.00     0.020 C
HETATM   22  C28 UNL     1      39.223  58.355 135.813  1.00  0.00     0.013 C
HETATM   23  C29 UNL     1      39.779  57.329 138.114  1.00  0.00    -0.030 C
HETATM   24  C30 UNL     1      41.093  56.587 138.460  1.00  0.00     0.016 C
HETATM   25  C31 UNL     1      38.449  57.288 141.450  1.00  0.00     0.030 A
HETATM   26  C32 UNL     1      39.654  56.914 142.247  1.00  0.00    -0.023 C
HETATM   27  C33 UNL     1      40.588  57.800 142.589  1.00  0.00    -0.015 C
HETATM   28  C34 UNL     1      40.599  59.249 142.252  1.00  0.00     0.032 C
HETATM   29  C35 UNL     1      41.057  60.150 143.304  1.00  0.00     0.025 C
HETATM   30  C36 UNL     1      39.115  59.491 141.841  1.00  0.00     0.143 C
HETATM   31  C37 UNL     1      39.092  58.474 140.862  1.00  0.00     0.010 A
ENDROOT
BRANCH  20  32
HETATM   32  N1  UNL     1      37.758  53.987 133.971  1.00  0.00    -0.313 N
ATOM     33  H1  UNL     1      38.442  54.564 133.482  1.00  0.00     0.172 HD
BRANCH  32  34
HETATM   34  S1  UNL     1      36.626  53.350 133.015  1.00  0.00     0.230 S
HETATM   35  O3  UNL     1      35.699  52.471 133.922  1.00  0.00    -0.206 OA
HETATM   36  O4  UNL     1      35.575  54.382 132.574  1.00  0.00    -0.206 OA
BRANCH  34  37
HETATM   37  C24 UNL     1      36.897  52.362 131.609  1.00  0.00     0.121 C
HETATM   38  C25 UNL     1      38.306  52.362 131.091  1.00  0.00     0.027 C
HETATM   39  C26 UNL     1      36.672  50.858 132.020  1.00  0.00     0.027 C
ENDBRANCH  34  37
ENDBRANCH  32  34
ENDBRANCH  20  32
BRANCH  30  40
HETATM   40  O5  UNL     1      38.403  59.200 143.030  1.00  0.00    -0.394 OA
ATOM     41  H5  UNL     1      37.585  59.669 142.910  1.00  0.00     0.210 HD
ENDBRANCH  30  40
BRANCH   1  42
HETATM   42  C4  UNL     1      42.613  59.593 140.768  1.00  0.00     0.043 C
BRANCH  42  43
HETATM   43  C3  UNL     1      43.290  60.600 139.929  1.00  0.00     0.029 C
BRANCH  43  44
HETATM   44  C2  UNL     1      43.444  59.996 138.569  1.00  0.00    -0.037 C
HETATM   45  C1  UNL     1      42.939  60.603 137.527  1.00  0.00     0.007 C
ENDBRANCH  43  44
ENDBRANCH  42  43
ENDBRANCH   1  42
BRANCH   1  46
HETATM   46  O1  UNL     1      40.722  60.854 140.558  1.00  0.00    -0.388 OA
ATOM     47  H1  UNL     1      41.110  61.396 141.234  1.00  0.00     0.210 HD
ENDBRANCH   1  46
TORSDOF 8
ENDMDL