MODEL 5
REMARK VINA RESULT: -8.140780173      1.461      2.427
REMARK  9 active torsions:
REMARK  status: ('A' for Active; 'I' for Inactive)
REMARK    1  A    between atoms: C3_3  and  C4_4
REMARK    2  A    between atoms: C4_4  and  C5_5
REMARK    3  A    between atoms: C5_5  and  C6_10
REMARK    4  A    between atoms: N1_6  and  O1_8
REMARK       I    between atoms: C6_10  and  N2_12
REMARK    5  A    between atoms: C15_21  and  C16_22
REMARK       I    between atoms: C16_22  and  N3_24
REMARK    6  A    between atoms: N3_24  and  C17_26
REMARK    7  A    between atoms: C17_26  and  C18_27
REMARK    8  A    between atoms: C17_26  and  C20_31
REMARK    9  A    between atoms: C18_27  and  C19_28
ROOT
HETATM    1  C1  UNL     1      37.990  47.997 135.689  1.00  0.00     0.015 C
HETATM    2  C2  UNL     1      37.321  49.072 135.420  1.00  0.00    -0.076 C
HETATM    3  C3  UNL     1      36.120  49.854 135.752  1.00  0.00     0.025 C
HETATM    4  C9  UNL     1      36.998  51.061 135.481  1.00  0.00     0.007 C
HETATM    5  C10 UNL     1      36.435  52.260 134.843  1.00  0.00     0.016 C
HETATM    6  C11 UNL     1      37.470  53.380 134.959  1.00  0.00     0.020 C
HETATM    7  C12 UNL     1      38.820  52.877 135.211  1.00  0.00    -0.072 C
HETATM    8  C13 UNL     1      39.882  53.495 135.744  1.00  0.00    -0.058 A
HETATM    9  C14 UNL     1      41.284  53.799 136.278  1.00  0.00     0.059 A
HETATM   10  C15 UNL     1      40.192  54.836 136.308  1.00  0.00     0.068 A
HETATM   11  C21 UNL     1      40.175  55.816 135.156  1.00  0.00     0.025 C
HETATM   12  C22 UNL     1      38.742  56.081 134.817  1.00  0.00     0.011 C
HETATM   13  C23 UNL     1      38.210  55.416 133.596  1.00  0.00    -0.035 C
HETATM   14  C24 UNL     1      39.274  55.121 132.563  1.00  0.00     0.010 C
HETATM   15  C25 UNL     1      38.689  54.859 131.185  1.00  0.00     0.006 C
HETATM   16  C26 UNL     1      37.216  54.676 131.370  1.00  0.00    -0.006 C
HETATM   17  C27 UNL     1      36.977  53.672 132.481  1.00  0.00     0.011 C
HETATM   18  C28 UNL     1      37.243  54.298 133.835  1.00  0.00     0.002 C
HETATM   19  C29 UNL     1      36.641  56.030 131.710  1.00  0.00    -0.043 C
HETATM   20  C30 UNL     1      36.993  56.941 130.531  1.00  0.00     0.015 C
HETATM   21  C31 UNL     1      35.153  56.027 131.829  1.00  0.00     0.015 C
HETATM   22  C32 UNL     1      37.369  56.527 132.907  1.00  0.00     0.019 C
HETATM   23  C33 UNL     1      39.569  51.611 135.032  1.00  0.00     0.036 C
HETATM   24  C34 UNL     1      38.967  50.581 134.171  1.00  0.00     0.018 C
HETATM   25  C35 UNL     1      37.586  50.165 134.416  1.00  0.00    -0.016 C
HETATM   26  C36 UNL     1      36.811  49.896 133.194  1.00  0.00     0.020 C
ENDROOT
BRANCH  10  27
HETATM   27  C16 UNL     1      39.756  55.254 137.639  1.00  0.00     0.231 C
HETATM   28  O3  UNL     1      39.252  54.402 138.465  1.00  0.00    -0.272 OA
HETATM   29  N3  UNL     1      39.830  56.562 138.143  1.00  0.00    -0.345 N
ATOM     30  H3  UNL     1      40.217  57.298 137.552  1.00  0.00     0.163 HD
BRANCH  29  31
HETATM   31  C17 UNL     1      39.361  56.913 139.513  1.00  0.00     0.195 C
BRANCH  31  32
HETATM   32  C18 UNL     1      40.440  57.687 140.203  1.00  0.00     0.149 C
BRANCH  32  33
HETATM   33  C19 UNL     1      41.060  58.693 139.362  1.00  0.00     0.175 C
HETATM   34  O4  UNL     1      41.919  58.410 138.493  1.00  0.00    -0.648 OA
HETATM   35  O5  UNL     1      40.730  60.070 139.470  1.00  0.00    -0.648 OA
ENDBRANCH  32  33
ENDBRANCH  31  32
BRANCH  31  36
HETATM   36  C20 UNL     1      38.163  57.776 139.357  1.00  0.00     0.197 C
HETATM   37  O6  UNL     1      37.792  58.058 138.164  1.00  0.00    -0.646 OA
HETATM   38  O7  UNL     1      37.395  58.314 140.346  1.00  0.00    -0.646 OA
ENDBRANCH  31  36
ENDBRANCH  29  31
ENDBRANCH  10  27
BRANCH   3  39
HETATM   39  C4  UNL     1      35.548  49.789 137.128  1.00  0.00     0.074 C
BRANCH  39  40
HETATM   40  C5  UNL     1      34.206  49.158 137.101  1.00  0.00     0.100 C
HETATM   41  N1  UNL     1      33.150  49.892 136.838  1.00  0.00    -0.268 N
ATOM     42  H1  UNL     1      32.215  49.482 136.818  1.00  0.00     0.194 HD
BRANCH  41  43
HETATM   43  O1  UNL     1      33.342  51.219 136.593  1.00  0.00    -0.290 OA
ATOM     44  H1  UNL     1      33.392  51.499 135.687  1.00  0.00     0.244 HD
ENDBRANCH  41  43
BRANCH  40  45
HETATM   45  C6  UNL     1      33.979  47.753 137.318  1.00  0.00     0.267 C
HETATM   46  O2  UNL     1      33.884  47.359 138.534  1.00  0.00    -0.266 OA
HETATM   47  N2  UNL     1      33.846  46.745 136.351  1.00  0.00    -0.356 N
HETATM   48  C7  UNL     1      33.620  45.339 136.737  1.00  0.00     0.152 C
HETATM   49  C8  UNL     1      33.927  47.027 134.948  1.00  0.00     0.152 C
ENDBRANCH  40  45
ENDBRANCH  39  40
ENDBRANCH   3  39
TORSDOF 9
ENDMDL