MODEL 4
REMARK VINA RESULT: -6.832133124      1.331      2.265
REMARK  18 active torsions:
REMARK  status: ('A' for Active; 'I' for Inactive)
REMARK    1  A    between atoms: C2_2  and  O1_3
REMARK    2  A    between atoms: C2_2  and  C3_5
REMARK    3  A    between atoms: C4_7  and  O3_8
REMARK    4  A    between atoms: O3_8  and  C5_9
REMARK    5  A    between atoms: C6_10  and  N1_11
REMARK    6  A    between atoms: C7_15  and  C8_16
REMARK    7  A    between atoms: C8_16  and  N2_17
REMARK    8  A    between atoms: C11_21  and  N3_22
REMARK    9  A    between atoms: N3_22  and  C13_24
REMARK   10  A    between atoms: C18_30  and  O5_31
REMARK   11  A    between atoms: O5_31  and  C19_32
REMARK   12  A    between atoms: C20_33  and  N5_34
REMARK   13  A    between atoms: C22_40  and  O7_41
REMARK   14  A    between atoms: C23_43  and  O8_44
REMARK   15  A    between atoms: C24_46  and  O9_47
REMARK   16  A    between atoms: C25_49  and  O10_50
REMARK   17  A    between atoms: C26_52  and  O11_53
REMARK   18  A    between atoms: C27_55  and  O12_56
ROOT
HETATM    1  C5  UNL     1       2.926  20.778  14.554  1.00  0.00     0.191 C
HETATM    2  C6  UNL     1       2.806  21.685  15.859  1.00  0.00     0.245 C
HETATM    3  C7  UNL     1       1.434  22.207  16.031  1.00  0.00     0.174 C
HETATM    4  O4  UNL     1       0.938  22.875  14.909  1.00  0.00    -0.355 OA
HETATM    5  C11 UNL     1       0.934  21.914  13.888  1.00  0.00     0.251 C
HETATM    6  C18 UNL     1       2.360  21.697  13.520  1.00  0.00     0.201 C
ENDROOT
BRANCH   6   7
HETATM    7  O5  UNL     1       2.481  21.377  12.189  1.00  0.00    -0.368 OA
BRANCH   7   8
HETATM    8  C19 UNL     1       3.363  22.160  11.510  1.00  0.00     0.191 C
HETATM    9  C20 UNL     1       4.243  21.446  10.553  1.00  0.00     0.286 C
HETATM   10  C21 UNL     1       5.475  22.284  10.472  1.00  0.00     0.190 C
HETATM   11  O6  UNL     1       6.541  21.833  10.202  1.00  0.00    -0.293 OA
HETATM   12  C22 UNL     1       5.272  23.715  10.749  1.00  0.00     0.221 C
HETATM   13  C23 UNL     1       3.925  24.186  10.300  1.00  0.00     0.185 C
HETATM   14  C24 UNL     1       2.760  23.317  10.715  1.00  0.00     0.181 C
BRANCH   9  15
HETATM   15  N5  UNL     1       4.476  20.061  10.787  1.00  0.00    -0.066 N
ATOM     16  H53 UNL     1       4.356  19.545   9.915  1.00  0.00     0.275 HD
ATOM     17  H52 UNL     1       5.469  19.910  10.963  1.00  0.00     0.275 HD
ATOM     18  H51 UNL     1       3.930  19.612  11.523  1.00  0.00     0.275 HD
ENDBRANCH   9  15
BRANCH  12  19
HETATM   19  O7  UNL     1       6.225  24.419  10.011  1.00  0.00    -0.385 OA
ATOM     20  H7  UNL     1       5.757  24.945   9.373  1.00  0.00     0.210 HD
ENDBRANCH  12  19
BRANCH  13  21
HETATM   21  O8  UNL     1       3.749  25.505  10.791  1.00  0.00    -0.390 OA
ATOM     22  H8  UNL     1       3.212  25.974  10.163  1.00  0.00     0.210 HD
ENDBRANCH  13  21
BRANCH  14  23
HETATM   23  O9  UNL     1       2.200  22.800   9.551  1.00  0.00    -0.390 OA
ATOM     24  H9  UNL     1       1.812  23.517   9.063  1.00  0.00     0.210 HD
ENDBRANCH  14  23
ENDBRANCH   7   8
ENDBRANCH   6   7
BRANCH   1  25
HETATM   25  O3  UNL     1       4.270  20.506  14.473  1.00  0.00    -0.348 OA
BRANCH  25  26
HETATM   26  C4  UNL     1       4.591  19.135  14.437  1.00  0.00     0.292 C
HETATM   27  O2  UNL     1       4.518  18.684  15.714  1.00  0.00    -0.348 OA
HETATM   28  C3  UNL     1       5.444  17.893  16.265  1.00  0.00     0.184 C
HETATM   29  C27 UNL     1       6.105  16.876  15.371  1.00  0.00     0.181 C
HETATM   30  C26 UNL     1       6.140  17.323  13.936  1.00  0.00     0.183 C
HETATM   31  C25 UNL     1       5.930  18.838  13.839  1.00  0.00     0.204 C
BRANCH  28  32
HETATM   32  C2  UNL     1       4.934  17.209  17.556  1.00  0.00     0.145 C
HETATM   33  C1  UNL     1       5.063  18.216  18.658  1.00  0.00     0.042 C
BRANCH  32  34
HETATM   34  O1  UNL     1       3.651  16.715  17.396  1.00  0.00    -0.393 OA
ATOM     35  H1  UNL     1       3.215  17.022  16.610  1.00  0.00     0.210 HD
ENDBRANCH  32  34
ENDBRANCH  28  32
BRANCH  29  36
HETATM   36  O12 UNL     1       5.385  15.687  15.447  1.00  0.00    -0.390 OA
ATOM     37  H12 UNL     1       4.828  15.623  14.680  1.00  0.00     0.210 HD
ENDBRANCH  29  36
BRANCH  30  38
HETATM   38  O11 UNL     1       5.267  16.618  13.114  1.00  0.00    -0.390 OA
ATOM     39  H11 UNL     1       4.603  17.179  12.732  1.00  0.00     0.210 HD
ENDBRANCH  30  38
BRANCH  31  40
HETATM   40  O10 UNL     1       6.974  19.428  14.543  1.00  0.00    -0.388 OA
ATOM     41  H10 UNL     1       6.695  20.188  15.042  1.00  0.00     0.210 HD
ENDBRANCH  31  40
ENDBRANCH  25  26
ENDBRANCH   1  25
BRANCH   5  42
HETATM   42  N3  UNL     1       0.059  22.114  12.827  1.00  0.00    -0.384 N
HETATM   43  C12 UNL     1      -0.477  21.002  12.142  1.00  0.00     0.146 C
BRANCH  42  44
HETATM   44  C13 UNL     1      -0.696  23.308  12.791  1.00  0.00     0.111 C
HETATM   45  C14 UNL     1      -0.073  24.276  11.807  1.00  0.00     0.057 C
HETATM   46  C15 UNL     1      -1.133  24.363  10.709  1.00  0.00     0.274 C
HETATM   47  N4  UNL     1      -2.396  24.117  11.333  1.00  0.00     0.086 N
HETATM   48  C16 UNL     1      -3.343  23.470  10.465  1.00  0.00     0.310 C
HETATM   49  C17 UNL     1      -2.140  23.205  12.446  1.00  0.00     0.296 C
ENDBRANCH  42  44
ENDBRANCH   5  42
BRANCH   2  50
HETATM   50  N1  UNL     1       3.177  20.943  17.017  1.00  0.00    -0.070 N
ATOM     51  H13 UNL     1       2.440  20.949  17.723  1.00  0.00     0.274 HD
ATOM     52  H12 UNL     1       3.202  19.940  16.832  1.00  0.00     0.274 HD
ATOM     53  H11 UNL     1       4.063  21.283  17.389  1.00  0.00     0.274 HD
ENDBRANCH   2  50
BRANCH   3  54
HETATM   54  C8  UNL     1       1.412  23.137  17.203  1.00  0.00     0.150 C
BRANCH  54  55
HETATM   55  N2  UNL     1       0.163  23.060  17.884  1.00  0.00    -0.418 N
HETATM   56  C9  UNL     1      -0.731  24.144  17.783  1.00  0.00     0.142 C
HETATM   57  C10 UNL     1      -0.418  21.755  17.955  1.00  0.00     0.142 C
ENDBRANCH  54  55
ENDBRANCH   3  54
TORSDOF 18
ENDMDL