MODEL 4
REMARK VINA RESULT: -8.514075893      1.283      3.331
REMARK  14 active torsions:
REMARK  status: ('A' for Active; 'I' for Inactive)
REMARK    1  A    between atoms: C3_4  and  O2_5
REMARK    2  A    between atoms: O2_5  and  C4_6
REMARK    3  A    between atoms: C5_7  and  O3_8
REMARK    4  A    between atoms: C6_10  and  O4_11
REMARK    5  A    between atoms: C7_13  and  O5_14
REMARK    6  A    between atoms: C8_16  and  O6_17
REMARK    7  A    between atoms: C9_19  and  C10_20
REMARK    8  A    between atoms: C10_20  and  O7_21
REMARK    9  A    between atoms: C12_25  and  O9_26
REMARK   10  A    between atoms: O9_26  and  C13_27
REMARK   11  A    between atoms: C15_34  and  O12_35
REMARK   12  A    between atoms: O12_35  and  S2_36
REMARK   13  A    between atoms: C16_40  and  O16_41
REMARK   14  A    between atoms: O16_41  and  S3_42
ROOT
HETATM    1  O1  UNL     1       4.097  20.049   9.183  1.00  0.00    -0.295 OA
HETATM    2  C1  UNL     1       3.788  19.932  10.332  1.00  0.00     0.162 C
HETATM    3  C2  UNL     1       2.749  18.972  10.751  1.00  0.00     0.142 C
HETATM    4  C3  UNL     1       3.160  18.528  12.162  1.00  0.00     0.267 C
HETATM    5  O8  UNL     1       4.530  18.487  12.195  1.00  0.00    -0.358 OA
HETATM    6  C11 UNL     1       5.008  19.784  12.386  1.00  0.00     0.211 C
HETATM    7  C12 UNL     1       4.439  20.750  11.383  1.00  0.00     0.217 C
ENDROOT
BRANCH   7   8
HETATM    8  O9  UNL     1       5.461  21.488  10.820  1.00  0.00    -0.348 OA
BRANCH   8   9
HETATM    9  C13 UNL     1       5.177  22.844  10.724  1.00  0.00     0.264 C
HETATM   10  N1  UNL     1       3.727  22.979  10.760  1.00  0.00    -0.289 N
HETATM   11  S1  UNL     1       3.220  24.614  10.581  1.00  0.00     0.231 S
ATOM     12  H1  UNL     1       3.086  22.195  10.878  1.00  0.00     0.174 HD
HETATM   13  O10 UNL     1       2.312  24.792   9.403  1.00  0.00    -0.206 OA
HETATM   14  O11 UNL     1       2.634  25.115  11.853  1.00  0.00    -0.206 OA
HETATM   15  C14 UNL     1       4.743  25.532  10.319  1.00  0.00     0.199 C
HETATM   16  C15 UNL     1       5.472  24.823   9.201  1.00  0.00     0.195 C
HETATM   17  C16 UNL     1       5.801  23.400   9.513  1.00  0.00     0.225 C
BRANCH  16  18
HETATM   18  O12 UNL     1       6.548  25.625   8.861  1.00  0.00    -0.248 OA
BRANCH  18  19
HETATM   19  S2  UNL     1       6.081  26.745   7.673  1.00  0.00     0.252 S
HETATM   20  O13 UNL     1       5.660  28.047   8.332  1.00  0.00    -0.572 OA
HETATM   21  O14 UNL     1       4.897  26.253   6.899  1.00  0.00    -0.572 OA
HETATM   22  O15 UNL     1       7.326  27.009   6.576  1.00  0.00    -0.572 OA
ENDBRANCH  18  19
ENDBRANCH  16  18
BRANCH  17  23
HETATM   23  O16 UNL     1       7.184  23.299   9.616  1.00  0.00    -0.244 OA
BRANCH  23  24
HETATM   24  S3  UNL     1       7.901  22.563   8.294  1.00  0.00     0.252 S
HETATM   25  O17 UNL     1       8.730  21.411   8.779  1.00  0.00    -0.572 OA
HETATM   26  O18 UNL     1       6.785  21.941   7.465  1.00  0.00    -0.572 OA
HETATM   27  O19 UNL     1       8.827  23.613   7.392  1.00  0.00    -0.572 OA
ENDBRANCH  23  24
ENDBRANCH  17  23
ENDBRANCH   8   9
ENDBRANCH   7   8
BRANCH   4  28
HETATM   28  O2  UNL     1       2.547  17.342  12.515  1.00  0.00    -0.352 OA
BRANCH  28  29
HETATM   29  C4  UNL     1       3.134  16.217  11.948  1.00  0.00     0.164 C
HETATM   30  C5  UNL     1       3.462  15.262  13.051  1.00  0.00     0.179 C
HETATM   31  C6  UNL     1       2.153  15.006  13.811  1.00  0.00     0.180 C
HETATM   32  C7  UNL     1       1.272  14.228  12.857  1.00  0.00     0.178 C
HETATM   33  C8  UNL     1       0.987  14.946  11.595  1.00  0.00     0.158 C
HETATM   34  C9  UNL     1       2.135  15.648  10.968  1.00  0.00     0.072 C
BRANCH  30  35
HETATM   35  O3  UNL     1       4.331  15.831  13.951  1.00  0.00    -0.390 OA
ATOM     36  H3  UNL     1       4.057  15.657  14.844  1.00  0.00     0.210 HD
ENDBRANCH  30  35
BRANCH  31  37
HETATM   37  O4  UNL     1       2.343  14.245  14.938  1.00  0.00    -0.390 OA
ATOM     38  H4  UNL     1       2.783  13.424  14.750  1.00  0.00     0.210 HD
ENDBRANCH  31  37
BRANCH  32  39
HETATM   39  O5  UNL     1       1.816  12.943  12.654  1.00  0.00    -0.390 OA
ATOM     40  H5  UNL     1       1.645  12.402  13.416  1.00  0.00     0.210 HD
ENDBRANCH  32  39
BRANCH  33  41
HETATM   41  O6  UNL     1      -0.067  15.853  11.845  1.00  0.00    -0.392 OA
ATOM     42  H6  UNL     1       0.071  16.225  12.708  1.00  0.00     0.210 HD
ENDBRANCH  33  41
BRANCH  34  43
HETATM   43  C10 UNL     1       2.806  14.828   9.875  1.00  0.00     0.174 C
BRANCH  43  44
HETATM   44  O7  UNL     1       1.928  14.079   9.138  1.00  0.00    -0.400 OA
ATOM     45  H7  UNL     1       1.295  14.600   8.659  1.00  0.00     0.209 HD
ENDBRANCH  43  44
ENDBRANCH  34  43
ENDBRANCH  28  29
ENDBRANCH   4  28
TORSDOF 14
ENDMDL