MODEL 3
REMARK VINA RESULT: -8.008307477      3.011      8.929
REMARK  16 active torsions:
REMARK  status: ('A' for Active; 'I' for Inactive)
REMARK    1  A    between atoms: C2_3  and  C3_4
REMARK    2  A    between atoms: C3_4  and  C4_5
REMARK    3  A    between atoms: C3_4  and  N2_7
REMARK    4  A    between atoms: N2_7  and  S1_9
REMARK    5  A    between atoms: S1_9  and  O4_12
REMARK    6  A    between atoms: O4_12  and  C5_13
REMARK    7  A    between atoms: C6_14  and  O5_15
REMARK    8  A    between atoms: C7_17  and  N3_18
REMARK    9  A    between atoms: C9_23  and  O6_24
REMARK   10  A    between atoms: O6_24  and  C10_25
REMARK   11  A    between atoms: C12_28  and  O8_29
REMARK   12  A    between atoms: C13_31  and  O9_32
REMARK   13  A    between atoms: C14_34  and  N4_35
REMARK   14  A    between atoms: C15_39  and  O10_40
REMARK   15  A    between atoms: C16_42  and  O11_43
REMARK   16  A    between atoms: O11_43  and  S2_44
ROOT
HETATM    1  C5  UNL     1       4.101  19.677  12.136  1.00  0.00     0.206 C
HETATM    2  C6  UNL     1       5.499  19.391  12.642  1.00  0.00     0.181 C
HETATM    3  C7  UNL     1       5.519  18.330  13.700  1.00  0.00     0.217 C
HETATM    4  C8  UNL     1       4.073  18.198  14.196  1.00  0.00     0.070 C
HETATM    5  C9  UNL     1       3.322  17.494  13.080  1.00  0.00     0.158 C
HETATM    6  C15 UNL     1       3.283  18.450  11.910  1.00  0.00     0.180 C
ENDROOT
BRANCH   1   7
HETATM    7  O4  UNL     1       4.260  20.311  10.896  1.00  0.00    -0.249 OA
BRANCH   7   8
HETATM    8  S1  UNL     1       4.042  21.987  11.025  1.00  0.00     0.359 S
HETATM    9  O2  UNL     1       3.117  22.379   9.905  1.00  0.00    -0.176 OA
HETATM   10  O3  UNL     1       3.419  22.334  12.343  1.00  0.00    -0.176 OA
BRANCH   8  11
HETATM   11  N2  UNL     1       5.562  22.740  10.905  1.00  0.00    -0.284 N
ATOM     12  H2  UNL     1       6.335  22.548  11.542  1.00  0.00     0.175 HD
BRANCH  11  13
HETATM   13  C3  UNL     1       5.649  23.687   9.797  1.00  0.00     0.177 C
BRANCH  13  14
HETATM   14  C2  UNL     1       7.024  23.623   9.257  1.00  0.00     0.135 C
HETATM   15  N1  UNL     1       7.335  22.494   8.423  1.00  0.00    -0.205 NA
HETATM   16  C1  UNL     1       6.721  22.487   7.135  1.00  0.00     0.130 C
HETATM   17  S3  UNL     1       9.050  22.811   8.209  1.00  0.00     0.214 S
HETATM   18  C17 UNL     1       9.032  24.595   8.439  1.00  0.00     0.192 C
HETATM   19  O15 UNL     1       9.499  22.445   6.849  1.00  0.00    -0.211 OA
HETATM   20  O16 UNL     1       9.784  22.137   9.307  1.00  0.00    -0.211 OA
HETATM   21  C16 UNL     1       7.527  24.849   8.568  1.00  0.00     0.181 C
BRANCH  21  22
HETATM   22  O11 UNL     1       6.988  25.095   7.330  1.00  0.00    -0.249 OA
BRANCH  22  23
HETATM   23  S2  UNL     1       6.194  26.546   7.193  1.00  0.00     0.252 S
HETATM   24  O12 UNL     1       6.233  27.315   8.496  1.00  0.00    -0.572 OA
HETATM   25  O13 UNL     1       4.746  26.275   6.900  1.00  0.00    -0.572 OA
HETATM   26  O14 UNL     1       6.891  27.529   6.030  1.00  0.00    -0.572 OA
ENDBRANCH  22  23
ENDBRANCH  21  22
ENDBRANCH  13  14
BRANCH  13  27
HETATM   27  C4  UNL     1       5.449  25.046  10.368  1.00  0.00     0.258 C
HETATM   28  O1  UNL     1       4.328  25.458  10.547  1.00  0.00    -0.305 OA
ENDBRANCH  13  27
ENDBRANCH  11  13
ENDBRANCH   8  11
ENDBRANCH   7   8
ENDBRANCH   1   7
BRANCH   2  29
HETATM   29  O5  UNL     1       5.956  20.576  13.231  1.00  0.00    -0.391 OA
ATOM     30  H5  UNL     1       6.340  21.092  12.531  1.00  0.00     0.210 HD
ENDBRANCH   2  29
BRANCH   6  31
HETATM   31  O10 UNL     1       3.559  17.812  10.703  1.00  0.00    -0.390 OA
ATOM     32  H10 UNL     1       2.996  18.089   9.990  1.00  0.00     0.210 HD
ENDBRANCH   6  31
BRANCH   3  33
HETATM   33  N3  UNL     1       6.348  18.644  14.820  1.00  0.00    -0.072 N
ATOM     34  H33 UNL     1       7.274  18.233  14.706  1.00  0.00     0.274 HD
ATOM     35  H32 UNL     1       6.596  19.633  14.817  1.00  0.00     0.274 HD
ATOM     36  H31 UNL     1       5.946  18.379  15.720  1.00  0.00     0.274 HD
ENDBRANCH   3  33
BRANCH   5  37
HETATM   37  O6  UNL     1       4.053  16.385  12.735  1.00  0.00    -0.351 OA
BRANCH  37  38
HETATM   38  C10 UNL     1       3.375  15.377  12.121  1.00  0.00     0.293 C
HETATM   39  O7  UNL     1       4.260  14.358  11.870  1.00  0.00    -0.356 OA
HETATM   40  C11 UNL     1       3.746  13.237  11.310  1.00  0.00     0.205 C
HETATM   41  C12 UNL     1       2.316  13.297  10.916  1.00  0.00     0.173 C
HETATM   42  C13 UNL     1       1.429  13.924  11.960  1.00  0.00     0.184 C
HETATM   43  C14 UNL     1       2.216  14.823  12.899  1.00  0.00     0.269 C
BRANCH  41  44
HETATM   44  O8  UNL     1       2.165  13.902   9.662  1.00  0.00    -0.391 OA
ATOM     45  H8  UNL     1       1.326  14.342   9.596  1.00  0.00     0.210 HD
ENDBRANCH  41  44
BRANCH  42  46
HETATM   46  O9  UNL     1       0.723  12.966  12.679  1.00  0.00    -0.391 OA
ATOM     47  H9  UNL     1      -0.212  13.027  12.521  1.00  0.00     0.210 HD
ENDBRANCH  42  46
BRANCH  43  48
HETATM   48  N4  UNL     1       2.747  13.971  13.946  1.00  0.00    -0.068 N
ATOM     49  H43 UNL     1       3.683  13.624  13.736  1.00  0.00     0.275 HD
ATOM     50  H42 UNL     1       2.980  14.486  14.794  1.00  0.00     0.275 HD
ATOM     51  H41 UNL     1       2.077  13.221  14.111  1.00  0.00     0.275 HD
ENDBRANCH  43  48
ENDBRANCH  37  38
ENDBRANCH   5  37
TORSDOF 16
ENDMDL