MODEL 4
REMARK VINA RESULT: -9.083288861      1.720      2.559
REMARK  16 active torsions:
REMARK  status: ('A' for Active; 'I' for Inactive)
REMARK    1  A    between atoms: C1_2  and  C2_4
REMARK       I    between atoms: C2_4  and  N2_6
REMARK    2  A    between atoms: C3_7  and  O3_8
REMARK    3  A    between atoms: C4_10  and  O4_11
REMARK    4  A    between atoms: O4_11  and  C5_12
REMARK    5  A    between atoms: C9_16  and  O5_17
REMARK    6  A    between atoms: C12_22  and  O7_23
REMARK    7  A    between atoms: O7_23  and  C13_24
REMARK    8  A    between atoms: C13_24  and  C14_26
REMARK       I    between atoms: N3_28  and  C16_29
REMARK    9  A    between atoms: C16_29  and  C17_31
REMARK   10  A    between atoms: C17_31  and  O10_32
REMARK   11  A    between atoms: C17_31  and  C18_34
REMARK   12  A    between atoms: C18_34  and  O11_35
REMARK   13  A    between atoms: C18_34  and  C19_37
REMARK   14  A    between atoms: C19_37  and  O12_38
REMARK   15  A    between atoms: C22_44  and  O15_45
REMARK   16  A    between atoms: C23_47  and  C24_48
ROOT
HETATM    1  C5  UNL     1       2.341  20.823  12.036  1.00  0.00     0.185 C
HETATM    2  C6  UNL     1       0.965  21.370  11.800  1.00  0.00     0.153 C
HETATM    3  C7  UNL     1       0.261  21.624  13.088  1.00  0.00     0.037 C
HETATM    4  C8  UNL     1       1.011  21.224  14.313  1.00  0.00     0.037 C
HETATM    5  C9  UNL     1       2.451  21.618  14.335  1.00  0.00     0.149 C
HETATM    6  C10 UNL     1       3.067  21.777  12.964  1.00  0.00     0.182 C
HETATM    7  O6  UNL     1       2.911  23.091  12.571  1.00  0.00    -0.370 OA
HETATM    8  C11 UNL     1       3.201  23.284  11.223  1.00  0.00     0.180 C
HETATM    9  C12 UNL     1       2.906  24.672  10.763  1.00  0.00     0.165 C
HETATM   10  C20 UNL     1       2.059  24.114   9.665  1.00  0.00     0.070 C
HETATM   11  C21 UNL     1       2.107  22.767  10.352  1.00  0.00     0.156 C
HETATM   12  O13 UNL     1       0.929  22.508  11.034  1.00  0.00    -0.375 OA
ENDROOT
BRANCH   1  13
HETATM   13  O4  UNL     1       2.229  19.559  12.613  1.00  0.00    -0.346 OA
BRANCH  13  14
HETATM   14  C4  UNL     1       3.203  18.691  12.164  1.00  0.00     0.312 C
HETATM   15  C3  UNL     1       2.581  17.398  11.637  1.00  0.00     0.279 C
HETATM   16  N2  UNL     1       2.387  16.415  12.669  1.00  0.00    -0.293 N
HETATM   17  C2  UNL     1       1.581  15.258  12.439  1.00  0.00     0.311 C
HETATM   18  C23 UNL     1       3.014  16.542  13.999  1.00  0.00     0.246 C
HETATM   19  O2  UNL     1       1.439  14.432  13.399  1.00  0.00    -0.263 OA
HETATM   20  C22 UNL     1       3.464  17.952  14.262  1.00  0.00     0.293 C
HETATM   21  O14 UNL     1       4.154  18.357  13.105  1.00  0.00    -0.325 OA
BRANCH  15  22
HETATM   22  O3  UNL     1       3.457  16.907  10.641  1.00  0.00    -0.371 OA
ATOM     23  H3  UNL     1       2.990  16.771   9.824  1.00  0.00     0.212 HD
ENDBRANCH  15  22
BRANCH  17  24
HETATM   24  C1  UNL     1       0.919  14.950  11.212  1.00  0.00     0.322 C
HETATM   25  N1  UNL     1       1.684  14.317  10.159  1.00  0.00    -0.053 NA
HETATM   26  O1  UNL     1      -0.260  15.174  10.957  1.00  0.00    -0.266 OA
ENDBRANCH  17  24
BRANCH  18  27
HETATM   27  C24 UNL     1       4.185  15.662  14.114  1.00  0.00     0.202 C
HETATM   28  O16 UNL     1       4.501  15.186  15.225  1.00  0.00    -0.646 OA
HETATM   29  O17 UNL     1       4.931  15.361  13.000  1.00  0.00    -0.646 OA
ENDBRANCH  18  27
BRANCH  20  30
HETATM   30  O15 UNL     1       4.341  18.022  15.343  1.00  0.00    -0.368 OA
ATOM     31  H15 UNL     1       4.858  18.815  15.259  1.00  0.00     0.212 HD
ENDBRANCH  20  30
ENDBRANCH  13  14
ENDBRANCH   1  13
BRANCH   5  32
HETATM   32  O5  UNL     1       2.644  22.802  15.080  1.00  0.00    -0.393 OA
ATOM     33  H5  UNL     1       1.832  23.286  15.171  1.00  0.00     0.210 HD
ENDBRANCH   5  32
BRANCH   9  34
HETATM   34  O7  UNL     1       4.025  25.430  10.347  1.00  0.00    -0.311 OA
BRANCH  34  35
HETATM   35  C13 UNL     1       5.208  24.879   9.878  1.00  0.00     0.284 C
HETATM   36  O8  UNL     1       5.946  24.328  10.732  1.00  0.00    -0.263 OA
BRANCH  35  37
HETATM   37  C14 UNL     1       5.619  24.916   8.460  1.00  0.00     0.205 A
HETATM   38  C15 UNL     1       6.308  26.069   7.879  1.00  0.00     0.162 A
HETATM   39  N3  UNL     1       6.993  24.779   8.100  1.00  0.00    -0.332 N
HETATM   40  C16 UNL     1       8.230  24.064   7.969  1.00  0.00     0.252 C
HETATM   41  O9  UNL     1       9.242  24.636   7.485  1.00  0.00    -0.270 OA
BRANCH  40  42
HETATM   42  C17 UNL     1       8.330  22.662   8.397  1.00  0.00     0.240 C
BRANCH  42  43
HETATM   43  O10 UNL     1       7.441  22.476   9.503  1.00  0.00    -0.383 OA
ATOM     44  H10 UNL     1       7.915  22.010  10.182  1.00  0.00     0.210 HD
ENDBRANCH  42  43
BRANCH  42  45
HETATM   45  C18 UNL     1       7.881  21.656   7.345  1.00  0.00     0.179 C
BRANCH  45  46
HETATM   46  O11 UNL     1       6.603  21.171   7.685  1.00  0.00    -0.390 OA
ATOM     47  H11 UNL     1       6.401  20.418   7.143  1.00  0.00     0.210 HD
ENDBRANCH  45  46
BRANCH  45  48
HETATM   48  C19 UNL     1       8.860  20.510   7.278  1.00  0.00     0.199 C
BRANCH  48  49
HETATM   49  O12 UNL     1       9.501  20.452   8.549  1.00  0.00    -0.398 OA
ATOM     50  H12 UNL     1      10.432  20.373   8.379  1.00  0.00     0.209 HD
ENDBRANCH  48  49
ENDBRANCH  45  48
ENDBRANCH  42  45
ENDBRANCH  40  42
ENDBRANCH  35  37
ENDBRANCH  34  35
ENDBRANCH   9  34
TORSDOF 16
ENDMDL