MODEL 1
REMARK VINA RESULT: -9.400400267      0.000      0.000
REMARK  15 active torsions:
REMARK  status: ('A' for Active; 'I' for Inactive)
REMARK    1  A    between atoms: C2_2  and  C21_47
REMARK    2  A    between atoms: N1_3  and  N2_5
REMARK    3  A    between atoms: N2_5  and  C3_6
REMARK    4  A    between atoms: C3_6  and  C4_7
REMARK    5  A    between atoms: C7_11  and  O2_12
REMARK    6  A    between atoms: C8_14  and  O3_15
REMARK    7  A    between atoms: O3_15  and  C9_16
REMARK    8  A    between atoms: C10_17  and  N3_18
REMARK    9  A    between atoms: C12_23  and  N4_24
REMARK   10  A    between atoms: C13_28  and  O4_29
REMARK   11  A    between atoms: O4_29  and  C14_30
REMARK   12  A    between atoms: C15_32  and  C16_33
REMARK   13  A    between atoms: C18_37  and  O8_38
REMARK   14  A    between atoms: C19_40  and  O9_41
REMARK   15  A    between atoms: C20_43  and  O10_44
REMARK       I    between atoms: C21_47  and  N5_49
REMARK       I    between atoms: N6_52  and  C24_53
ROOT
HETATM    1  C9  UNL     1       2.212  22.303  11.815  1.00  0.00     0.186 C
HETATM    2  C10 UNL     1       1.817  23.503  12.634  1.00  0.00     0.217 C
HETATM    3  C11 UNL     1       0.575  24.125  12.032  1.00  0.00     0.071 C
HETATM    4  C12 UNL     1       0.715  24.041  10.534  1.00  0.00     0.217 C
HETATM    5  C13 UNL     1       2.173  24.174  10.149  1.00  0.00     0.186 C
HETATM    6  C20 UNL     1       2.888  22.884  10.556  1.00  0.00     0.180 C
ENDROOT
BRANCH   1   7
HETATM    7  O3  UNL     1       3.076  21.430  12.427  1.00  0.00    -0.348 OA
BRANCH   7   8
HETATM    8  C8  UNL     1       2.611  20.133  12.539  1.00  0.00     0.297 C
HETATM    9  C7  UNL     1       2.184  19.828  13.947  1.00  0.00     0.242 C
HETATM   10  C6  UNL     1       3.405  19.941  14.789  1.00  0.00     0.163 C
HETATM   11  C5  UNL     1       4.712  19.826  14.089  1.00  0.00     0.120 C
HETATM   12  O1  UNL     1       3.411  20.118  15.988  1.00  0.00    -0.295 OA
HETATM   13  C4  UNL     1       4.569  18.920  12.900  1.00  0.00     0.185 C
HETATM   14  O11 UNL     1       3.532  19.203  12.057  1.00  0.00    -0.346 OA
BRANCH   9  15
HETATM   15  O2  UNL     1       1.733  18.508  14.040  1.00  0.00    -0.383 OA
ATOM     16  H2  UNL     1       1.155  18.458  14.792  1.00  0.00     0.210 HD
ENDBRANCH   9  15
BRANCH  13  17
HETATM   17  C3  UNL     1       4.566  17.479  13.356  1.00  0.00     0.214 C
BRANCH  17  18
HETATM   18  N2  UNL     1       3.761  16.646  13.056  1.00  0.00    -0.340 NA
BRANCH  18  19
HETATM   19  N1  UNL     1       2.825  15.865  12.679  1.00  0.00    -0.236 N
HETATM   20  C2  UNL     1       2.730  14.548  12.767  1.00  0.00     0.104 C
HETATM   21  C1  UNL     1       3.878  13.878  13.396  1.00  0.00     0.077 C
ATOM     22  H1  UNL     1       2.028  16.327  12.243  1.00  0.00     0.201 HD
BRANCH  20  23
HETATM   23  C21 UNL     1       1.579  13.868  12.274  1.00  0.00     0.293 C
HETATM   24  O12 UNL     1       1.669  13.314  11.104  1.00  0.00    -0.264 OA
HETATM   25  N5  UNL     1       0.350  13.736  12.926  1.00  0.00    -0.194 N
HETATM   26  C22 UNL     1      -0.046  14.241  14.207  1.00  0.00     0.184 C
HETATM   27  O14 UNL     1      -0.748  13.041  12.393  1.00  0.00    -0.145 OA
HETATM   28  C23 UNL     1      -1.581  14.095  14.153  1.00  0.00     0.185 C
HETATM   29  N6  UNL     1      -1.784  13.800  12.764  1.00  0.00    -0.183 N
HETATM   30  C24 UNL     1      -2.852  14.223  11.958  1.00  0.00     0.356 C
HETATM   31  N7  UNL     1      -2.998  13.901  10.590  1.00  0.00    -0.038 NA
HETATM   32  O13 UNL     1      -3.776  14.950  12.459  1.00  0.00    -0.248 OA
ENDBRANCH  20  23
ENDBRANCH  18  19
ENDBRANCH  17  18
ENDBRANCH  13  17
ENDBRANCH   7   8
ENDBRANCH   1   7
BRANCH   2  33
HETATM   33  N3  UNL     1       1.669  23.239  14.029  1.00  0.00    -0.072 N
ATOM     34  H33 UNL     1       0.681  23.201  14.281  1.00  0.00     0.274 HD
ATOM     35  H32 UNL     1       1.939  22.279  14.240  1.00  0.00     0.274 HD
ATOM     36  H31 UNL     1       2.166  23.891  14.635  1.00  0.00     0.274 HD
ENDBRANCH   2  33
BRANCH   6  37
HETATM   37  O10 UNL     1       2.936  21.966   9.535  1.00  0.00    -0.390 OA
ATOM     38  H10 UNL     1       3.753  21.481   9.535  1.00  0.00     0.210 HD
ENDBRANCH   6  37
BRANCH   5  39
HETATM   39  O4  UNL     1       2.339  24.290   8.782  1.00  0.00    -0.348 OA
BRANCH  39  40
HETATM   40  C14 UNL     1       3.365  25.169   8.434  1.00  0.00     0.292 C
HETATM   41  O5  UNL     1       4.564  24.476   8.556  1.00  0.00    -0.343 OA
HETATM   42  C15 UNL     1       5.673  25.265   8.394  1.00  0.00     0.228 C
HETATM   43  C17 UNL     1       5.705  26.438   9.353  1.00  0.00     0.077 C
HETATM   44  C18 UNL     1       4.505  26.279  10.271  1.00  0.00     0.154 C
HETATM   45  C19 UNL     1       3.272  26.346   9.376  1.00  0.00     0.202 C
BRANCH  42  46
HETATM   46  C16 UNL     1       6.882  24.466   8.649  1.00  0.00     0.203 C
HETATM   47  O6  UNL     1       8.008  24.976   8.496  1.00  0.00    -0.646 OA
HETATM   48  O7  UNL     1       6.776  23.158   9.056  1.00  0.00    -0.646 OA
ENDBRANCH  42  46
BRANCH  44  49
HETATM   49  O8  UNL     1       4.475  27.246  11.271  1.00  0.00    -0.393 OA
ATOM     50  H8  UNL     1       3.602  27.371  11.624  1.00  0.00     0.210 HD
ENDBRANCH  44  49
BRANCH  45  51
HETATM   51  O9  UNL     1       3.301  27.568   8.717  1.00  0.00    -0.388 OA
ATOM     52  H9  UNL     1       2.520  27.728   8.201  1.00  0.00     0.210 HD
ENDBRANCH  45  51
ENDBRANCH  39  40
ENDBRANCH   5  39
BRANCH   4  53
HETATM   53  N4  UNL     1      -0.115  25.050   9.946  1.00  0.00    -0.072 N
ATOM     54  H43 UNL     1      -0.170  24.971   8.931  1.00  0.00     0.274 HD
ATOM     55  H42 UNL     1      -1.104  24.913  10.151  1.00  0.00     0.274 HD
ATOM     56  H41 UNL     1       0.226  25.962  10.250  1.00  0.00     0.274 HD
ENDBRANCH   4  53
TORSDOF 15
ENDMDL