MODEL 2
REMARK VINA RESULT: -7.552328324      2.505      7.407
REMARK  16 active torsions:
REMARK  status: ('A' for Active; 'I' for Inactive)
REMARK    1  A    between atoms: O1_2  and  C2_3
REMARK    2  A    between atoms: C2_3  and  C3_5
REMARK    3  A    between atoms: C3_5  and  N1_6
REMARK    4  A    between atoms: N1_6  and  N2_8
REMARK    5  A    between atoms: C4_13  and  O3_14
REMARK    6  A    between atoms: O3_14  and  C5_15
REMARK    7  A    between atoms: C7_18  and  O5_19
REMARK    8  A    between atoms: C10_24  and  O7_25
REMARK    9  A    between atoms: C12_28  and  O8_29
REMARK   10  A    between atoms: C14_32  and  O9_33
REMARK   11  A    between atoms: O9_33  and  C15_34
REMARK   12  A    between atoms: C16_35  and  O10_36
REMARK   13  A    between atoms: C19_41  and  O12_42
REMARK   14  A    between atoms: C20_44  and  O13_45
REMARK   15  A    between atoms: C21_47  and  O14_48
REMARK   16  A    between atoms: O14_48  and  S1_49
ROOT
HETATM    1  C3  UNL     1       1.400  18.612  13.804  1.00  0.00     0.192 C
HETATM    2  C4  UNL     1       2.149  17.308  13.973  1.00  0.00     0.196 C
HETATM    3  C12 UNL     1       3.620  17.431  13.874  1.00  0.00     0.152 C
HETATM    4  C13 UNL     1       4.183  18.463  12.974  1.00  0.00     0.069 C
HETATM    5  C14 UNL     1       3.328  19.695  12.810  1.00  0.00     0.158 C
HETATM    6  C21 UNL     1       2.356  19.777  13.950  1.00  0.00     0.216 C
ENDROOT
BRANCH   2   7
HETATM    7  O3  UNL     1       1.495  16.393  13.269  1.00  0.00    -0.350 OA
BRANCH   7   8
HETATM    8  C5  UNL     1       1.084  15.196  13.647  1.00  0.00     0.269 C
HETATM    9  O4  UNL     1      -0.201  15.169  14.251  1.00  0.00    -0.358 OA
HETATM   10  C6  UNL     1      -0.646  13.869  14.468  1.00  0.00     0.205 C
HETATM   11  C7  UNL     1      -1.042  13.217  13.153  1.00  0.00     0.171 C
HETATM   12  C8  UNL     1       0.024  13.495  12.168  1.00  0.00     0.163 C
HETATM   13  O6  UNL     1      -0.237  14.565  11.316  1.00  0.00    -0.380 OA
HETATM   14  C11 UNL     1       1.337  14.003  12.796  1.00  0.00     0.103 C
HETATM   15  C9  UNL     1       0.986  14.795  10.641  1.00  0.00     0.200 C
HETATM   16  C10 UNL     1       2.080  14.255  11.523  1.00  0.00     0.153 C
BRANCH  11  17
HETATM   17  O5  UNL     1      -1.240  11.861  13.283  1.00  0.00    -0.391 OA
ATOM     18  H5  UNL     1      -1.293  11.423  12.442  1.00  0.00     0.210 HD
ENDBRANCH  11  17
BRANCH  16  19
HETATM   19  O7  UNL     1       2.394  12.976  10.995  1.00  0.00    -0.393 OA
ATOM     20  H7  UNL     1       3.271  13.059  10.640  1.00  0.00     0.210 HD
ENDBRANCH  16  19
ENDBRANCH   7   8
ENDBRANCH   2   7
BRANCH   1  21
HETATM   21  C2  UNL     1       0.345  18.656  14.854  1.00  0.00     0.294 C
HETATM   22  O2  UNL     1       0.645  18.335  16.022  1.00  0.00    -0.262 OA
BRANCH  21  23
HETATM   23  O1  UNL     1      -0.959  19.043  14.585  1.00  0.00    -0.324 OA
HETATM   24  C1  UNL     1      -1.526  20.048  15.402  1.00  0.00     0.213 C
ENDBRANCH  21  23
ENDBRANCH   1  21
BRANCH   1  25
HETATM   25  N1  UNL     1       0.714  18.659  12.518  1.00  0.00    -0.297 N
ATOM     26  H1  UNL     1       0.386  17.789  12.101  1.00  0.00     0.183 HD
BRANCH  25  27
HETATM   27  N2  UNL     1       0.492  19.861  11.839  1.00  0.00    -0.252 N
HETATM   28  N3  UNL     1      -0.572  20.537  11.967  1.00  0.00    -0.331 N
ATOM     29  H32 UNL     1      -1.288  20.175  12.597  1.00  0.00     0.178 HD
ATOM     30  H31 UNL     1      -0.734  21.413  11.471  1.00  0.00     0.178 HD
ATOM     31  H2  UNL     1       1.218  20.209  11.213  1.00  0.00     0.207 HD
ENDBRANCH  25  27
ENDBRANCH   1  25
BRANCH   3  32
HETATM   32  O8  UNL     1       4.256  17.575  15.134  1.00  0.00    -0.393 OA
ATOM     33  H8  UNL     1       4.127  18.431  15.524  1.00  0.00     0.210 HD
ENDBRANCH   3  32
BRANCH   6  34
HETATM   34  O14 UNL     1       1.781  20.983  14.162  1.00  0.00    -0.246 OA
BRANCH  34  35
HETATM   35  S1  UNL     1       2.231  21.989  15.303  1.00  0.00     0.252 S
HETATM   36  O15 UNL     1       2.252  23.421  14.771  1.00  0.00    -0.572 OA
HETATM   37  O16 UNL     1       1.193  22.035  16.418  1.00  0.00    -0.572 OA
HETATM   38  O17 UNL     1       3.702  21.772  16.047  1.00  0.00    -0.572 OA
ENDBRANCH  34  35
ENDBRANCH   6  34
BRANCH   5  39
HETATM   39  O9  UNL     1       4.044  20.856  12.765  1.00  0.00    -0.372 OA
BRANCH  39  40
HETATM   40  C15 UNL     1       4.074  21.477  11.524  1.00  0.00     0.184 C
HETATM   41  C16 UNL     1       3.078  22.602  11.383  1.00  0.00     0.173 C
HETATM   42  C17 UNL     1       3.578  23.737  10.523  1.00  0.00     0.201 C
HETATM   43  O11 UNL     1       4.731  24.320  10.986  1.00  0.00    -0.386 OA
HETATM   44  C18 UNL     1       5.742  24.010  10.053  1.00  0.00     0.201 C
HETATM   45  C19 UNL     1       5.745  22.497   9.945  1.00  0.00     0.173 C
HETATM   46  C20 UNL     1       5.495  21.952  11.327  1.00  0.00     0.180 C
BRANCH  41  47
HETATM   47  O10 UNL     1       1.871  22.188  10.826  1.00  0.00    -0.391 OA
ATOM     48  H10 UNL     1       1.441  22.873  10.327  1.00  0.00     0.210 HD
ENDBRANCH  41  47
BRANCH  45  49
HETATM   49  O12 UNL     1       7.061  22.151   9.557  1.00  0.00    -0.391 OA
ATOM     50  H12 UNL     1       7.631  22.584  10.181  1.00  0.00     0.210 HD
ENDBRANCH  45  49
BRANCH  46  51
HETATM   51  O13 UNL     1       6.340  20.863  11.493  1.00  0.00    -0.390 OA
ATOM     52  H13 UNL     1       6.370  20.385  10.672  1.00  0.00     0.210 HD
ENDBRANCH  46  51
ENDBRANCH  39  40
ENDBRANCH   5  39
TORSDOF 16
ENDMDL