MODEL 1
REMARK VINA RESULT: -8.518882703      0.000      0.000
REMARK  15 active torsions:
REMARK  status: ('A' for Active; 'I' for Inactive)
REMARK    1  A    between atoms: C2_2  and  S1_3
REMARK    2  A    between atoms: S1_3  and  N1_6
REMARK    3  A    between atoms: N1_6  and  C3_8
REMARK    4  A    between atoms: C4_9  and  O3_10
REMARK    5  A    between atoms: C5_12  and  O4_13
REMARK    6  A    between atoms: C6_15  and  O5_16
REMARK    7  A    between atoms: C7_18  and  C8_19
REMARK    8  A    between atoms: C8_19  and  O6_20
REMARK    9  A    between atoms: C8_19  and  C9_22
REMARK   10  A    between atoms: N2_26  and  O8_27
REMARK   11  A    between atoms: C13_31  and  O10_32
REMARK   12  A    between atoms: O10_32  and  S2_33
REMARK   13  A    between atoms: C14_37  and  O14_38
REMARK   14  A    between atoms: O14_38  and  S3_39
REMARK   15  A    between atoms: C15_44  and  O19_45
ROOT
HETATM    1  C8  UNL     1       2.882  24.219  10.601  1.00  0.00     0.182 C
ENDROOT
BRANCH   1   2
HETATM    2  C7  UNL     1       3.597  24.183   9.288  1.00  0.00     0.081 C
HETATM    3  C6  UNL     1       3.084  25.220   8.337  1.00  0.00     0.158 C
HETATM    4  C5  UNL     1       3.544  26.618   8.691  1.00  0.00     0.178 C
HETATM    5  C4  UNL     1       4.970  26.703   9.100  1.00  0.00     0.175 C
HETATM    6  C3  UNL     1       5.720  25.460   8.720  1.00  0.00     0.153 C
HETATM    7  C15 UNL     1       5.085  24.216   9.378  1.00  0.00     0.153 C
BRANCH   3   8
HETATM    8  O5  UNL     1       3.461  24.908   6.999  1.00  0.00    -0.392 OA
ATOM      9  H5  UNL     1       3.228  24.010   6.797  1.00  0.00     0.210 HD
ENDBRANCH   3   8
BRANCH   4  10
HETATM   10  O4  UNL     1       3.258  27.415   7.558  1.00  0.00    -0.390 OA
ATOM     11  H4  UNL     1       2.462  27.144   7.115  1.00  0.00     0.210 HD
ENDBRANCH   4  10
BRANCH   5  12
HETATM   12  O3  UNL     1       5.177  27.074  10.428  1.00  0.00    -0.391 OA
ATOM     13  H3  UNL     1       5.991  27.547  10.556  1.00  0.00     0.210 HD
ENDBRANCH   5  12
BRANCH   6  14
HETATM   14  N1  UNL     1       7.074  25.585   9.158  1.00  0.00    -0.310 N
ATOM     15  H1  UNL     1       7.336  26.185   9.940  1.00  0.00     0.172 HD
BRANCH  14  16
HETATM   16  S1  UNL     1       8.221  24.679   8.299  1.00  0.00     0.226 S
HETATM   17  O1  UNL     1       9.567  24.672   9.037  1.00  0.00    -0.206 OA
HETATM   18  O2  UNL     1       8.549  25.349   6.958  1.00  0.00    -0.206 OA
BRANCH  16  19
HETATM   19  C2  UNL     1       7.842  23.022   7.945  1.00  0.00     0.158 C
HETATM   20  C1  UNL     1       8.976  22.072   7.767  1.00  0.00     0.023 C
ENDBRANCH  16  19
ENDBRANCH  14  16
ENDBRANCH   6  14
BRANCH   7  21
HETATM   21  O19 UNL     1       5.588  24.165  10.660  1.00  0.00    -0.393 OA
ATOM     22  H19 UNL     1       6.502  23.924  10.575  1.00  0.00     0.210 HD
ENDBRANCH   7  21
ENDBRANCH   1   2
BRANCH   1  23
HETATM   23  O6  UNL     1       3.348  25.338  11.373  1.00  0.00    -0.390 OA
ATOM     24  H6  UNL     1       3.646  25.037  12.223  1.00  0.00     0.210 HD
ENDBRANCH   1  23
BRANCH   1  25
HETATM   25  C9  UNL     1       3.028  22.966  11.454  1.00  0.00     0.295 C
HETATM   26  O7  UNL     1       3.718  22.053  10.780  1.00  0.00    -0.324 OA
HETATM   27  C10 UNL     1       3.833  20.769  11.158  1.00  0.00     0.308 C
HETATM   28  C11 UNL     1       2.495  20.114  11.418  1.00  0.00     0.153 C
HETATM   29  O18 UNL     1       4.556  20.747  12.345  1.00  0.00    -0.322 OA
HETATM   30  N2  UNL     1       1.608  20.559  12.236  1.00  0.00    -0.238 N
HETATM   31  C12 UNL     1       1.753  21.761  13.041  1.00  0.00     0.287 C
HETATM   32  O9  UNL     1       1.934  22.776  12.170  1.00  0.00    -0.329 OA
HETATM   33  C13 UNL     1       2.905  21.494  13.967  1.00  0.00     0.252 C
HETATM   34  C14 UNL     1       3.849  20.405  13.465  1.00  0.00     0.319 C
BRANCH  30  35
HETATM   35  O8  UNL     1       0.463  19.858  12.356  1.00  0.00    -0.286 OA
ATOM     36  H8  UNL     1      -0.326  20.339  12.579  1.00  0.00     0.244 HD
ENDBRANCH  30  35
BRANCH  33  37
HETATM   37  O10 UNL     1       2.500  21.220  15.264  1.00  0.00    -0.242 OA
BRANCH  37  38
HETATM   38  S2  UNL     1       2.671  22.494  16.311  1.00  0.00     0.252 S
HETATM   39  O11 UNL     1       4.065  22.463  16.872  1.00  0.00    -0.572 OA
HETATM   40  O12 UNL     1       2.532  23.830  15.592  1.00  0.00    -0.572 OA
HETATM   41  O13 UNL     1       1.595  22.498  17.561  1.00  0.00    -0.572 OA
ENDBRANCH  37  38
ENDBRANCH  33  37
BRANCH  34  42
HETATM   42  O14 UNL     1       4.807  20.212  14.481  1.00  0.00    -0.221 OA
BRANCH  42  43
HETATM   43  S3  UNL     1       5.471  18.692  14.273  1.00  0.00     0.254 S
HETATM   44  O15 UNL     1       5.903  18.114  15.589  1.00  0.00    -0.572 OA
HETATM   45  O16 UNL     1       4.472  17.730  13.686  1.00  0.00    -0.572 OA
HETATM   46  O17 UNL     1       6.826  18.736  13.287  1.00  0.00    -0.572 OA
ENDBRANCH  42  43
ENDBRANCH  34  42
ENDBRANCH   1  25
TORSDOF 15
ENDMDL