MODEL 2
REMARK VINA RESULT: -7.775771963      5.452      8.741
REMARK  14 active torsions:
REMARK  status: ('A' for Active; 'I' for Inactive)
REMARK    1  A    between atoms: C2_2  and  S1_3
REMARK    2  A    between atoms: S1_3  and  C3_6
REMARK    3  A    between atoms: C4_7  and  O3_8
REMARK    4  A    between atoms: C5_10  and  O4_11
REMARK    5  A    between atoms: C6_13  and  O5_14
REMARK    6  A    between atoms: C7_16  and  C8_17
REMARK    7  A    between atoms: C7_16  and  O8_24
REMARK    8  A    between atoms: C8_17  and  S2_18
REMARK    9  A    between atoms: S2_18  and  N1_19
REMARK   10  A    between atoms: O8_24  and  C9_25
REMARK   11  A    between atoms: C14_33  and  O11_34
REMARK   12  A    between atoms: O11_34  and  S4_35
REMARK   13  A    between atoms: C16_40  and  O15_41
REMARK   14  A    between atoms: C17_43  and  O16_44
ROOT
HETATM    1  C3  UNL     1       4.557  15.207  12.657  1.00  0.00     0.171 C
HETATM    2  C4  UNL     1       4.950  14.062  11.739  1.00  0.00     0.170 C
HETATM    3  C5  UNL     1       3.927  14.107  10.627  1.00  0.00     0.180 C
HETATM    4  C6  UNL     1       2.562  13.930  11.142  1.00  0.00     0.187 C
HETATM    5  C7  UNL     1       2.088  14.856  12.248  1.00  0.00     0.131 C
HETATM    6  C17 UNL     1       3.230  14.905  13.277  1.00  0.00     0.177 C
ENDROOT
BRANCH   5   7
HETATM    7  C8  UNL     1       1.009  14.060  12.933  1.00  0.00     0.206 C
BRANCH   7   8
HETATM    8  S2  UNL     1      -0.613  14.120  12.345  1.00  0.00     0.227 S
HETATM    9  O6  UNL     1      -0.836  14.360  10.911  1.00  0.00    -0.206 OA
HETATM   10  O7  UNL     1      -1.534  14.967  13.210  1.00  0.00    -0.206 OA
BRANCH   8  11
HETATM   11  N1  UNL     1      -1.253  12.481  12.605  1.00  0.00    -0.328 N
ATOM     12  H12 UNL     1      -1.969  12.203  13.277  1.00  0.00     0.168 HD
ATOM     13  H11 UNL     1      -0.748  11.895  11.941  1.00  0.00     0.168 HD
ENDBRANCH   8  11
ENDBRANCH   7   8
ENDBRANCH   5   7
BRANCH   5  14
HETATM   14  O8  UNL     1       1.846  16.107  11.860  1.00  0.00    -0.366 OA
BRANCH  14  15
HETATM   15  C9  UNL     1       1.610  17.167  12.643  1.00  0.00     0.152 C
HETATM   16  C10 UNL     1       0.196  17.716  12.272  1.00  0.00     0.035 C
HETATM   17  C11 UNL     1       0.093  19.045  13.049  1.00  0.00     0.009 C
HETATM   18  C12 UNL     1       0.769  20.014  12.074  1.00  0.00     0.010 C
HETATM   19  C13 UNL     1       0.747  21.446  12.553  1.00  0.00     0.148 C
HETATM   20  C15 UNL     1       2.120  19.534  11.835  1.00  0.00     0.067 C
HETATM   21  S3  UNL     1       2.354  21.636  13.514  1.00  0.00     0.173 S
HETATM   22  O9  UNL     1       1.666  20.889  14.979  1.00  0.00    -0.225 OA
HETATM   23  O10 UNL     1       2.172  23.502  13.330  1.00  0.00    -0.225 OA
HETATM   24  C14 UNL     1       3.155  20.630  12.152  1.00  0.00     0.273 C
HETATM   25  C16 UNL     1       2.552  18.321  12.592  1.00  0.00     0.155 C
BRANCH  24  26
HETATM   26  O11 UNL     1       3.292  21.449  11.010  1.00  0.00    -0.235 OA
BRANCH  26  27
HETATM   27  S4  UNL     1       4.843  21.969  10.783  1.00  0.00     0.252 S
HETATM   28  O12 UNL     1       4.863  23.474  10.982  1.00  0.00    -0.572 OA
HETATM   29  O13 UNL     1       5.297  21.752   9.348  1.00  0.00    -0.572 OA
HETATM   30  O14 UNL     1       5.937  21.324  11.867  1.00  0.00    -0.572 OA
ENDBRANCH  26  27
ENDBRANCH  24  26
BRANCH  25  31
HETATM   31  O15 UNL     1       3.073  18.636  13.866  1.00  0.00    -0.392 OA
ATOM     32  H15 UNL     1       3.577  19.442  13.855  1.00  0.00     0.210 HD
ENDBRANCH  25  31
ENDBRANCH  14  15
ENDBRANCH   5  14
BRANCH   4  33
HETATM   33  O5  UNL     1       2.572  12.629  11.716  1.00  0.00    -0.390 OA
ATOM     34  H5  UNL     1       3.174  12.136  11.169  1.00  0.00     0.210 HD
ENDBRANCH   4  33
BRANCH   6  35
HETATM   35  O16 UNL     1       3.254  13.711  13.965  1.00  0.00    -0.391 OA
ATOM     36  H16 UNL     1       2.841  13.014  13.467  1.00  0.00     0.210 HD
ENDBRANCH   6  35
BRANCH   3  37
HETATM   37  O4  UNL     1       4.152  13.049   9.710  1.00  0.00    -0.390 OA
ATOM     38  H4  UNL     1       3.420  12.972   9.111  1.00  0.00     0.210 HD
ENDBRANCH   3  37
BRANCH   1  39
HETATM   39  S1  UNL     1       5.765  15.602  13.848  1.00  0.00     0.153 S
HETATM   40  O1  UNL     1       7.037  14.806  13.579  1.00  0.00    -0.227 OA
HETATM   41  O2  UNL     1       5.384  15.330  15.251  1.00  0.00    -0.227 OA
BRANCH  39  42
HETATM   42  C2  UNL     1       6.162  17.339  13.725  1.00  0.00     0.136 C
HETATM   43  C1  UNL     1       6.231  17.905  15.132  1.00  0.00     0.021 C
ENDBRANCH  39  42
ENDBRANCH   1  39
BRANCH   2  44
HETATM   44  O3  UNL     1       6.237  14.331  11.268  1.00  0.00    -0.391 OA
ATOM     45  H3  UNL     1       6.390  13.763  10.521  1.00  0.00     0.210 HD
ENDBRANCH   2  44
TORSDOF 14
ENDMDL