MODEL 2
REMARK VINA RESULT: -9.012818692      1.151      2.874
REMARK  17 active torsions:
REMARK  status: ('A' for Active; 'I' for Inactive)
REMARK       I    between atoms: C2_2  and  N1_4
REMARK    1  A    between atoms: N1_4  and  C3_6
REMARK    2  A    between atoms: C4_7  and  O2_8
REMARK    3  A    between atoms: O2_8  and  C5_9
REMARK    4  A    between atoms: C7_13  and  O4_14
REMARK    5  A    between atoms: O4_14  and  C8_15
REMARK    6  A    between atoms: C11_19  and  O6_20
REMARK    7  A    between atoms: O6_20  and  C12_21
REMARK    8  A    between atoms: C14_23  and  O7_24
REMARK    9  A    between atoms: O7_24  and  N2_25
REMARK   10  A    between atoms: C16_29  and  N3_30
REMARK   11  A    between atoms: C19_33  and  O8_34
REMARK   12  A    between atoms: C20_36  and  N4_37
REMARK   13  A    between atoms: C21_41  and  O9_42
REMARK   14  A    between atoms: C22_45  and  C23_46
REMARK   15  A    between atoms: C23_46  and  O11_47
REMARK   16  A    between atoms: C24_49  and  O12_50
REMARK   17  A    between atoms: C25_52  and  O13_53
ROOT
HETATM    1  C5  UNL     1       3.359  17.981  12.016  1.00  0.00     0.167 C
HETATM    2  C6  UNL     1       3.568  18.379  13.514  1.00  0.00     0.146 C
HETATM    3  S1  UNL     1       3.404  20.101  13.753  1.00  0.00     0.049 S
HETATM    4  O3  UNL     1       2.051  20.505  14.663  1.00  0.00    -0.255 OA
HETATM    5  C7  UNL     1       3.722  21.255  12.474  1.00  0.00     0.248 C
HETATM    6  C20 UNL     1       3.551  20.606  11.060  1.00  0.00     0.255 C
HETATM    7  C21 UNL     1       3.461  19.181  11.240  1.00  0.00     0.181 C
ENDROOT
BRANCH   5   8
HETATM    8  O4  UNL     1       2.778  22.256  12.576  1.00  0.00    -0.361 OA
BRANCH   8   9
HETATM    9  C8  UNL     1       2.231  22.685  11.388  1.00  0.00     0.178 C
HETATM   10  C9  UNL     1       0.712  22.478  11.572  1.00  0.00     0.202 C
HETATM   11  O5  UNL     1       0.357  23.410  12.536  1.00  0.00    -0.386 OA
HETATM   12  C10 UNL     1       1.302  24.420  12.566  1.00  0.00     0.202 C
HETATM   13  C11 UNL     1       2.171  24.212  11.330  1.00  0.00     0.176 C
BRANCH  13  14
HETATM   14  O6  UNL     1       3.373  24.831  11.354  1.00  0.00    -0.373 OA
BRANCH  14  15
HETATM   15  C12 UNL     1       3.979  24.702  10.110  1.00  0.00     0.155 C
HETATM   16  C13 UNL     1       3.581  25.871   9.255  1.00  0.00     0.069 C
HETATM   17  C14 UNL     1       4.664  26.550   8.505  1.00  0.00     0.156 C
HETATM   18  C15 UNL     1       5.772  25.708   7.981  1.00  0.00     0.073 C
HETATM   19  C16 UNL     1       5.922  24.439   8.730  1.00  0.00     0.255 C
HETATM   20  C19 UNL     1       5.473  24.618  10.149  1.00  0.00     0.180 C
BRANCH  17  21
HETATM   21  O7  UNL     1       5.228  27.527   9.367  1.00  0.00    -0.282 OA
BRANCH  21  22
HETATM   22  N2  UNL     1       5.168  28.748   8.808  1.00  0.00    -0.311 N
ATOM     23  H22 UNL     1       4.364  29.093   8.284  1.00  0.00     0.184 HD
ATOM     24  H21 UNL     1       6.027  29.269   8.983  1.00  0.00     0.184 HD
ENDBRANCH  21  22
ENDBRANCH  17  21
BRANCH  19  25
HETATM   25  N3  UNL     1       7.211  23.817   8.607  1.00  0.00     0.087 N
HETATM   26  C17 UNL     1       7.124  22.547   7.951  1.00  0.00     0.310 C
HETATM   27  C18 UNL     1       8.267  24.665   8.168  1.00  0.00     0.310 C
ENDBRANCH  19  25
BRANCH  20  28
HETATM   28  O8  UNL     1       5.926  23.585  10.976  1.00  0.00    -0.391 OA
ATOM     29  H8  UNL     1       6.846  23.390  10.839  1.00  0.00     0.210 HD
ENDBRANCH  20  28
ENDBRANCH  14  15
ENDBRANCH  13  14
ENDBRANCH   8   9
ENDBRANCH   5   8
BRANCH   6  30
HETATM   30  N4  UNL     1       4.636  21.065  10.182  1.00  0.00    -0.069 N
ATOM     31  H43 UNL     1       4.804  22.068  10.266  1.00  0.00     0.275 HD
ATOM     32  H42 UNL     1       5.551  20.740  10.494  1.00  0.00     0.275 HD
ATOM     33  H41 UNL     1       4.433  20.786   9.223  1.00  0.00     0.275 HD
ENDBRANCH   6  30
BRANCH   7  34
HETATM   34  O9  UNL     1       4.804  19.298  11.728  1.00  0.00    -0.391 OA
ATOM     35  H9  UNL     1       4.642  20.230  11.814  1.00  0.00     0.210 HD
ENDBRANCH   7  34
BRANCH   1  36
HETATM   36  O2  UNL     1       2.135  17.265  11.964  1.00  0.00    -0.350 OA
BRANCH  36  37
HETATM   37  C4  UNL     1       2.048  16.193  12.780  1.00  0.00     0.286 C
HETATM   38  C3  UNL     1       2.675  14.915  12.215  1.00  0.00     0.170 C
HETATM   39  C25 UNL     1       1.919  14.458  11.007  1.00  0.00     0.177 C
HETATM   40  C24 UNL     1       0.487  14.243  11.440  1.00  0.00     0.180 C
HETATM   41  C22 UNL     1      -0.069  15.343  12.286  1.00  0.00     0.179 C
HETATM   42  O10 UNL     1       0.781  15.887  13.205  1.00  0.00    -0.349 OA
BRANCH  38  43
HETATM   43  N1  UNL     1       4.089  15.016  12.046  1.00  0.00    -0.349 N
HETATM   44  C2  UNL     1       4.976  14.021  12.483  1.00  0.00     0.214 C
HETATM   45  C1  UNL     1       6.444  14.116  12.313  1.00  0.00     0.117 C
HETATM   46  O1  UNL     1       4.496  12.988  13.054  1.00  0.00    -0.274 OA
ATOM     47  H1  UNL     1       4.469  15.845  11.588  1.00  0.00     0.163 HD
ENDBRANCH  38  43
BRANCH  39  48
HETATM   48  O13 UNL     1       2.043  15.290   9.922  1.00  0.00    -0.391 OA
ATOM     49  H13 UNL     1       1.250  15.373   9.407  1.00  0.00     0.210 HD
ENDBRANCH  39  48
BRANCH  40  50
HETATM   50  O12 UNL     1       0.356  13.030  12.116  1.00  0.00    -0.390 OA
ATOM     51  H12 UNL     1       0.067  12.361  11.506  1.00  0.00     0.210 HD
ENDBRANCH  40  50
BRANCH  41  52
HETATM   52  C23 UNL     1      -0.778  16.403  11.444  1.00  0.00     0.198 C
BRANCH  52  53
HETATM   53  O11 UNL     1      -1.821  15.817  10.709  1.00  0.00    -0.398 OA
ATOM     54  H11 UNL     1      -2.566  16.406  10.671  1.00  0.00     0.209 HD
ENDBRANCH  52  53
ENDBRANCH  41  52
ENDBRANCH  36  37
ENDBRANCH   1  36
TORSDOF 17
ENDMDL