MODEL 3
REMARK VINA RESULT: -7.068189398      1.448      2.266
REMARK  13 active torsions:
REMARK  status: ('A' for Active; 'I' for Inactive)
REMARK    1  A    between atoms: N1_1  and  S1_4
REMARK    2  A    between atoms: C2_10  and  O3_11
REMARK    3  A    between atoms: C3_13  and  O4_14
REMARK    4  A    between atoms: O4_14  and  C4_15
REMARK    5  A    between atoms: C5_16  and  N3_17
REMARK    6  A    between atoms: C6_21  and  O5_22
REMARK    7  A    between atoms: O5_22  and  S2_23
REMARK    8  A    between atoms: C7_27  and  O9_28
REMARK    9  A    between atoms: O9_28  and  S3_29
REMARK   10  A    between atoms: C8_32  and  O12_33
REMARK   11  A    between atoms: O12_33  and  S4_34
REMARK   12  A    between atoms: C9_38  and  O16_39
REMARK   13  A    between atoms: O16_39  and  S5_40
ROOT
HETATM    1  C4  UNL     1       4.091  20.748  12.411  1.00  0.00     0.190 C
HETATM    2  C5  UNL     1       4.321  21.469  11.107  1.00  0.00     0.247 C
HETATM    3  C6  UNL     1       3.491  22.670  10.861  1.00  0.00     0.211 C
HETATM    4  C7  UNL     1       2.088  22.606  11.401  1.00  0.00     0.209 C
HETATM    5  C8  UNL     1       2.218  22.297  12.879  1.00  0.00     0.211 C
HETATM    6  C9  UNL     1       2.654  20.832  12.889  1.00  0.00     0.209 C
ENDROOT
BRANCH   1   7
HETATM    7  O4  UNL     1       4.411  19.480  12.250  1.00  0.00    -0.353 OA
BRANCH   7   8
HETATM    8  C3  UNL     1       4.553  18.567  13.196  1.00  0.00     0.269 C
HETATM    9  C2  UNL     1       5.851  18.349  13.864  1.00  0.00     0.260 C
HETATM   10  C1  UNL     1       5.591  17.656  15.175  1.00  0.00     0.264 C
HETATM   11  N2  UNL     1       4.705  16.541  15.162  1.00  0.00    -0.253 N
HETATM   12  O2  UNL     1       6.111  18.014  16.248  1.00  0.00    -0.269 OA
HETATM   13  S1  UNL     1       4.186  15.986  13.624  1.00  0.00     0.197 S
ATOM     14  H2  UNL     1       4.395  16.093  16.024  1.00  0.00     0.181 HD
HETATM   15  O1  UNL     1       5.173  14.912  13.191  1.00  0.00    -0.206 OA
HETATM   16  N4  UNL     1       4.201  17.307  12.541  1.00  0.00    -0.289 N
ATOM     17  H4  UNL     1       3.987  17.225  11.547  1.00  0.00     0.175 HD
BRANCH   9  18
HETATM   18  O3  UNL     1       6.612  19.435  14.141  1.00  0.00    -0.382 OA
ATOM     19  H3  UNL     1       6.823  19.841  13.309  1.00  0.00     0.210 HD
ENDBRANCH   9  18
BRANCH  13  20
HETATM   20  N1  UNL     1       2.797  15.338  13.642  1.00  0.00    -0.328 N
ATOM     21  H12 UNL     1       2.175  15.240  12.840  1.00  0.00     0.168 HD
ATOM     22  H11 UNL     1       2.624  15.030  14.599  1.00  0.00     0.168 HD
ENDBRANCH  13  20
ENDBRANCH   7   8
ENDBRANCH   1   7
BRANCH   2  23
HETATM   23  N3  UNL     1       4.156  20.562   9.972  1.00  0.00    -0.070 N
ATOM     24  H33 UNL     1       3.187  20.256   9.873  1.00  0.00     0.274 HD
ATOM     25  H32 UNL     1       4.255  21.051   9.083  1.00  0.00     0.274 HD
ATOM     26  H31 UNL     1       4.796  19.771  10.041  1.00  0.00     0.274 HD
ENDBRANCH   2  23
BRANCH   6  27
HETATM   27  O16 UNL     1       1.785  20.041  12.172  1.00  0.00    -0.246 OA
BRANCH  27  28
HETATM   28  S5  UNL     1       0.871  19.026  13.149  1.00  0.00     0.252 S
HETATM   29  O17 UNL     1      -0.595  19.345  13.074  1.00  0.00    -0.572 OA
HETATM   30  O18 UNL     1       1.045  17.579  12.775  1.00  0.00    -0.572 OA
HETATM   31  O19 UNL     1       1.453  19.205  14.722  1.00  0.00    -0.572 OA
ENDBRANCH  27  28
ENDBRANCH   6  27
BRANCH   3  32
HETATM   32  O5  UNL     1       4.089  23.803  11.407  1.00  0.00    -0.247 OA
BRANCH  32  33
HETATM   33  S2  UNL     1       4.697  24.785  10.216  1.00  0.00     0.252 S
HETATM   34  O6  UNL     1       4.489  26.239  10.605  1.00  0.00    -0.572 OA
HETATM   35  O7  UNL     1       6.151  24.591   9.969  1.00  0.00    -0.572 OA
HETATM   36  O8  UNL     1       3.884  24.443   8.787  1.00  0.00    -0.572 OA
ENDBRANCH  32  33
ENDBRANCH   3  32
BRANCH   5  37
HETATM   37  O12 UNL     1       1.060  22.506  13.579  1.00  0.00    -0.246 OA
BRANCH  37  38
HETATM   38  S4  UNL     1       1.421  23.478  14.906  1.00  0.00     0.252 S
HETATM   39  O13 UNL     1       1.504  24.908  14.456  1.00  0.00    -0.572 OA
HETATM   40  O14 UNL     1       0.347  23.404  15.955  1.00  0.00    -0.572 OA
HETATM   41  O15 UNL     1       2.904  23.052  15.560  1.00  0.00    -0.572 OA
ENDBRANCH  37  38
ENDBRANCH   5  37
BRANCH   4  42
HETATM   42  O9  UNL     1       1.457  23.802  11.151  1.00  0.00    -0.252 OA
BRANCH  42  43
HETATM   43  S3  UNL     1      -0.064  23.646  10.446  1.00  0.00     0.401 S
HETATM   44  O10 UNL     1       0.095  23.682   8.933  1.00  0.00    -0.179 OA
HETATM   45  O11 UNL     1      -0.911  22.282  10.977  1.00  0.00    -0.179 OA
ENDBRANCH  42  43
ENDBRANCH   4  42
TORSDOF 13
ENDMDL