MODEL 4
REMARK VINA RESULT: -5.407605650      1.988      4.426
REMARK  9 active torsions:
REMARK  status: ('A' for Active; 'I' for Inactive)
REMARK    1  A    between atoms: C2_2  and  C3_3
REMARK    2  A    between atoms: C3_3  and  C4_4
REMARK    3  A    between atoms: C4_4  and  C5_5
REMARK    4  A    between atoms: C5_5  and  O1_6
REMARK    5  A    between atoms: C5_5  and  C6_8
REMARK    6  A    between atoms: C6_8  and  C7_9
REMARK    7  A    between atoms: C7_9  and  C8_10
REMARK    8  A    between atoms: C8_10  and  C9_11
REMARK    9  A    between atoms: C14_17  and  O3_18
ROOT
HETATM    1  C6  UNL     1     -52.260  24.045 -32.460  1.00  0.00     0.120 C
HETATM    2  O2  UNL     1     -52.861  22.744 -32.556  1.00  0.00    -0.337 OA
HETATM    3  C11 UNL     1     -53.926  22.490 -33.408  1.00  0.00     0.079 C
HETATM    4  C12 UNL     1     -54.003  23.124 -34.546  1.00  0.00     0.078 C
HETATM    5  C13 UNL     1     -52.916  24.105 -34.872  1.00  0.00     0.103 C
HETATM    6  C14 UNL     1     -52.466  24.874 -33.664  1.00  0.00     0.182 C
HETATM    7  O4  UNL     1     -55.145  22.735 -35.263  1.00  0.00    -0.352 OA
HETATM    8  C15 UNL     1     -55.999  22.058 -34.363  1.00  0.00     0.182 C
HETATM    9  C16 UNL     1     -55.079  21.566 -33.261  1.00  0.00     0.094 C
ENDROOT
BRANCH   1  10
HETATM   10  C5  UNL     1     -52.700  24.619 -31.150  1.00  0.00     0.155 C
BRANCH  10  11
HETATM   11  C4  UNL     1     -54.092  24.136 -30.717  1.00  0.00     0.035 C
BRANCH  11  12
HETATM   12  C3  UNL     1     -54.114  24.080 -29.183  1.00  0.00     0.002 C
BRANCH  12  13
HETATM   13  C2  UNL     1     -55.539  23.910 -28.694  1.00  0.00    -0.004 C
HETATM   14  C1  UNL     1     -55.529  23.157 -27.393  1.00  0.00     0.005 C
ENDBRANCH  12  13
ENDBRANCH  11  12
ENDBRANCH  10  11
BRANCH  10  15
HETATM   15  O1  UNL     1     -51.887  24.191 -30.092  1.00  0.00    -0.392 OA
ATOM     16  H1  UNL     1     -51.156  24.796 -30.137  1.00  0.00     0.210 HD
ENDBRANCH  10  15
ENDBRANCH   1  10
BRANCH   1  17
HETATM   17  C7  UNL     1     -50.765  23.691 -32.299  1.00  0.00     0.044 C
BRANCH  17  18
HETATM   18  C8  UNL     1     -50.535  22.229 -32.221  1.00  0.00     0.003 C
BRANCH  18  19
HETATM   19  C9  UNL     1     -49.069  21.860 -32.315  1.00  0.00    -0.004 C
HETATM   20  C10 UNL     1     -48.526  21.818 -30.898  1.00  0.00     0.005 C
ENDBRANCH  18  19
ENDBRANCH  17  18
ENDBRANCH   1  17
BRANCH   6  21
HETATM   21  O3  UNL     1     -53.230  25.976 -33.389  1.00  0.00    -0.299 OA
HETATM   22  S1  UNL     1     -54.364  26.406 -34.566  1.00  0.00     0.093 SA
ENDBRANCH   6  21
TORSDOF 9
ENDMDL