MODEL 5
REMARK VINA RESULT: -6.806627616      1.005      1.301
REMARK  8 active torsions:
REMARK  status: ('A' for Active; 'I' for Inactive)
REMARK    1  A    between atoms: C2_2  and  C3_3
REMARK    2  A    between atoms: C3_3  and  C4_4
REMARK    3  A    between atoms: C4_4  and  C5_5
REMARK    4  A    between atoms: C5_5  and  C6_6
REMARK    5  A    between atoms: C6_6  and  C7_7
REMARK    6  A    between atoms: C11_15  and  N3_16
REMARK    7  A    between atoms: N5_22  and  C13_23
REMARK    8  A    between atoms: C13_23  and  C14_24
ROOT
HETATM    1  C7  UNL     1     -52.426  23.778 -33.592  1.00  0.00     0.085 A
HETATM    2  N1  UNL     1     -51.244  23.140 -33.796  1.00  0.00    -0.341 N
ATOM      3  H1  UNL     1     -50.947  22.740 -34.686  1.00  0.00     0.167 HD
HETATM    4  C8  UNL     1     -50.525  23.109 -32.669  1.00  0.00     0.102 A
HETATM    5  C9  UNL     1     -49.286  22.588 -32.360  1.00  0.00     0.053 A
HETATM    6  C10 UNL     1     -48.437  21.890 -33.338  1.00  0.00     0.071 C
HETATM    7  N2  UNL     1     -48.836  22.729 -31.096  1.00  0.00    -0.194 N
ATOM      8  H2  UNL     1     -47.922  22.353 -30.843  1.00  0.00     0.184 HD
HETATM    9  C11 UNL     1     -49.575  23.359 -30.165  1.00  0.00     0.677 A
HETATM   10  N4  UNL     1     -50.779  23.856 -30.495  1.00  0.00    -0.174 N
ATOM     11  H4  UNL     1     -51.324  24.330 -29.774  1.00  0.00     0.186 HD
HETATM   12  C12 UNL     1     -51.296  23.757 -31.731  1.00  0.00     0.153 A
HETATM   13  N5  UNL     1     -52.468  24.165 -32.320  1.00  0.00    -0.318 N
ENDROOT
BRANCH   1  14
HETATM   14  C6  UNL     1     -53.438  23.925 -34.671  1.00  0.00     0.076 C
BRANCH  14  15
HETATM   15  C5  UNL     1     -53.724  22.540 -35.263  1.00  0.00     0.007 C
BRANCH  15  16
HETATM   16  C4  UNL     1     -53.438  22.463 -36.733  1.00  0.00     0.000 C
BRANCH  16  17
HETATM   17  C3  UNL     1     -53.774  21.113 -37.264  1.00  0.00    -0.000 C
BRANCH  17  18
HETATM   18  C2  UNL     1     -54.734  20.359 -36.361  1.00  0.00    -0.005 C
HETATM   19  C1  UNL     1     -54.623  18.864 -36.579  1.00  0.00     0.005 C
ENDBRANCH  17  18
ENDBRANCH  16  17
ENDBRANCH  15  16
ENDBRANCH  14  15
ENDBRANCH   1  14
BRANCH  13  20
HETATM   20  C13 UNL     1     -53.475  24.912 -31.616  1.00  0.00     0.164 C
BRANCH  20  21
HETATM   21  C14 UNL     1     -54.345  24.120 -30.723  1.00  0.00     0.140 C
HETATM   22  C15 UNL     1     -54.045  24.204 -29.251  1.00  0.00     0.035 C
HETATM   23  C16 UNL     1     -55.387  23.795 -28.636  1.00  0.00     0.029 C
HETATM   24  C17 UNL     1     -56.319  23.858 -29.792  1.00  0.00     0.168 C
HETATM   25  O1  UNL     1     -55.687  24.568 -30.785  1.00  0.00    -0.384 OA
ENDBRANCH  20  21
ENDBRANCH  13  20
BRANCH   9  26
HETATM   26  N3  UNL     1     -49.083  23.458 -28.975  1.00  0.00    -0.234 N
ATOM     27  H32 UNL     1     -48.787  22.645 -28.434  1.00  0.00     0.174 HD
ATOM     28  H31 UNL     1     -48.995  24.392 -28.575  1.00  0.00     0.174 HD
ENDBRANCH   9  26
TORSDOF 8
ENDMDL