MODEL 2
REMARK VINA RESULT: -6.380510476      1.851      6.384
REMARK  11 active torsions:
REMARK  status: ('A' for Active; 'I' for Inactive)
REMARK    1  A    between atoms: C2_2  and  C3_3
REMARK    2  A    between atoms: C3_3  and  C4_4
REMARK    3  A    between atoms: C4_4  and  C5_5
REMARK    4  A    between atoms: C4_4  and  O3_20
REMARK    5  A    between atoms: C6_6  and  C7_7
REMARK    6  A    between atoms: C8_8  and  O1_9
REMARK    7  A    between atoms: C10_12  and  O2_13
REMARK    8  A    between atoms: C11_15  and  C12_16
REMARK    9  A    between atoms: O3_20  and  C16_21
REMARK   10  A    between atoms: C16_21  and  O5_23
REMARK   11  A    between atoms: O5_23  and  C17_24
ROOT
HETATM    1  C7  UNL     1     -55.058  23.975 -28.685  1.00  0.00     0.047 C
HETATM    2  C8  UNL     1     -55.403  24.874 -27.506  1.00  0.00     0.129 C
HETATM    3  C9  UNL     1     -56.930  24.897 -27.594  1.00  0.00     0.065 C
HETATM    4  C10 UNL     1     -57.097  25.203 -29.065  1.00  0.00     0.129 C
HETATM    5  C11 UNL     1     -56.079  24.321 -29.735  1.00  0.00     0.047 C
ENDROOT
BRANCH   1   6
HETATM    6  C6  UNL     1     -53.662  24.109 -29.119  1.00  0.00    -0.020 C
HETATM    7  C5  UNL     1     -53.348  24.147 -30.391  1.00  0.00     0.002 C
BRANCH   7   8
HETATM    8  C4  UNL     1     -51.957  24.281 -30.901  1.00  0.00     0.160 C
BRANCH   8   9
HETATM    9  C3  UNL     1     -52.048  24.795 -32.319  1.00  0.00     0.063 C
BRANCH   9  10
HETATM   10  C2  UNL     1     -51.894  23.601 -33.227  1.00  0.00    -0.034 C
HETATM   11  C1  UNL     1     -52.722  23.414 -34.234  1.00  0.00     0.007 C
ENDBRANCH   9  10
ENDBRANCH   8   9
BRANCH   8  12
HETATM   12  O3  UNL     1     -51.225  23.092 -30.800  1.00  0.00    -0.288 OA
BRANCH  12  13
HETATM   13  C16 UNL     1     -50.105  23.028 -29.983  1.00  0.00     0.407 C
HETATM   14  O4  UNL     1     -49.718  24.092 -29.391  1.00  0.00    -0.229 OA
BRANCH  13  15
HETATM   15  O5  UNL     1     -49.376  21.884 -29.768  1.00  0.00    -0.298 OA
BRANCH  15  16
HETATM   16  C17 UNL     1     -48.212  21.629 -30.568  1.00  0.00     0.176 C
HETATM   17  C18 UNL     1     -48.500  21.765 -32.024  1.00  0.00     0.034 C
ENDBRANCH  15  16
ENDBRANCH  13  15
ENDBRANCH  12  13
ENDBRANCH   8  12
ENDBRANCH   7   8
ENDBRANCH   1   6
BRANCH   2  18
HETATM   18  O1  UNL     1     -54.929  24.334 -26.343  1.00  0.00    -0.395 OA
ATOM     19  H1  UNL     1     -55.411  24.677 -25.600  1.00  0.00     0.210 HD
ENDBRANCH   2  18
BRANCH   5  20
HETATM   20  C12 UNL     1     -56.807  23.092 -30.189  1.00  0.00    -0.017 C
HETATM   21  C13 UNL     1     -56.807  22.728 -31.464  1.00  0.00    -0.091 C
HETATM   22  C14 UNL     1     -56.065  23.567 -32.435  1.00  0.00     0.042 C
HETATM   23  C15 UNL     1     -57.519  21.516 -31.940  1.00  0.00     0.042 C
ENDBRANCH   5  20
BRANCH   4  24
HETATM   24  O2  UNL     1     -58.396  24.909 -29.506  1.00  0.00    -0.395 OA
ATOM     25  H2  UNL     1     -58.577  25.314 -30.345  1.00  0.00     0.210 HD
ENDBRANCH   4  24
TORSDOF 11
ENDMDL