MODEL 3
REMARK VINA RESULT: -7.516625340      1.014      1.627
REMARK  11 active torsions:
REMARK  status: ('A' for Active; 'I' for Inactive)
REMARK    1  A    between atoms: O1_2  and  C2_3
REMARK    2  A    between atoms: C2_3  and  C3_7
REMARK    3  A    between atoms: C4_8  and  C5_9
REMARK    4  A    between atoms: C5_9  and  C7_11
REMARK    5  A    between atoms: C7_11  and  C8_12
REMARK    6  A    between atoms: C8_12  and  O2_13
REMARK    7  A    between atoms: C8_12  and  C9_15
REMARK    8  A    between atoms: C9_15  and  O3_16
REMARK    9  A    between atoms: C9_15  and  C10_18
REMARK   10  A    between atoms: C10_18  and  C11_20
REMARK   11  A    between atoms: C12_21  and  C13_22
ROOT
HETATM    1  C8  UNL     1     -52.248  24.525 -32.886  1.00  0.00     0.080 C
ENDROOT
BRANCH   1   2
HETATM    2  C7  UNL     1     -51.451  24.373 -31.734  1.00  0.00     0.042 C
BRANCH   2   3
HETATM    3  C5  UNL     1     -51.563  24.086 -30.472  1.00  0.00    -0.059 C
HETATM    4  C6  UNL     1     -52.986  24.089 -29.954  1.00  0.00     0.048 C
BRANCH   3   5
HETATM    5  C4  UNL     1     -50.502  23.780 -29.586  1.00  0.00     0.011 C
HETATM    6  C3  UNL     1     -49.436  23.062 -29.561  1.00  0.00     0.056 C
BRANCH   6   7
HETATM    7  C2  UNL     1     -48.691  22.170 -30.371  1.00  0.00     0.135 C
HETATM    8  N1  UNL     1     -47.516  21.847 -30.362  1.00  0.00    -0.380 N
ATOM      9  H12 UNL     1     -46.980  21.205 -30.945  1.00  0.00     0.158 HD
ATOM     10  H11 UNL     1     -46.989  22.318 -29.627  1.00  0.00     0.158 HD
BRANCH   7  11
HETATM   11  O1  UNL     1     -49.449  21.493 -31.428  1.00  0.00    -0.341 OA
HETATM   12  C1  UNL     1     -49.053  21.758 -32.766  1.00  0.00     0.211 C
ENDBRANCH   7  11
ENDBRANCH   6   7
ENDBRANCH   3   5
ENDBRANCH   2   3
ENDBRANCH   1   2
BRANCH   1  13
HETATM   13  O2  UNL     1     -53.082  25.573 -32.853  1.00  0.00    -0.362 OA
ATOM     14  H2  UNL     1     -52.816  26.307 -33.396  1.00  0.00     0.217 HD
ENDBRANCH   1  13
BRANCH   1  15
HETATM   15  C9  UNL     1     -52.321  23.741 -34.106  1.00  0.00     0.248 C
BRANCH  15  16
HETATM   16  O3  UNL     1     -52.282  24.523 -35.231  1.00  0.00    -0.381 OA
ATOM     17  H3  UNL     1     -52.191  24.009 -36.024  1.00  0.00     0.211 HD
ENDBRANCH  15  16
BRANCH  15  18
HETATM   18  C10 UNL     1     -53.617  22.888 -34.125  1.00  0.00     0.184 C
HETATM   19  O4  UNL     1     -54.131  22.677 -33.030  1.00  0.00    -0.290 OA
BRANCH  18  20
HETATM   20  C11 UNL     1     -54.096  22.430 -35.377  1.00  0.00     0.054 C
HETATM   21  C12 UNL     1     -54.747  21.423 -35.771  1.00  0.00     0.010 C
BRANCH  21  22
HETATM   22  C13 UNL     1     -55.358  20.231 -35.290  1.00  0.00    -0.062 C
HETATM   23  C14 UNL     1     -54.939  19.010 -35.785  1.00  0.00    -0.020 C
HETATM   24  C15 UNL     1     -55.568  17.768 -35.290  1.00  0.00     0.027 C
HETATM   25  C16 UNL     1     -55.639  17.734 -33.778  1.00  0.00     0.004 C
HETATM   26  C17 UNL     1     -55.867  19.113 -33.211  1.00  0.00     0.005 C
HETATM   27  C18 UNL     1     -56.412  20.056 -34.299  1.00  0.00     0.038 C
ENDBRANCH  21  22
ENDBRANCH  18  20
ENDBRANCH  15  18
ENDBRANCH   1  15
TORSDOF 11
ENDMDL