MODEL 1
REMARK VINA RESULT: -6.721226600      0.000      0.000
REMARK  10 active torsions:
REMARK  status: ('A' for Active; 'I' for Inactive)
REMARK    1  A    between atoms: C3_3  and  C4_4
REMARK    2  A    between atoms: C4_4  and  O1_5
REMARK    3  A    between atoms: C4_4  and  S1_7
REMARK    4  A    between atoms: S1_7  and  C5_8
REMARK    5  A    between atoms: S1_7  and  C8_12
REMARK    6  A    between atoms: C5_8  and  C6_9
REMARK    7  A    between atoms: C6_9  and  C7_10
REMARK    8  A    between atoms: C8_12  and  C9_13
REMARK    9  A    between atoms: C14_19  and  O4_20
REMARK   10  A    between atoms: C15_22  and  O5_23
ROOT
HETATM    1  C4  UNL     1     -51.562  24.488 -31.930  1.00  0.00     0.228 C
ENDROOT
BRANCH   1   2
HETATM    2  C3  UNL     1     -50.363  23.615 -31.938  1.00  0.00     0.102 A
HETATM    3  C2  UNL     1     -49.662  23.262 -30.765  1.00  0.00     0.009 A
HETATM    4  C1  UNL     1     -50.017  23.703 -29.394  1.00  0.00     0.054 C
HETATM    5  C15 UNL     1     -48.606  22.452 -31.106  1.00  0.00     0.133 A
HETATM    6  C14 UNL     1     -48.691  22.331 -32.476  1.00  0.00     0.218 A
HETATM    7  O3  UNL     1     -49.719  23.020 -32.898  1.00  0.00    -0.286 OA
BRANCH   5   8
HETATM    8  O5  UNL     1     -47.666  21.882 -30.256  1.00  0.00    -0.356 OA
ATOM      9  H5  UNL     1     -47.041  21.196 -30.460  1.00  0.00     0.218 HD
ENDBRANCH   5   8
BRANCH   6  10
HETATM   10  O4  UNL     1     -47.825  21.596 -33.283  1.00  0.00    -0.339 OA
ATOM     11  H4  UNL     1     -47.061  21.941 -33.730  1.00  0.00     0.220 HD
ENDBRANCH   6  10
ENDBRANCH   1   2
BRANCH   1  12
HETATM   12  O1  UNL     1     -51.497  25.350 -33.011  1.00  0.00    -0.379 OA
ATOM     13  H1  UNL     1     -51.135  26.180 -32.722  1.00  0.00     0.211 HD
ENDBRANCH   1  12
BRANCH   1  14
HETATM   14  S1  UNL     1     -53.009  23.600 -31.739  1.00  0.00    -0.184 SA
BRANCH  14  15
HETATM   15  C5  UNL     1     -53.557  22.683 -33.128  1.00  0.00     0.073 C
BRANCH  15  16
HETATM   16  C6  UNL     1     -54.296  23.539 -34.100  1.00  0.00     0.079 C
BRANCH  16  17
HETATM   17  C7  UNL     1     -53.520  23.651 -35.389  1.00  0.00     0.231 C
HETATM   18  O2  UNL     1     -52.595  24.415 -35.461  1.00  0.00    -0.307 OA
ENDBRANCH  16  17
ENDBRANCH  15  16
ENDBRANCH  14  15
BRANCH  14  19
HETATM   19  C8  UNL     1     -54.307  24.418 -30.896  1.00  0.00     0.070 C
BRANCH  19  20
HETATM   20  C9  UNL     1     -54.573  23.845 -29.519  1.00  0.00    -0.006 C
HETATM   21  C10 UNL     1     -55.867  24.507 -29.029  1.00  0.00     0.005 C
HETATM   22  C11 UNL     1     -55.816  24.422 -27.537  1.00  0.00     0.000 C
HETATM   23  C12 UNL     1     -54.358  24.459 -27.183  1.00  0.00     0.000 C
HETATM   24  C13 UNL     1     -53.588  24.368 -28.490  1.00  0.00     0.005 C
ENDBRANCH  19  20
ENDBRANCH  14  19
ENDBRANCH   1  14
TORSDOF 10
ENDMDL