MODEL 1
REMARK VINA RESULT: -5.970964534      0.000      0.000
REMARK  8 active torsions:
REMARK  status: ('A' for Active; 'I' for Inactive)
REMARK    1  A    between atoms: C2_2  and  C3_3
REMARK    2  A    between atoms: C3_3  and  C4_4
REMARK    3  A    between atoms: C8_13  and  O1_14
REMARK    4  A    between atoms: O1_14  and  C9_15
REMARK    5  A    between atoms: C9_15  and  C10_16
REMARK    6  A    between atoms: C10_16  and  O2_17
REMARK    7  A    between atoms: C10_16  and  C11_19
REMARK    8  A    between atoms: C11_19  and  N3_20
ROOT
HETATM    1  C4  UNL     1     -51.752  23.786 -30.773  1.00  0.00     0.020 A
HETATM    2  S1  UNL     1     -50.364  23.547 -29.821  1.00  0.00    -0.072 SA
HETATM    3  C5  UNL     1     -49.353  22.797 -30.969  1.00  0.00     0.105 A
HETATM    4  N1  UNL     1     -48.133  22.248 -31.210  1.00  0.00    -0.345 N
ATOM      5  H1  UNL     1     -47.365  22.160 -30.544  1.00  0.00     0.167 HD
HETATM    6  C6  UNL     1     -48.129  21.847 -32.486  1.00  0.00     0.182 A
HETATM    7  N2  UNL     1     -49.319  22.144 -33.009  1.00  0.00    -0.348 N
ATOM      8  H2  UNL     1     -49.590  21.946 -33.973  1.00  0.00     0.167 HD
HETATM    9  C7  UNL     1     -50.133  22.750 -32.079  1.00  0.00     0.102 A
HETATM   10  C8  UNL     1     -51.390  23.264 -31.994  1.00  0.00     0.111 A
ENDROOT
BRANCH  10  11
HETATM   11  O1  UNL     1     -52.290  23.276 -33.052  1.00  0.00    -0.345 OA
BRANCH  11  12
HETATM   12  C9  UNL     1     -52.301  23.829 -34.279  1.00  0.00     0.209 C
BRANCH  12  13
HETATM   13  C10 UNL     1     -53.485  24.555 -34.799  1.00  0.00     0.160 C
BRANCH  13  14
HETATM   14  O2  UNL     1     -53.374  25.040 -36.094  1.00  0.00    -0.392 OA
ATOM     15  H2  UNL     1     -52.538  25.431 -36.318  1.00  0.00     0.210 HD
ENDBRANCH  13  14
BRANCH  13  16
HETATM   16  C11 UNL     1     -54.131  25.509 -33.827  1.00  0.00     0.155 C
BRANCH  16  17
HETATM   17  N3  UNL     1     -55.320  25.007 -33.244  1.00  0.00    -0.391 N
HETATM   18  C12 UNL     1     -55.787  23.736 -33.620  1.00  0.00     0.122 C
HETATM   19  C13 UNL     1     -55.859  22.897 -32.333  1.00  0.00     0.020 C
HETATM   20  C14 UNL     1     -56.998  23.508 -31.547  1.00  0.00     0.007 C
HETATM   21  C15 UNL     1     -56.913  24.983 -31.377  1.00  0.00     0.044 C
HETATM   22  C16 UNL     1     -55.944  25.714 -32.228  1.00  0.00     0.058 C
ENDBRANCH  16  17
ENDBRANCH  13  16
ENDBRANCH  12  13
ENDBRANCH  11  12
ENDBRANCH  10  11
BRANCH   1  23
HETATM   23  C3  UNL     1     -53.073  24.421 -30.407  1.00  0.00     0.049 C
BRANCH  23  24
HETATM   24  C2  UNL     1     -53.307  24.204 -28.925  1.00  0.00     0.001 C
HETATM   25  C1  UNL     1     -54.764  24.028 -28.579  1.00  0.00     0.005 C
ENDBRANCH  23  24
ENDBRANCH   1  23
TORSDOF 8
ENDMDL