MODEL 4
REMARK VINA RESULT: -5.727365246      3.778      6.190
REMARK  10 active torsions:
REMARK  status: ('A' for Active; 'I' for Inactive)
REMARK    1  A    between atoms: C2_2  and  C3_3
REMARK    2  A    between atoms: C3_3  and  C4_4
REMARK    3  A    between atoms: C4_4  and  C5_5
REMARK    4  A    between atoms: C5_5  and  C6_6
REMARK    5  A    between atoms: C6_6  and  C7_7
REMARK    6  A    between atoms: C7_7  and  C8_8
REMARK    7  A    between atoms: C8_8  and  N1_9
REMARK    8  A    between atoms: C9_10  and  O1_11
REMARK    9  A    between atoms: C12_15  and  O2_16
REMARK   10  A    between atoms: C13_18  and  N2_19
ROOT
HETATM    1  N1  UNL     1     -53.366  24.779 -32.256  1.00  0.00    -0.307 N
HETATM    2  C9  UNL     1     -52.265  24.598 -32.996  1.00  0.00     0.152 A
HETATM    3  C10 UNL     1     -51.265  24.171 -32.167  1.00  0.00     0.023 A
HETATM    4  C11 UNL     1     -51.747  24.081 -30.869  1.00  0.00     0.049 A
HETATM    5  C12 UNL     1     -53.086  24.475 -30.955  1.00  0.00     0.157 A
HETATM    6  C13 UNL     1     -50.938  23.654 -29.748  1.00  0.00     0.032 C
HETATM    7  C14 UNL     1     -49.840  22.682 -29.843  1.00  0.00     0.198 C
HETATM    8  S1  UNL     1     -49.288  22.437 -31.507  1.00  0.00     0.153 S
HETATM    9  O3  UNL     1     -49.758  21.133 -32.065  1.00  0.00    -0.227 OA
HETATM   10  O4  UNL     1     -47.772  22.464 -31.548  1.00  0.00    -0.227 OA
HETATM   11  C15 UNL     1     -49.856  23.826 -32.451  1.00  0.00     0.184 C
ENDROOT
BRANCH   1  12
HETATM   12  C8  UNL     1     -54.653  25.227 -32.742  1.00  0.00     0.133 C
BRANCH  12  13
HETATM   13  C7  UNL     1     -55.255  24.094 -33.538  1.00  0.00     0.020 C
BRANCH  13  14
HETATM   14  C6  UNL     1     -55.635  22.926 -32.649  1.00  0.00     0.002 C
BRANCH  14  15
HETATM   15  C5  UNL     1     -55.254  21.622 -33.280  1.00  0.00     0.000 C
BRANCH  15  16
HETATM   16  C4  UNL     1     -54.596  21.884 -34.608  1.00  0.00     0.000 C
BRANCH  16  17
HETATM   17  C3  UNL     1     -54.959  20.829 -35.628  1.00  0.00    -0.000 C
BRANCH  17  18
HETATM   18  C2  UNL     1     -54.210  21.052 -36.932  1.00  0.00    -0.005 C
HETATM   19  C1  UNL     1     -53.448  22.357 -36.802  1.00  0.00     0.005 C
ENDBRANCH  17  18
ENDBRANCH  16  17
ENDBRANCH  15  16
ENDBRANCH  14  15
ENDBRANCH  13  14
ENDBRANCH  12  13
ENDBRANCH   1  12
BRANCH   2  20
HETATM   20  O1  UNL     1     -52.184  24.811 -34.357  1.00  0.00    -0.345 OA
ATOM     21  H1  UNL     1     -51.868  24.177 -34.989  1.00  0.00     0.219 HD
ENDBRANCH   2  20
BRANCH   5  22
HETATM   22  O2  UNL     1     -53.987  24.546 -29.902  1.00  0.00    -0.345 OA
ATOM     23  H2  UNL     1     -53.754  24.617 -28.984  1.00  0.00     0.219 HD
ENDBRANCH   5  22
BRANCH   6  24
HETATM   24  N2  UNL     1     -51.198  24.156 -28.592  1.00  0.00    -0.401 N
ATOM     25  H22 UNL     1     -50.947  25.132 -28.428  1.00  0.00     0.156 HD
ATOM     26  H21 UNL     1     -51.641  23.553 -27.899  1.00  0.00     0.156 HD
ENDBRANCH   6  24
TORSDOF 10
ENDMDL