MODEL 3
REMARK VINA RESULT: -6.663407026      3.025      5.930
REMARK  7 active torsions:
REMARK  status: ('A' for Active; 'I' for Inactive)
REMARK    1  A    between atoms: C2_2  and  C3_3
REMARK    2  A    between atoms: C8_11  and  N2_12
REMARK    3  A    between atoms: C10_17  and  C11_18
REMARK    4  A    between atoms: C11_18  and  C12_19
REMARK    5  A    between atoms: C12_19  and  C13_20
REMARK    6  A    between atoms: C13_20  and  N3_21
REMARK    7  A    between atoms: N3_21  and  C14_23
ROOT
HETATM    1  C3  UNL     1     -54.464  23.874 -32.333  1.00  0.00     0.021 A
HETATM    2  N1  UNL     1     -54.260  24.260 -31.041  1.00  0.00    -0.326 N
ATOM      3  H1  UNL     1     -55.048  24.644 -30.519  1.00  0.00     0.169 HD
HETATM    4  C4  UNL     1     -53.067  24.159 -30.421  1.00  0.00     0.259 A
HETATM    5  O1  UNL     1     -52.913  24.528 -29.223  1.00  0.00    -0.267 OA
HETATM    6  C5  UNL     1     -52.014  23.635 -31.149  1.00  0.00     0.077 A
HETATM    7  C6  UNL     1     -50.671  23.391 -30.837  1.00  0.00     0.014 A
HETATM    8  C7  UNL     1     -50.017  23.654 -29.541  1.00  0.00     0.054 C
HETATM    9  C8  UNL     1     -50.137  22.858 -31.991  1.00  0.00     0.222 A
HETATM   10  O4  UNL     1     -51.081  22.784 -32.933  1.00  0.00    -0.287 OA
HETATM   11  C9  UNL     1     -52.212  23.244 -32.454  1.00  0.00     0.102 A
HETATM   12  C10 UNL     1     -53.454  23.350 -33.096  1.00  0.00    -0.000 A
ENDROOT
BRANCH  12  13
HETATM   13  C11 UNL     1     -53.602  22.927 -34.489  1.00  0.00     0.045 C
BRANCH  13  14
HETATM   14  C12 UNL     1     -53.180  23.891 -35.537  1.00  0.00     0.024 C
BRANCH  14  15
HETATM   15  C13 UNL     1     -54.029  23.560 -36.773  1.00  0.00     0.114 C
BRANCH  15  16
HETATM   16  N3  UNL     1     -53.583  22.425 -37.498  1.00  0.00    -0.418 N
ATOM     17  H3  UNL     1     -52.606  22.300 -37.762  1.00  0.00     0.153 HD
BRANCH  16  18
HETATM   18  C14 UNL     1     -54.596  21.459 -37.839  1.00  0.00     0.068 C
HETATM   19  C15 UNL     1     -54.377  20.150 -37.107  1.00  0.00     0.031 C
HETATM   20  C16 UNL     1     -55.917  22.066 -37.343  1.00  0.00     0.031 C
ENDBRANCH  16  18
ENDBRANCH  15  16
ENDBRANCH  14  15
ENDBRANCH  13  14
ENDBRANCH  12  13
BRANCH   1  21
HETATM   21  C2  UNL     1     -55.813  24.006 -32.958  1.00  0.00     0.053 C
HETATM   22  C1  UNL     1     -56.830  23.054 -32.358  1.00  0.00     0.011 C
ENDBRANCH   1  21
BRANCH   9  23
HETATM   23  N2  UNL     1     -48.779  22.451 -32.147  1.00  0.00    -0.090 N
HETATM   24  O2  UNL     1     -48.076  22.983 -33.034  1.00  0.00    -0.530 OA
HETATM   25  O3  UNL     1     -48.170  21.494 -31.382  1.00  0.00    -0.530 OA
ENDBRANCH   9  23
TORSDOF 7
ENDMDL