MODEL 3
REMARK VINA RESULT: -7.798673587      1.056      1.150
REMARK  3 active torsions:
REMARK  status: ('A' for Active; 'I' for Inactive)
REMARK    1  A    between atoms: C3_3  and  O1_4
REMARK    2  A    between atoms: O1_4  and  C4_5
REMARK    3  A    between atoms: C12_16  and  C13_17
ROOT
HETATM    1  C1  UNL     1      -0.889  -1.569  22.837  1.00  0.00     0.091 A
HETATM    2  C2  UNL     1      -0.707  -0.345  23.437  1.00  0.00     0.055 A
HETATM    3  C3  UNL     1      -1.396   0.770  22.886  1.00  0.00     0.089 A
HETATM    4  C9  UNL     1      -2.200   0.576  21.799  1.00  0.00     0.057 A
HETATM    5  C10 UNL     1      -2.366  -0.652  21.218  1.00  0.00     0.029 A
HETATM    6  N1  UNL     1      -1.680  -1.695  21.786  1.00  0.00    -0.368 N
ATOM      7  H1  UNL     1      -1.787  -2.621  21.373  1.00  0.00     0.165 HD
HETATM    8  C11 UNL     1      -3.239  -0.707  20.057  1.00  0.00     0.074 C
HETATM    9  C12 UNL     1      -4.297   0.368  20.131  1.00  0.00     0.062 C
HETATM   10  S1  UNL     1      -3.229   1.690  20.861  1.00  0.00    -0.120 SA
ENDROOT
BRANCH   3  11
HETATM   11  O1  UNL     1      -1.160   1.937  23.537  1.00  0.00    -0.344 OA
BRANCH  11  12
HETATM   12  C4  UNL     1      -0.150   2.839  23.607  1.00  0.00     0.133 C
HETATM   13  C5  UNL     1      -0.158   3.741  22.359  1.00  0.00     0.058 C
HETATM   14  C6  UNL     1      -1.380   4.639  22.376  1.00  0.00     0.170 C
HETATM   15  O2  UNL     1      -1.760   4.959  23.677  1.00  0.00    -0.391 OA
HETATM   16  C7  UNL     1      -0.657   5.094  24.502  1.00  0.00     0.170 C
HETATM   17  C8  UNL     1      -0.168   3.706  24.858  1.00  0.00     0.058 C
ENDBRANCH  11  12
ENDBRANCH   3  11
BRANCH   9  18
HETATM   18  C13 UNL     1      -4.801   0.780  18.789  1.00  0.00     0.000 C
HETATM   19  C14 UNL     1      -6.105   0.134  18.424  1.00  0.00     0.006 C
HETATM   20  C15 UNL     1      -6.236   0.159  16.901  1.00  0.00     0.000 C
HETATM   21  C16 UNL     1      -5.459   1.351  16.343  1.00  0.00     0.000 C
HETATM   22  C17 UNL     1      -3.994   1.001  16.433  1.00  0.00     0.000 C
HETATM   23  C18 UNL     1      -3.763   0.318  17.760  1.00  0.00     0.006 C
ENDBRANCH   9  18
TORSDOF 3
ENDMDL