MODEL 5
REMARK VINA RESULT: -7.100514464      0.998      1.087
REMARK  3 active torsions:
REMARK  status: ('A' for Active; 'I' for Inactive)
REMARK    1  A    between atoms: N1_4  and  C4_5
REMARK    2  A    between atoms: N2_15  and  C14_16
REMARK    3  A    between atoms: C14_16  and  C15_17
ROOT
HETATM    1  C1  UNL     1      -2.943   4.216  24.873  1.00  0.00     0.017 C
HETATM    2  C2  UNL     1      -2.662   3.404  23.894  1.00  0.00    -0.049 C
HETATM    3  C3  UNL     1      -3.116   1.997  23.742  1.00  0.00     0.307 C
HETATM    4  N1  UNL     1      -2.770   1.622  22.371  1.00  0.00     0.098 N
HETATM    5  C10 UNL     1      -2.614   2.883  21.662  1.00  0.00     0.289 C
HETATM    6  C11 UNL     1      -1.831   3.688  22.715  1.00  0.00     0.038 C
HETATM    7  C12 UNL     1      -0.427   3.150  22.836  1.00  0.00     0.048 C
HETATM    8  C13 UNL     1       0.449   4.256  22.366  1.00  0.00     0.274 C
HETATM    9  N2  UNL     1      -0.383   5.243  21.702  1.00  0.00     0.095 N
HETATM   10  C19 UNL     1      -1.695   5.115  22.330  1.00  0.00     0.288 C
ENDROOT
BRANCH   4  11
HETATM   11  C4  UNL     1      -3.821   0.800  21.817  1.00  0.00     0.223 C
HETATM   12  C5  UNL     1      -3.779   0.719  20.325  1.00  0.00     0.036 C
HETATM   13  C6  UNL     1      -2.632  -0.104  19.845  1.00  0.00     0.002 C
HETATM   14  C7  UNL     1      -2.652  -1.499  20.433  1.00  0.00     0.000 C
HETATM   15  C8  UNL     1      -2.761  -1.488  21.924  1.00  0.00     0.002 C
HETATM   16  C9  UNL     1      -3.780  -0.546  22.471  1.00  0.00     0.036 C
ENDBRANCH   4  11
BRANCH   9  17
HETATM   17  C14 UNL     1       0.170   6.587  21.883  1.00  0.00     0.329 C
BRANCH  17  18
HETATM   18  C15 UNL     1       0.567   7.072  20.504  1.00  0.00     0.044 A
HETATM   19  C16 UNL     1      -0.305   7.830  19.765  1.00  0.00     0.078 A
HETATM   20  S1  UNL     1       0.606   8.100  18.338  1.00  0.00    -0.087 SA
HETATM   21  C17 UNL     1       2.017   7.242  18.772  1.00  0.00     0.047 A
HETATM   22  C18 UNL     1       3.294   7.030  17.994  1.00  0.00     0.076 C
HETATM   23  N3  UNL     1       1.717   6.796  19.982  1.00  0.00    -0.356 N
ATOM     24  H3  UNL     1       2.391   6.235  20.502  1.00  0.00     0.166 HD
ENDBRANCH  17  18
ENDBRANCH   9  17
TORSDOF 3
ENDMDL