MODEL 5
REMARK VINA RESULT: -7.445212416      4.080      5.605
REMARK  4 active torsions:
REMARK  status: ('A' for Active; 'I' for Inactive)
REMARK    1  A    between atoms: C14_14  and  C16_16
REMARK    2  A    between atoms: C16_16  and  C17_17
REMARK    3  A    between atoms: C17_17  and  O2_19
REMARK    4  A    between atoms: O2_19  and  C18_20
ROOT
HETATM    1  C1  UNL     1      -1.525   3.890  25.343  1.00  0.00     0.015 C
HETATM    2  C2  UNL     1      -1.947   2.921  24.529  1.00  0.00    -0.080 C
HETATM    3  C3  UNL     1      -3.290   2.332  24.716  1.00  0.00     0.034 C
HETATM    4  C4  UNL     1      -3.317   0.871  24.356  1.00  0.00     0.010 C
HETATM    5  C5  UNL     1      -1.869   0.389  24.511  1.00  0.00     0.003 C
HETATM    6  C6  UNL     1      -1.882  -1.082  24.750  1.00  0.00    -0.043 C
HETATM    7  C7  UNL     1      -2.178  -1.284  26.236  1.00  0.00     0.015 C
HETATM    8  C8  UNL     1      -3.065  -1.764  24.042  1.00  0.00     0.015 C
HETATM    9  C9  UNL     1      -0.621  -1.808  24.445  1.00  0.00     0.009 C
HETATM   10  C10 UNL     1       0.529  -0.891  24.457  1.00  0.00     0.002 C
HETATM   11  C11 UNL     1       0.426   0.409  23.758  1.00  0.00     0.011 C
HETATM   12  C12 UNL     1      -0.976   0.884  23.436  1.00  0.00    -0.028 C
HETATM   13  C13 UNL     1      -1.306   0.370  22.066  1.00  0.00     0.016 C
HETATM   14  C14 UNL     1      -1.084   2.417  23.401  1.00  0.00    -0.005 C
HETATM   15  C15 UNL     1       0.303   2.993  23.448  1.00  0.00     0.021 C
ENDROOT
BRANCH  14  16
HETATM   16  C16 UNL     1      -1.774   2.882  22.151  1.00  0.00     0.125 C
BRANCH  16  17
HETATM   17  C17 UNL     1      -1.181   4.062  21.521  1.00  0.00     0.262 C
HETATM   18  O1  UNL     1      -0.767   3.978  20.297  1.00  0.00    -0.265 OA
BRANCH  17  19
HETATM   19  O2  UNL     1      -0.977   5.319  22.049  1.00  0.00    -0.289 OA
BRANCH  19  20
HETATM   20  C18 UNL     1      -1.938   6.330  22.047  1.00  0.00     0.288 C
HETATM   21  C19 UNL     1      -1.538   7.644  21.372  1.00  0.00     0.172 C
HETATM   22  C20 UNL     1      -2.957   7.656  21.034  1.00  0.00     0.265 C
HETATM   23  O3  UNL     1      -3.754   8.610  20.768  1.00  0.00    -0.265 OA
HETATM   24  O4  UNL     1      -2.982   6.276  21.140  1.00  0.00    -0.289 OA
ENDBRANCH  19  20
ENDBRANCH  17  19
ENDBRANCH  16  17
ENDBRANCH  14  16
TORSDOF 4
ENDMDL