MODEL 2
REMARK VINA RESULT: -7.983796069      2.145      2.590
REMARK  4 active torsions:
REMARK  status: ('A' for Active; 'I' for Inactive)
REMARK    1  A    between atoms: C2_2  and  C4_4
REMARK    2  A    between atoms: C4_4  and  O1_5
REMARK    3  A    between atoms: O1_5  and  C5_6
REMARK    4  A    between atoms: C5_6  and  C6_8
ROOT
HETATM    1  C4  UNL     1      -1.942  -0.497  21.843  1.00  0.00     0.067 C
HETATM    2  C11 UNL     1      -1.323   0.314  22.694  1.00  0.00    -0.017 C
HETATM    3  C12 UNL     1      -1.258   1.719  22.341  1.00  0.00     0.014 C
HETATM    4  C13 UNL     1      -0.576   2.665  22.942  1.00  0.00    -0.060 C
HETATM    5  C14 UNL     1      -0.346   4.133  22.788  1.00  0.00     0.043 C
HETATM    6  C15 UNL     1      -0.515   4.577  24.229  1.00  0.00     0.084 C
HETATM    7  C16 UNL     1       0.185   3.509  24.978  1.00  0.00     0.142 C
HETATM    8  O3  UNL     1       0.641   3.614  26.090  1.00  0.00    -0.297 OA
HETATM    9  C17 UNL     1       0.240   2.276  24.149  1.00  0.00     0.154 C
HETATM   10  C18 UNL     1      -0.440   1.117  24.780  1.00  0.00     0.150 C
HETATM   11  O4  UNL     1      -0.747   1.203  25.953  1.00  0.00    -0.296 OA
HETATM   12  C19 UNL     1      -0.706  -0.081  23.943  1.00  0.00     0.088 C
HETATM   13  C20 UNL     1       0.564  -0.864  23.848  1.00  0.00     0.023 C
ENDROOT
BRANCH   1  14
HETATM   14  C2  UNL     1      -2.074  -1.956  22.091  1.00  0.00     0.035 C
HETATM   15  C1  UNL     1      -3.155  -2.212  23.146  1.00  0.00     0.016 C
HETATM   16  C3  UNL     1      -2.474  -2.744  20.871  1.00  0.00     0.016 C
ENDBRANCH   1  14
BRANCH   1  17
HETATM   17  O1  UNL     1      -2.500  -0.009  20.668  1.00  0.00    -0.282 OA
BRANCH  17  18
HETATM   18  C5  UNL     1      -3.804   0.461  20.584  1.00  0.00     0.268 C
HETATM   19  O2  UNL     1      -4.593   0.335  21.549  1.00  0.00    -0.264 OA
BRANCH  18  20
HETATM   20  C6  UNL     1      -4.309   1.124  19.361  1.00  0.00     0.086 C
HETATM   21  C7  UNL     1      -3.286   1.038  18.261  1.00  0.00     0.014 C
HETATM   22  C8  UNL     1      -3.978   0.462  17.050  1.00  0.00     0.001 C
HETATM   23  C9  UNL     1      -5.451   0.479  17.349  1.00  0.00     0.001 C
HETATM   24  C10 UNL     1      -5.562   0.452  18.845  1.00  0.00     0.014 C
ENDBRANCH  18  20
ENDBRANCH  17  18
ENDBRANCH   1  17
TORSDOF 4
ENDMDL