MODEL 4
REMARK VINA RESULT: -6.964600974      1.618      1.830
REMARK  3 active torsions:
REMARK  status: ('A' for Active; 'I' for Inactive)
REMARK    1  A    between atoms: C2_2  and  C3_3
REMARK    2  A    between atoms: C3_3  and  C4_4
REMARK    3  A    between atoms: C4_4  and  C5_5
ROOT
HETATM    1  C5  UNL     1      -3.823  -0.193  21.864  1.00  0.00    -0.017 C
HETATM    2  N1  UNL     1      -3.645   0.969  22.399  1.00  0.00    -0.396 N
ATOM      3  H1  UNL     1      -3.664   1.771  21.769  1.00  0.00     0.159 HD
HETATM    4  C6  UNL     1      -3.427   1.244  23.768  1.00  0.00     0.120 C
HETATM    5  C7  UNL     1      -2.744   2.558  23.983  1.00  0.00     0.028 C
HETATM    6  C8  UNL     1      -1.456   2.739  23.247  1.00  0.00     0.006 C
HETATM    7  C9  UNL     1      -1.730   3.756  22.143  1.00  0.00     0.014 C
HETATM    8  C10 UNL     1      -0.393   3.329  24.114  1.00  0.00    -0.012 C
HETATM    9  C11 UNL     1       0.483   2.660  24.832  1.00  0.00    -0.019 C
HETATM   10  C12 UNL     1       1.466   3.508  25.636  1.00  0.00     0.052 C
HETATM   11  C13 UNL     1       0.620   1.224  24.947  1.00  0.00     0.166 C
HETATM   12  O1  UNL     1       0.555   0.724  26.128  1.00  0.00    -0.292 OA
HETATM   13  C14 UNL     1       0.829   0.234  23.873  1.00  0.00     0.137 C
HETATM   14  C15 UNL     1       2.208  -0.397  24.173  1.00  0.00     0.027 C
HETATM   15  C16 UNL     1      -0.119  -0.920  23.942  1.00  0.00     0.197 C
HETATM   16  O2  UNL     1      -0.190  -1.501  25.007  1.00  0.00    -0.285 OA
HETATM   17  S1  UNL     1      -1.041  -1.342  22.501  1.00  0.00    -0.091 SA
HETATM   18  C17 UNL     1      -2.571  -2.193  22.763  1.00  0.00     0.088 C
HETATM   19  C18 UNL     1      -3.822  -1.406  22.718  1.00  0.00     0.062 C
ENDROOT
BRANCH   1  20
HETATM   20  C4  UNL     1      -4.046  -0.360  20.408  1.00  0.00     0.052 C
BRANCH  20  21
HETATM   21  C3  UNL     1      -4.709   0.757  19.697  1.00  0.00     0.005 C
BRANCH  21  22
HETATM   22  C2  UNL     1      -6.119   0.222  19.347  1.00  0.00    -0.004 C
HETATM   23  C1  UNL     1      -6.318   0.160  17.872  1.00  0.00     0.005 C
ENDBRANCH  21  22
ENDBRANCH  20  21
ENDBRANCH   1  20
TORSDOF 3
ENDMDL