MODEL 5
REMARK VINA RESULT: -7.144696286      1.822      2.357
REMARK  5 active torsions:
REMARK  status: ('A' for Active; 'I' for Inactive)
REMARK    1  A    between atoms: C2_2  and  C3_3
REMARK    2  A    between atoms: C3_3  and  O2_5
REMARK    3  A    between atoms: O2_5  and  C4_6
REMARK    4  A    between atoms: C11_13  and  O3_14
REMARK    5  A    between atoms: O3_14  and  C12_15
ROOT
HETATM    1  C4  UNL     1      -1.966   1.827  24.768  1.00  0.00     0.065 C
HETATM    2  C5  UNL     1      -2.147   0.606  24.325  1.00  0.00    -0.033 C
HETATM    3  C6  UNL     1      -1.438  -0.386  25.234  1.00  0.00     0.046 C
HETATM    4  C7  UNL     1      -0.248  -0.839  24.412  1.00  0.00     0.014 C
HETATM    5  C8  UNL     1      -0.809  -1.583  23.227  1.00  0.00     0.007 C
HETATM    6  C9  UNL     1      -1.755  -0.752  22.397  1.00  0.00     0.001 C
HETATM    7  C10 UNL     1      -2.368  -1.644  21.359  1.00  0.00     0.038 C
HETATM    8  C11 UNL     1      -3.344  -0.937  20.469  1.00  0.00     0.132 C
HETATM    9  C14 UNL     1      -4.109   0.150  21.094  1.00  0.00     0.034 C
HETATM   10  C15 UNL     1      -3.530   0.872  22.247  1.00  0.00     0.016 C
HETATM   11  C16 UNL     1      -2.832  -0.062  23.183  1.00  0.00    -0.014 C
HETATM   12  C17 UNL     1      -3.835  -1.010  23.781  1.00  0.00     0.020 C
HETATM   13  C18 UNL     1      -1.070   0.374  26.420  1.00  0.00    -0.075 C
HETATM   14  C19 UNL     1      -0.757  -0.079  27.614  1.00  0.00     0.015 C
HETATM   15  C20 UNL     1      -1.118   1.799  26.016  1.00  0.00     0.099 C
ENDROOT
BRANCH   1  16
HETATM   16  O2  UNL     1      -2.433   3.016  24.248  1.00  0.00    -0.279 OA
BRANCH  16  17
HETATM   17  C3  UNL     1      -3.447   3.713  24.887  1.00  0.00     0.287 C
HETATM   18  O1  UNL     1      -4.325   3.034  25.481  1.00  0.00    -0.260 OA
BRANCH  17  19
HETATM   19  C2  UNL     1      -3.498   5.171  24.875  1.00  0.00     0.072 C
HETATM   20  C1  UNL     1      -3.488   5.838  23.754  1.00  0.00     0.017 C
ENDBRANCH  17  19
ENDBRANCH  16  17
ENDBRANCH   1  16
BRANCH   8  21
HETATM   21  O3  UNL     1      -2.679  -0.433  19.309  1.00  0.00    -0.316 OA
BRANCH  21  22
HETATM   22  C12 UNL     1      -3.146   0.663  18.610  1.00  0.00     0.255 C
HETATM   23  C13 UNL     1      -4.207   0.586  17.568  1.00  0.00     0.126 C
HETATM   24  O4  UNL     1      -2.636   1.783  18.880  1.00  0.00    -0.266 OA
ENDBRANCH  21  22
ENDBRANCH   8  21
TORSDOF 5
ENDMDL