MODEL 5
REMARK VINA RESULT: -7.873381147      1.540      1.991
REMARK  4 active torsions:
REMARK  status: ('A' for Active; 'I' for Inactive)
REMARK    1  A    between atoms: C3_5  and  C4_6
REMARK    2  A    between atoms: C4_6  and  C5_8
REMARK    3  A    between atoms: C5_8  and  C6_9
REMARK    4  A    between atoms: C9_12  and  C10_13
ROOT
HETATM    1  C6  UNL     1      -4.177  -0.483  21.656  1.00  0.00    -0.007 C
HETATM    2  C7  UNL     1      -3.347  -1.562  21.053  1.00  0.00     0.005 C
HETATM    3  C8  UNL     1      -1.941  -1.129  21.487  1.00  0.00     0.006 C
HETATM    4  C9  UNL     1      -2.171  -0.835  22.932  1.00  0.00    -0.003 C
HETATM    5  C18 UNL     1      -3.455  -0.078  22.950  1.00  0.00     0.010 C
ENDROOT
BRANCH   1   6
HETATM    6  C5  UNL     1      -4.214   0.731  20.800  1.00  0.00     0.090 C
BRANCH   6   7
HETATM    7  C4  UNL     1      -5.212   0.686  19.704  1.00  0.00     0.176 C
HETATM    8  O1  UNL     1      -6.426   0.696  20.019  1.00  0.00    -0.291 OA
BRANCH   7   9
HETATM    9  C3  UNL     1      -4.796   0.628  18.271  1.00  0.00     0.085 A
HETATM   10  N1  UNL     1      -5.566   0.153  17.339  1.00  0.00    -0.351 N
HETATM   11  C2  UNL     1      -5.149   0.125  16.090  1.00  0.00     0.047 A
ATOM     12  H1  UNL     1      -6.494  -0.197  17.575  1.00  0.00     0.166 HD
HETATM   13  C1  UNL     1      -5.874  -0.378  14.861  1.00  0.00     0.076 C
HETATM   14  S1  UNL     1      -3.584   0.798  16.202  1.00  0.00    -0.087 SA
HETATM   15  C19 UNL     1      -3.556   1.084  17.886  1.00  0.00     0.084 A
ENDBRANCH   7   9
ENDBRANCH   6   7
ENDBRANCH   1   6
BRANCH   4  16
HETATM   16  C10 UNL     1      -1.042  -0.131  23.611  1.00  0.00    -0.008 C
HETATM   17  C11 UNL     1       0.319  -0.732  23.350  1.00  0.00     0.017 C
HETATM   18  C12 UNL     1       1.081  -0.180  24.566  1.00  0.00    -0.009 C
HETATM   19  C13 UNL     1       1.096   1.319  24.543  1.00  0.00     0.036 C
HETATM   20  C17 UNL     1       0.109  -0.611  25.674  1.00  0.00     0.037 C
HETATM   21  C14 UNL     1      -0.285   1.891  24.473  1.00  0.00     0.123 C
HETATM   22  C15 UNL     1      -0.945   1.330  23.203  1.00  0.00     0.044 C
HETATM   23  O2  UNL     1      -1.145   1.336  25.434  1.00  0.00    -0.380 OA
HETATM   24  C16 UNL     1      -1.192  -0.033  25.094  1.00  0.00     0.131 C
ENDBRANCH   4  16
TORSDOF 4
ENDMDL