MODEL 1
REMARK VINA RESULT: -6.255629230      0.000      0.000
REMARK  4 active torsions:
REMARK  status: ('A' for Active; 'I' for Inactive)
REMARK    1  A    between atoms: C2_2  and  C3_3
REMARK    2  A    between atoms: C4_5  and  S2_6
REMARK    3  A    between atoms: C8_12  and  C9_13
REMARK    4  A    between atoms: C9_13  and  N2_14
ROOT
HETATM    1  C3  UNL     1      -2.445  -1.276  22.997  1.00  0.00     0.002 A
HETATM    2  S1  UNL     1      -1.070  -1.471  23.942  1.00  0.00    -0.069 SA
HETATM    3  C4  UNL     1      -0.716  -0.071  24.929  1.00  0.00     0.116 A
HETATM    4  N1  UNL     1      -1.596   0.907  24.759  1.00  0.00    -0.307 N
HETATM    5  C6  UNL     1      -1.356   2.119  25.566  1.00  0.00     0.161 C
HETATM    6  C7  UNL     1      -2.670   0.922  23.949  1.00  0.00     0.261 A
HETATM    7  O1  UNL     1      -3.349   2.012  23.976  1.00  0.00    -0.267 OA
HETATM    8  C8  UNL     1      -3.128  -0.037  23.112  1.00  0.00     0.061 A
ENDROOT
BRANCH   8   9
HETATM    9  C9  UNL     1      -4.287   0.065  22.218  1.00  0.00     0.108 C
BRANCH   9  10
HETATM   10  N2  UNL     1      -4.235   0.552  20.936  1.00  0.00    -0.369 N
HETATM   11  C10 UNL     1      -4.863  -0.081  19.862  1.00  0.00     0.063 C
HETATM   12  C11 UNL     1      -5.094   0.734  18.634  1.00  0.00     0.044 C
HETATM   13  C12 UNL     1      -3.894   1.090  17.843  1.00  0.00     0.005 C
HETATM   14  C13 UNL     1      -2.683   0.255  18.058  1.00  0.00     0.000 C
HETATM   15  C14 UNL     1      -1.935   0.498  19.312  1.00  0.00     0.002 C
HETATM   16  C15 UNL     1      -2.276   1.753  20.040  1.00  0.00     0.020 C
HETATM   17  C16 UNL     1      -3.593   1.796  20.699  1.00  0.00     0.127 C
ENDBRANCH   9  10
ENDBRANCH   8   9
BRANCH   1  18
HETATM   18  C2  UNL     1      -2.954  -2.342  22.065  1.00  0.00     0.043 C
HETATM   19  C1  UNL     1      -1.923  -2.455  20.959  1.00  0.00     0.010 C
ENDBRANCH   1  18
BRANCH   3  20
HETATM   20  S2  UNL     1       0.585  -0.117  25.888  1.00  0.00    -0.109 SA
HETATM   21  C5  UNL     1       0.619  -0.230  27.676  1.00  0.00     0.097 C
ENDBRANCH   3  20
TORSDOF 4
ENDMDL