MODEL 2
REMARK VINA RESULT: -7.635119753      0.749      2.321
REMARK  6 active torsions:
REMARK  status: ('A' for Active; 'I' for Inactive)
REMARK    1  A    between atoms: C2_2  and  O1_4
REMARK    2  A    between atoms: O1_4  and  C4_5
REMARK       I    between atoms: C4_5  and  N1_7
REMARK    3  A    between atoms: C5_9  and  O3_10
REMARK    4  A    between atoms: O3_10  and  C6_11
REMARK    5  A    between atoms: C6_11  and  C7_13
REMARK    6  A    between atoms: C7_13  and  C8_14
ROOT
HETATM    1  C7  UNL     1      -2.815  -1.110  23.037  1.00  0.00     0.121 C
ENDROOT
BRANCH   1   2
HETATM    2  C6  UNL     1      -2.772  -1.825  21.743  1.00  0.00     0.265 C
HETATM    3  O4  UNL     1      -3.159  -3.044  21.792  1.00  0.00    -0.265 OA
BRANCH   2   4
HETATM    4  O3  UNL     1      -2.379  -1.347  20.535  1.00  0.00    -0.274 OA
BRANCH   4   5
HETATM    5  C5  UNL     1      -3.133  -0.380  19.843  1.00  0.00     0.241 C
HETATM    6  N1  UNL     1      -4.407  -0.478  19.929  1.00  0.00    -0.293 N
HETATM    7  C4  UNL     1      -5.368   0.344  19.345  1.00  0.00     0.366 C
ATOM      8  H1  UNL     1      -4.761  -1.251  20.492  1.00  0.00     0.172 HD
HETATM    9  O2  UNL     1      -6.517   0.463  19.822  1.00  0.00    -0.238 OA
BRANCH   7  10
HETATM   10  O1  UNL     1      -5.063   1.064  18.197  1.00  0.00    -0.299 OA
BRANCH  10  11
HETATM   11  C2  UNL     1      -4.994   0.464  16.919  1.00  0.00     0.125 C
HETATM   12  C1  UNL     1      -6.288  -0.162  16.501  1.00  0.00     0.040 C
HETATM   13  C3  UNL     1      -4.520   1.399  15.852  1.00  0.00     0.040 C
ENDBRANCH  10  11
ENDBRANCH   7  10
ENDBRANCH   4   5
ENDBRANCH   2   4
ENDBRANCH   1   2
BRANCH   1  14
HETATM   14  C8  UNL     1      -1.531  -0.436  23.419  1.00  0.00    -0.028 C
HETATM   15  C9  UNL     1      -0.408  -1.262  22.829  1.00  0.00     0.016 C
HETATM   16  C10 UNL     1      -1.481  -0.281  24.896  1.00  0.00    -0.005 C
HETATM   17  C11 UNL     1      -0.077   0.085  25.311  1.00  0.00     0.006 C
HETATM   18  C17 UNL     1      -2.494   0.740  25.345  1.00  0.00     0.014 C
HETATM   19  C12 UNL     1       0.587   1.020  24.353  1.00  0.00     0.005 C
HETATM   20  C13 UNL     1      -0.400   1.804  23.525  1.00  0.00    -0.009 C
HETATM   21  C14 UNL     1      -1.183   2.675  24.500  1.00  0.00     0.014 C
HETATM   22  C19 UNL     1      -1.390   0.936  22.797  1.00  0.00    -0.001 C
HETATM   23  C15 UNL     1      -2.547   1.970  24.510  1.00  0.00    -0.043 C
HETATM   24  C16 UNL     1      -3.641   2.859  25.013  1.00  0.00     0.015 C
HETATM   25  C18 UNL     1      -2.672   1.696  23.015  1.00  0.00     0.015 C
ENDBRANCH   1  14
TORSDOF 6
ENDMDL