MODEL 3
REMARK VINA RESULT: -7.851286087      1.202      1.932
REMARK  4 active torsions:
REMARK  status: ('A' for Active; 'I' for Inactive)
REMARK    1  A    between atoms: C2_2  and  O2_4
REMARK    2  A    between atoms: O2_4  and  C3_5
REMARK    3  A    between atoms: C3_5  and  C4_6
REMARK    4  A    between atoms: C4_6  and  C5_7
ROOT
HETATM    1  C5  UNL     1      -2.341   0.282  20.467  1.00  0.00    -0.004 C
HETATM    2  C6  UNL     1      -2.664  -1.117  20.099  1.00  0.00     0.005 C
HETATM    3  C7  UNL     1      -2.106  -2.148  21.026  1.00  0.00     0.001 C
HETATM    4  C8  UNL     1      -1.317  -1.441  22.128  1.00  0.00     0.010 C
HETATM    5  C9  UNL     1      -2.298  -0.497  22.839  1.00  0.00    -0.030 C
HETATM    6  C10 UNL     1      -3.522  -1.376  23.141  1.00  0.00     0.016 C
HETATM    7  C11 UNL     1      -1.732  -0.124  24.175  1.00  0.00     0.024 C
HETATM    8  C12 UNL     1      -1.401  -1.265  25.048  1.00  0.00     0.018 C
HETATM    9  C13 UNL     1       0.099  -1.288  25.373  1.00  0.00     0.111 C
HETATM   10  C14 UNL     1       0.410   0.047  25.947  1.00  0.00     0.259 C
HETATM   11  O3  UNL     1       0.970   0.111  27.068  1.00  0.00    -0.265 OA
HETATM   12  O4  UNL     1       0.050   1.148  25.186  1.00  0.00    -0.316 OA
HETATM   13  C15 UNL     1      -0.579   0.833  23.933  1.00  0.00     0.136 C
HETATM   14  C16 UNL     1      -1.216   2.098  23.443  1.00  0.00     0.034 C
HETATM   15  C17 UNL     1      -2.013   1.940  22.196  1.00  0.00     0.013 C
HETATM   16  C18 UNL     1      -2.624   0.618  21.940  1.00  0.00    -0.033 C
HETATM   17  C19 UNL     1      -4.154   0.800  21.986  1.00  0.00     0.016 C
ENDROOT
BRANCH   1  18
HETATM   18  C4  UNL     1      -2.990   1.257  19.548  1.00  0.00     0.032 C
BRANCH  18  19
HETATM   19  C3  UNL     1      -2.825   0.839  18.125  1.00  0.00     0.179 C
BRANCH  19  20
HETATM   20  O2  UNL     1      -3.567   1.691  17.245  1.00  0.00    -0.322 OA
BRANCH  20  21
HETATM   21  C2  UNL     1      -4.639   1.101  16.579  1.00  0.00     0.254 C
HETATM   22  C1  UNL     1      -4.480   0.397  15.276  1.00  0.00     0.126 C
HETATM   23  O1  UNL     1      -5.810   1.135  17.056  1.00  0.00    -0.266 OA
ENDBRANCH  20  21
ENDBRANCH  19  20
ENDBRANCH  18  19
ENDBRANCH   1  18
TORSDOF 4
ENDMDL