MODEL 4
REMARK VINA RESULT: -7.578184894      6.162      8.081
REMARK  3 active torsions:
REMARK  status: ('A' for Active; 'I' for Inactive)
REMARK    1  A    between atoms: C2_2  and  C4_4
REMARK    2  A    between atoms: C5_5  and  C6_6
REMARK    3  A    between atoms: C8_8  and  C9_9
ROOT
HETATM    1  C9  UNL     1      -1.584   0.427  22.173  1.00  0.00     0.166 C
HETATM    2  O1  UNL     1      -0.880  -0.744  22.442  1.00  0.00    -0.309 OA
HETATM    3  C10 UNL     1      -0.656  -0.884  23.814  1.00  0.00     0.287 C
HETATM    4  O2  UNL     1       0.238  -1.645  24.250  1.00  0.00    -0.263 OA
HETATM    5  C11 UNL     1      -1.600  -0.032  24.558  1.00  0.00     0.176 C
HETATM    6  S1  UNL     1      -2.839  -1.043  25.415  1.00  0.00    -0.066 SA
HETATM    7  C12 UNL     1      -0.858   0.738  25.582  1.00  0.00     0.165 C
HETATM    8  O3  UNL     1      -0.795   0.252  26.703  1.00  0.00    -0.295 OA
HETATM    9  C13 UNL     1      -0.190   2.032  25.384  1.00  0.00     0.015 C
HETATM   10  C14 UNL     1       1.276   1.719  25.100  1.00  0.00     0.023 C
HETATM   11  C15 UNL     1      -0.200   2.848  26.665  1.00  0.00     0.023 C
HETATM   12  C16 UNL     1      -0.777   2.748  24.231  1.00  0.00     0.017 C
HETATM   13  C17 UNL     1      -2.099   2.285  23.749  1.00  0.00     0.015 C
HETATM   14  C18 UNL     1      -2.229   0.832  23.515  1.00  0.00     0.021 C
HETATM   15  C19 UNL     1      -3.685   0.466  23.390  1.00  0.00     0.021 C
ENDROOT
BRANCH   1  16
HETATM   16  C8  UNL     1      -2.571   0.262  21.132  1.00  0.00     0.013 C
HETATM   17  C6  UNL     1      -2.900   1.021  20.103  1.00  0.00    -0.063 C
HETATM   18  C7  UNL     1      -2.193   2.291  19.867  1.00  0.00     0.048 C
BRANCH  17  19
HETATM   19  C5  UNL     1      -3.952   0.596  19.196  1.00  0.00     0.007 C
HETATM   20  C4  UNL     1      -4.258   1.187  18.018  1.00  0.00     0.006 C
BRANCH  20  21
HETATM   21  C2  UNL     1      -5.295   0.678  17.229  1.00  0.00    -0.071 C
HETATM   22  C1  UNL     1      -6.224   0.223  16.521  1.00  0.00     0.018 C
HETATM   23  C3  UNL     1      -4.533   1.346  15.657  1.00  0.00     0.047 C
ENDBRANCH  20  21
ENDBRANCH  17  19
ENDBRANCH   1  16
TORSDOF 3
ENDMDL