MODEL 3
REMARK VINA RESULT: -6.837157584      1.763      6.210
REMARK  4 active torsions:
REMARK  status: ('A' for Active; 'I' for Inactive)
REMARK    1  A    between atoms: O1_2  and  C2_3
REMARK    2  A    between atoms: C2_3  and  C3_5
REMARK    3  A    between atoms: C4_6  and  C5_7
REMARK    4  A    between atoms: C5_7  and  N1_8
ROOT
HETATM    1  C3  UNL     1      -2.554   1.745  20.713  1.00  0.00     0.061 A
HETATM    2  C4  UNL     1      -2.755   0.829  19.714  1.00  0.00     0.028 A
HETATM    3  S1  UNL     1      -3.066  -0.604  20.581  1.00  0.00    -0.096 SA
HETATM    4  C12 UNL     1      -2.937  -0.021  22.173  1.00  0.00    -0.010 A
HETATM    5  C13 UNL     1      -2.651   1.288  21.987  1.00  0.00    -0.028 A
HETATM    6  C14 UNL     1      -2.440   2.241  23.160  1.00  0.00     0.041 C
HETATM    7  C15 UNL     1      -3.519   2.053  24.196  1.00  0.00     0.005 C
HETATM    8  C16 UNL     1      -3.071   0.854  25.042  1.00  0.00     0.001 C
HETATM    9  C17 UNL     1      -3.771  -0.338  24.507  1.00  0.00     0.005 C
HETATM   10  C18 UNL     1      -3.136  -0.945  23.296  1.00  0.00     0.046 C
ENDROOT
BRANCH   2  11
HETATM   11  C5  UNL     1      -2.695   1.118  18.257  1.00  0.00     0.320 C
BRANCH  11  12
HETATM   12  N1  UNL     1      -3.776   0.515  17.539  1.00  0.00     0.097 N
HETATM   13  C6  UNL     1      -5.076   0.849  17.960  1.00  0.00     0.273 C
HETATM   14  C7  UNL     1      -6.064   1.151  16.880  1.00  0.00     0.030 C
HETATM   15  C8  UNL     1      -5.884   0.385  15.616  1.00  0.00     0.004 C
HETATM   16  C9  UNL     1      -4.516  -0.154  15.388  1.00  0.00     0.035 C
HETATM   17  C10 UNL     1      -3.510   0.697  16.127  1.00  0.00     0.219 C
HETATM   18  C11 UNL     1      -3.530   2.126  15.693  1.00  0.00     0.043 C
ENDBRANCH  11  12
ENDBRANCH   2  11
BRANCH   1  19
HETATM   19  C2  UNL     1      -2.240   3.183  20.394  1.00  0.00     0.294 C
HETATM   20  O2  UNL     1      -3.192   3.982  20.240  1.00  0.00    -0.259 OA
BRANCH  19  21
HETATM   21  O1  UNL     1      -0.957   3.633  20.269  1.00  0.00    -0.322 OA
HETATM   22  C1  UNL     1      -0.277   3.818  19.054  1.00  0.00     0.213 C
ENDBRANCH  19  21
ENDBRANCH   1  19
TORSDOF 4
ENDMDL