MODEL 2
REMARK VINA RESULT: -7.179916051      1.586      6.935
REMARK  5 active torsions:
REMARK  status: ('A' for Active; 'I' for Inactive)
REMARK    1  A    between atoms: O1_2  and  C2_3
REMARK    2  A    between atoms: C2_3  and  C3_5
REMARK    3  A    between atoms: C4_6  and  C5_7
REMARK    4  A    between atoms: C5_7  and  C6_8
REMARK    5  A    between atoms: C6_8  and  C7_9
ROOT
HETATM    1  C3  UNL     1      -2.461  -0.459  22.048  1.00  0.00     0.117 A
HETATM    2  C4  UNL     1      -1.421   0.203  22.661  1.00  0.00    -0.023 A
HETATM    3  C11 UNL     1      -1.362   1.448  22.021  1.00  0.00     0.038 A
HETATM    4  C12 UNL     1      -2.350   1.509  21.054  1.00  0.00     0.047 A
HETATM    5  N1  UNL     1      -2.993   0.337  21.100  1.00  0.00    -0.339 N
HETATM    6  C13 UNL     1      -4.088   0.085  20.201  1.00  0.00     0.166 C
HETATM    7  C14 UNL     1      -4.195   1.084  19.082  1.00  0.00     0.071 C
HETATM    8  C15 UNL     1      -3.314   0.599  17.921  1.00  0.00     0.047 C
HETATM    9  C16 UNL     1      -5.622   1.049  18.576  1.00  0.00     0.047 C
HETATM   10  O3  UNL     1      -3.904   2.364  19.446  1.00  0.00    -0.363 OA
HETATM   11  C17 UNL     1      -2.737   2.568  20.104  1.00  0.00     0.097 C
HETATM   12  C18 UNL     1      -2.916   3.872  20.905  1.00  0.00     0.052 C
HETATM   13  C19 UNL     1      -1.553   2.824  19.192  1.00  0.00     0.052 C
ENDROOT
BRANCH   2  14
HETATM   14  C5  UNL     1      -0.509  -0.268  23.742  1.00  0.00     0.042 C
BRANCH  14  15
HETATM   15  C6  UNL     1      -0.910   0.296  25.057  1.00  0.00     0.013 C
BRANCH  15  16
HETATM   16  C7  UNL     1       0.133   1.190  25.676  1.00  0.00    -0.051 C
HETATM   17  C8  UNL     1      -0.518   2.527  26.042  1.00  0.00     0.014 C
HETATM   18  C9  UNL     1       1.266   1.505  24.756  1.00  0.00     0.014 C
HETATM   19  C10 UNL     1       0.628   0.582  26.976  1.00  0.00     0.014 C
ENDBRANCH  15  16
ENDBRANCH  14  15
ENDBRANCH   2  14
BRANCH   1  20
HETATM   20  C2  UNL     1      -2.942  -1.803  22.394  1.00  0.00     0.310 C
HETATM   21  O2  UNL     1      -2.768  -2.754  21.565  1.00  0.00    -0.258 OA
BRANCH  20  22
HETATM   22  O1  UNL     1      -3.578  -2.130  23.556  1.00  0.00    -0.321 OA
HETATM   23  C1  UNL     1      -4.330  -1.178  24.289  1.00  0.00     0.213 C
ENDBRANCH  20  22
ENDBRANCH   1  20
TORSDOF 5
ENDMDL