MODEL 2
REMARK VINA RESULT: -8.234372663      2.456      4.163
REMARK  4 active torsions:
REMARK  status: ('A' for Active; 'I' for Inactive)
REMARK    1  A    between atoms: C2_2  and  O2_4
REMARK    2  A    between atoms: O2_4  and  C3_5
REMARK    3  A    between atoms: C3_5  and  C4_6
REMARK    4  A    between atoms: C3_5  and  C12_15
ROOT
HETATM    1  C4  UNL     1      -4.429   0.999  19.255  1.00  0.00     0.077 C
HETATM    2  C5  UNL     1      -5.787   0.877  19.801  1.00  0.00     0.102 C
HETATM    3  N1  UNL     1      -6.890   0.766  20.210  1.00  0.00    -0.191 NA
HETATM    4  C6  UNL     1      -4.438   1.112  17.938  1.00  0.00    -0.057 C
HETATM    5  C7  UNL     1      -5.666   1.151  17.104  1.00  0.00     0.036 C
HETATM    6  C8  UNL     1      -5.523   0.175  15.969  1.00  0.00     0.004 C
HETATM    7  C9  UNL     1      -4.379   0.567  15.105  1.00  0.00     0.001 C
HETATM    8  C10 UNL     1      -3.333   1.411  15.737  1.00  0.00     0.004 C
HETATM    9  C11 UNL     1      -3.155   1.177  17.223  1.00  0.00     0.036 C
ENDROOT
BRANCH   1  10
HETATM   10  C3  UNL     1      -3.257   0.957  20.126  1.00  0.00     0.086 C
BRANCH  10  11
HETATM   11  O2  UNL     1      -3.219  -0.123  21.038  1.00  0.00    -0.281 OA
BRANCH  11  12
HETATM   12  C2  UNL     1      -2.311  -1.126  21.106  1.00  0.00     0.259 C
HETATM   13  C1  UNL     1      -1.252  -1.216  22.148  1.00  0.00     0.126 C
HETATM   14  O1  UNL     1      -2.349  -2.030  20.259  1.00  0.00    -0.265 OA
ENDBRANCH  11  12
ENDBRANCH  10  11
BRANCH  10  15
HETATM   15  C12 UNL     1      -2.777   2.232  20.725  1.00  0.00     0.074 C
HETATM   16  C13 UNL     1      -1.485   2.771  20.094  1.00  0.00     0.016 C
HETATM   17  C14 UNL     1      -1.303   4.144  20.782  1.00  0.00     0.005 C
HETATM   18  C15 UNL     1      -0.839   3.951  22.201  1.00  0.00    -0.015 C
HETATM   19  C16 UNL     1       0.632   4.208  22.309  1.00  0.00     0.010 C
HETATM   20  C17 UNL     1      -1.136   2.527  22.625  1.00  0.00     0.040 C
HETATM   21  C18 UNL     1      -2.515   2.224  22.174  1.00  0.00    -0.059 C
HETATM   22  C19 UNL     1      -3.430   1.981  23.066  1.00  0.00     0.097 C
HETATM   23  C20 UNL     1      -3.133   1.983  24.465  1.00  0.00     0.088 C
HETATM   24  N2  UNL     1      -2.876   1.992  25.604  1.00  0.00    -0.192 NA
ENDBRANCH  10  15
ENDBRANCH   1  10
TORSDOF 4
ENDMDL