MODEL 3
REMARK VINA RESULT: -7.379601693      2.674      5.432
REMARK  3 active torsions:
REMARK  status: ('A' for Active; 'I' for Inactive)
REMARK    1  A    between atoms: C6_6  and  C7_7
REMARK    2  A    between atoms: C7_7  and  S1_8
REMARK    3  A    between atoms: S1_8  and  C8_9
ROOT
HETATM    1  C8  UNL     1      -1.378   3.516  20.412  1.00  0.00     0.025 A
HETATM    2  C9  UNL     1      -0.489   4.013  19.481  1.00  0.00     0.107 A
HETATM    3  N1  UNL     1      -0.680   3.367  18.296  1.00  0.00    -0.367 N
ATOM      4  H1  UNL     1      -0.151   3.544  17.442  1.00  0.00     0.165 HD
HETATM    5  C10 UNL     1      -1.660   2.469  18.415  1.00  0.00     0.018 A
HETATM    6  C11 UNL     1      -2.096   2.555  19.720  1.00  0.00    -0.010 A
HETATM    7  C12 UNL     1      -3.199   1.649  20.128  1.00  0.00     0.045 C
HETATM    8  C13 UNL     1      -4.470   1.950  19.407  1.00  0.00    -0.021 C
HETATM    9  C14 UNL     1      -4.491   1.346  18.225  1.00  0.00    -0.025 C
HETATM   10  C15 UNL     1      -3.224   0.583  18.051  1.00  0.00     0.014 C
HETATM   11  C16 UNL     1      -2.229   1.532  17.416  1.00  0.00     0.066 C
HETATM   12  C17 UNL     1      -2.859   0.290  19.496  1.00  0.00     0.022 C
ENDROOT
BRANCH   1  13
HETATM   13  S1  UNL     1      -1.545   4.015  22.118  1.00  0.00    -0.122 SA
BRANCH  13  14
HETATM   14  C7  UNL     1      -0.556   2.966  23.214  1.00  0.00     0.151 C
BRANCH  14  15
HETATM   15  C6  UNL     1      -1.406   1.753  23.557  1.00  0.00     0.209 C
HETATM   16  C5  UNL     1      -2.840   2.176  23.729  1.00  0.00     0.072 C
HETATM   17  C4  UNL     1      -3.599   0.972  24.282  1.00  0.00     0.011 C
HETATM   18  C3  UNL     1      -3.261  -0.205  23.399  1.00  0.00     0.071 C
HETATM   19  C2  UNL     1      -1.768  -0.362  23.337  1.00  0.00     0.197 C
HETATM   20  C1  UNL     1      -1.331  -1.655  22.711  1.00  0.00     0.082 C
HETATM   21  O2  UNL     1      -1.158  -0.143  24.576  1.00  0.00    -0.198 OA
HETATM   22  O3  UNL     1      -1.281   0.746  22.606  1.00  0.00    -0.313 OA
HETATM   23  O1  UNL     1      -0.977   1.133  24.707  1.00  0.00    -0.197 OA
ENDBRANCH  14  15
ENDBRANCH  13  14
ENDBRANCH   1  13
TORSDOF 3
ENDMDL