MODEL 4
REMARK VINA RESULT: -7.483100588      1.698      2.197
REMARK  4 active torsions:
REMARK  status: ('A' for Active; 'I' for Inactive)
REMARK    1  A    between atoms: C2_2  and  C3_3
REMARK    2  A    between atoms: C3_3  and  C5_5
REMARK    3  A    between atoms: C5_5  and  O2_7
REMARK    4  A    between atoms: O2_7  and  C6_8
ROOT
HETATM    1  C6  UNL     1      -3.423   0.955  20.903  1.00  0.00     0.169 C
HETATM    2  C7  UNL     1      -3.158   2.200  21.766  1.00  0.00     0.044 C
HETATM    3  C8  UNL     1      -1.959   2.987  21.565  1.00  0.00    -0.042 C
HETATM    4  C9  UNL     1      -2.455   4.465  21.567  1.00  0.00     0.015 C
HETATM    5  C10 UNL     1      -1.339   2.897  20.161  1.00  0.00     0.015 C
HETATM    6  C11 UNL     1      -0.814   2.930  22.555  1.00  0.00     0.036 C
HETATM    7  C12 UNL     1      -1.012   2.383  23.875  1.00  0.00    -0.026 C
HETATM    8  C13 UNL     1      -0.897   1.037  24.330  1.00  0.00     0.003 C
HETATM    9  C14 UNL     1      -0.849  -0.190  23.883  1.00  0.00    -0.030 C
HETATM   10  C15 UNL     1      -0.710  -1.385  24.817  1.00  0.00     0.048 C
HETATM   11  C16 UNL     1      -0.920  -0.678  22.479  1.00  0.00     0.291 C
HETATM   12  O3  UNL     1      -1.675  -1.827  22.262  1.00  0.00    -0.354 OA
HETATM   13  C17 UNL     1      -2.564  -1.499  21.172  1.00  0.00     0.211 C
HETATM   14  C18 UNL     1      -2.978  -0.180  21.754  1.00  0.00     0.108 C
HETATM   15  C19 UNL     1      -3.783  -0.490  22.924  1.00  0.00     0.051 C
HETATM   16  O4  UNL     1      -1.675   0.227  21.872  1.00  0.00    -0.342 OA
ENDROOT
BRANCH   1  17
HETATM   17  O2  UNL     1      -4.803   0.765  20.656  1.00  0.00    -0.312 OA
BRANCH  17  18
HETATM   18  C5  UNL     1      -5.369   0.773  19.411  1.00  0.00     0.263 C
HETATM   19  O1  UNL     1      -6.527   0.318  19.272  1.00  0.00    -0.265 OA
BRANCH  18  20
HETATM   20  C3  UNL     1      -4.652   1.308  18.206  1.00  0.00     0.081 C
HETATM   21  C4  UNL     1      -3.425   0.500  17.895  1.00  0.00     0.020 C
BRANCH  20  22
HETATM   22  C2  UNL     1      -5.567   1.320  17.001  1.00  0.00     0.010 C
HETATM   23  C1  UNL     1      -4.785   0.688  15.857  1.00  0.00     0.006 C
ENDBRANCH  20  22
ENDBRANCH  18  20
ENDBRANCH  17  18
ENDBRANCH   1  17
TORSDOF 4
ENDMDL