MODEL 1
REMARK VINA RESULT: -8.066573643      0.000      0.000
REMARK  3 active torsions:
REMARK  status: ('A' for Active; 'I' for Inactive)
REMARK    1  A    between atoms: C2_2  and  C3_3
REMARK    2  A    between atoms: C3_3  and  C4_4
REMARK    3  A    between atoms: C4_4  and  N1_5
ROOT
HETATM    1  N1  UNL     1      -2.276   1.775  17.231  1.00  0.00    -0.335 N
HETATM    2  C5  UNL     1      -1.312   2.589  16.765  1.00  0.00     0.080 A
HETATM    3  C6  UNL     1      -0.909   2.791  15.338  1.00  0.00     0.089 C
HETATM    4  N2  UNL     1      -0.706   3.249  17.773  1.00  0.00    -0.347 N
ATOM      5  H2  UNL     1       0.054   3.923  17.682  1.00  0.00     0.167 HD
HETATM    6  C7  UNL     1      -1.283   2.861  18.903  1.00  0.00     0.037 A
HETATM    7  C8  UNL     1      -2.275   1.930  18.573  1.00  0.00     0.058 A
HETATM    8  C9  UNL     1      -3.191   1.201  19.436  1.00  0.00     0.035 C
HETATM    9  C10 UNL     1      -3.563   1.564  20.642  1.00  0.00    -0.073 C
HETATM   10  C11 UNL     1      -4.529   0.553  21.242  1.00  0.00     0.040 C
HETATM   11  C12 UNL     1      -3.727  -0.106  22.337  1.00  0.00     0.073 C
HETATM   12  C13 UNL     1      -2.788   0.813  23.064  1.00  0.00     0.164 C
HETATM   13  C14 UNL     1      -3.023   2.265  22.917  1.00  0.00     0.077 C
HETATM   14  C15 UNL     1      -3.229   2.717  21.465  1.00  0.00     0.020 C
HETATM   15  C16 UNL     1      -2.244   3.696  21.027  1.00  0.00     0.015 C
HETATM   16  C17 UNL     1      -1.015   3.269  20.305  1.00  0.00     0.060 C
HETATM   17  O1  UNL     1      -2.983   0.529  24.442  1.00  0.00    -0.355 OA
HETATM   18  C18 UNL     1      -2.087  -0.408  24.908  1.00  0.00     0.173 C
HETATM   19  C19 UNL     1      -0.725   0.298  24.967  1.00  0.00     0.053 C
HETATM   20  C20 UNL     1      -0.512   0.844  23.561  1.00  0.00     0.173 C
HETATM   21  O2  UNL     1      -1.495   0.473  22.680  1.00  0.00    -0.355 OA
ENDROOT
BRANCH   1  22
HETATM   22  C4  UNL     1      -3.145   0.906  16.513  1.00  0.00     0.130 C
BRANCH  22  23
HETATM   23  C3  UNL     1      -4.432   1.489  16.045  1.00  0.00     0.020 C
BRANCH  23  24
HETATM   24  C2  UNL     1      -5.588   0.543  16.010  1.00  0.00    -0.003 C
HETATM   25  C1  UNL     1      -6.290   0.537  17.374  1.00  0.00     0.005 C
ENDBRANCH  23  24
ENDBRANCH  22  23
ENDBRANCH   1  22
TORSDOF 3
ENDMDL