MODEL 4
REMARK VINA RESULT: -7.674636191      1.483      2.319
REMARK  4 active torsions:
REMARK  status: ('A' for Active; 'I' for Inactive)
REMARK    1  A    between atoms: C6_6  and  C7_7
REMARK    2  A    between atoms: C7_7  and  C8_8
REMARK    3  A    between atoms: C8_8  and  O2_10
REMARK    4  A    between atoms: O2_10  and  C9_11
ROOT
HETATM    1  C8  UNL     1      -2.781  -1.820  22.081  1.00  0.00     0.261 C
HETATM    2  O1  UNL     1      -3.208  -2.894  21.594  1.00  0.00    -0.265 OA
ENDROOT
BRANCH   1   3
HETATM    3  C7  UNL     1      -1.574  -1.834  22.905  1.00  0.00     0.123 C
BRANCH   3   4
HETATM    4  C6  UNL     1      -1.223  -0.553  23.578  1.00  0.00     0.064 C
HETATM    5  C5  UNL     1       0.305  -0.562  23.756  1.00  0.00     0.013 C
HETATM    6  C4  UNL     1       0.668  -0.611  25.222  1.00  0.00     0.010 C
HETATM    7  C2  UNL     1       0.265   0.700  25.845  1.00  0.00    -0.041 C
HETATM    8  C1  UNL     1       0.668   0.782  27.302  1.00  0.00     0.015 C
HETATM    9  C3  UNL     1       0.986   1.805  25.103  1.00  0.00     0.015 C
HETATM   10  C19 UNL     1      -1.246   0.806  25.704  1.00  0.00     0.087 C
HETATM   11  C18 UNL     1      -1.777  -0.368  24.926  1.00  0.00     0.132 C
HETATM   12  O4  UNL     1      -2.608  -1.049  25.483  1.00  0.00    -0.298 OA
ENDBRANCH   3   4
ENDBRANCH   1   3
BRANCH   1  13
HETATM   13  O2  UNL     1      -3.498  -0.670  21.793  1.00  0.00    -0.290 OA
BRANCH  13  14
HETATM   14  C9  UNL     1      -3.562  -0.126  20.476  1.00  0.00     0.270 C
HETATM   15  C10 UNL     1      -4.908   0.440  20.166  1.00  0.00     0.064 C
HETATM   16  C11 UNL     1      -4.626   1.879  19.793  1.00  0.00     0.043 C
HETATM   17  C12 UNL     1      -3.137   1.851  19.509  1.00  0.00     0.064 C
HETATM   18  C13 UNL     1      -2.575   3.207  19.895  1.00  0.00     0.038 C
HETATM   19  C17 UNL     1      -2.965   1.686  18.028  1.00  0.00     0.038 C
HETATM   20  O3  UNL     1      -2.605   0.832  20.258  1.00  0.00    -0.350 OA
HETATM   21  C14 UNL     1      -1.059   3.094  19.679  1.00  0.00     0.003 C
HETATM   22  C15 UNL     1      -0.841   3.016  18.202  1.00  0.00     0.000 C
HETATM   23  C16 UNL     1      -1.553   1.857  17.559  1.00  0.00     0.003 C
ENDBRANCH  13  14
ENDBRANCH   1  13
TORSDOF 4
ENDMDL