MODEL 2
REMARK VINA RESULT: -7.491321138      2.543      4.452
REMARK  2 active torsions:
REMARK  status: ('A' for Active; 'I' for Inactive)
REMARK    1  A    between atoms: C2_2  and  C3_3
REMARK    2  A    between atoms: C7_9  and  O2_10
ROOT
HETATM    1  C3  UNL     1      -0.860   2.557  23.212  1.00  0.00     0.022 C
HETATM    2  C4  UNL     1      -0.495   3.540  24.333  1.00  0.00     0.090 C
HETATM    3  S1  UNL     1       0.933   2.749  25.177  1.00  0.00    -0.104 SA
HETATM    4  C5  UNL     1       0.182   1.325  26.018  1.00  0.00     0.121 A
HETATM    5  O1  UNL     1       0.785   0.659  26.957  1.00  0.00    -0.312 OA
HETATM    6  C6  UNL     1       0.068  -0.320  27.423  1.00  0.00     0.180 A
HETATM    7  C7  UNL     1      -1.131  -0.307  26.729  1.00  0.00     0.100 A
HETATM    8  C9  UNL     1      -1.069   0.749  25.819  1.00  0.00     0.022 A
HETATM    9  C10 UNL     1      -2.133   1.108  24.906  1.00  0.00     0.030 C
HETATM   10  C11 UNL     1      -3.119  -0.048  24.842  1.00  0.00     0.011 C
HETATM   11  C12 UNL     1      -3.962  -0.013  23.566  1.00  0.00     0.018 C
HETATM   12  C13 UNL     1      -3.067  -0.341  22.380  1.00  0.00     0.021 C
HETATM   13  C14 UNL     1      -3.851  -0.126  21.122  1.00  0.00     0.024 C
HETATM   14  C15 UNL     1      -2.639  -1.770  22.411  1.00  0.00     0.135 C
HETATM   15  O3  UNL     1      -3.318  -2.737  22.602  1.00  0.00    -0.297 OA
HETATM   16  C16 UNL     1      -1.158  -1.833  22.158  1.00  0.00     0.079 C
HETATM   17  C17 UNL     1      -0.658  -0.468  22.664  1.00  0.00     0.013 C
HETATM   18  C18 UNL     1      -1.818   0.466  22.496  1.00  0.00     0.007 C
HETATM   19  C19 UNL     1      -1.894   1.575  23.541  1.00  0.00     0.008 C
ENDROOT
BRANCH   1  20
HETATM   20  C2  UNL     1      -1.270   3.458  22.104  1.00  0.00    -0.031 C
HETATM   21  C1  UNL     1      -2.446   3.964  21.869  1.00  0.00     0.007 C
ENDBRANCH   1  20
BRANCH   7  22
HETATM   22  O2  UNL     1      -2.124  -1.225  26.988  1.00  0.00    -0.353 OA
HETATM   23  C8  UNL     1      -2.436  -1.726  28.249  1.00  0.00     0.210 C
ENDBRANCH   7  22
TORSDOF 2
ENDMDL