MODEL 5
REMARK VINA RESULT: -5.756421499      1.274      1.702
REMARK  9 active torsions:
REMARK  status: ('A' for Active; 'I' for Inactive)
REMARK    1  A    between atoms: C2_2  and  C3_3
REMARK    2  A    between atoms: C3_3  and  C4_4
REMARK    3  A    between atoms: C4_4  and  C5_5
REMARK    4  A    between atoms: C5_5  and  C6_6
REMARK    5  A    between atoms: C6_6  and  O2_8
REMARK    6  A    between atoms: O2_8  and  C7_9
REMARK    7  A    between atoms: C12_14  and  O3_15
REMARK    8  A    between atoms: C14_18  and  C16_21
REMARK    9  A    between atoms: C16_21  and  O4_22
ROOT
HETATM    1  C7  UNL     1     -32.021  -0.189  40.498  1.00  0.00     0.142 C
HETATM    2  C8  UNL     1     -33.210   0.711  40.976  1.00  0.00     0.034 C
HETATM    3  C9  UNL     1     -34.244  -0.268  41.461  1.00  0.00     0.008 C
HETATM    4  C10 UNL     1     -33.654  -1.595  41.150  1.00  0.00     0.000 C
HETATM    5  C11 UNL     1     -34.618  -2.708  40.946  1.00  0.00     0.037 C
HETATM    6  C12 UNL     1     -33.754  -3.963  40.819  1.00  0.00     0.120 C
HETATM    7  C13 UNL     1     -32.344  -3.652  40.479  1.00  0.00     0.059 C
HETATM    8  C14 UNL     1     -32.128  -2.522  39.497  1.00  0.00     0.082 C
HETATM    9  C15 UNL     1     -30.677  -2.351  39.354  1.00  0.00     0.072 C
HETATM   10  N1  UNL     1     -29.516  -2.231  39.217  1.00  0.00    -0.196 NA
HETATM   11  C17 UNL     1     -32.817  -1.285  39.896  1.00  0.00     0.009 C
HETATM   12  C18 UNL     1     -33.709  -0.711  38.822  1.00  0.00     0.020 C
ENDROOT
BRANCH   8  13
HETATM   13  C16 UNL     1     -32.582  -3.090  38.143  1.00  0.00     0.189 C
BRANCH  13  14
HETATM   14  O4  UNL     1     -31.541  -3.593  37.393  1.00  0.00    -0.399 OA
ATOM     15  H4  UNL     1     -30.907  -4.073  37.912  1.00  0.00     0.209 HD
ENDBRANCH  13  14
ENDBRANCH   8  13
BRANCH   6  16
HETATM   16  O3  UNL     1     -34.357  -4.947  40.047  1.00  0.00    -0.396 OA
ATOM     17  H3  UNL     1     -33.823  -5.730  39.975  1.00  0.00     0.210 HD
ENDBRANCH   6  16
BRANCH   1  18
HETATM   18  O2  UNL     1     -31.425  -0.543  41.757  1.00  0.00    -0.315 OA
BRANCH  18  19
HETATM   19  C6  UNL     1     -30.361   0.086  42.318  1.00  0.00     0.259 C
HETATM   20  O1  UNL     1     -30.587   1.038  43.127  1.00  0.00    -0.265 OA
BRANCH  19  21
HETATM   21  C5  UNL     1     -28.935  -0.241  42.073  1.00  0.00     0.111 C
BRANCH  21  22
HETATM   22  C4  UNL     1     -28.705  -1.605  42.711  1.00  0.00     0.010 C
BRANCH  22  23
HETATM   23  C3  UNL     1     -27.291  -1.816  43.151  1.00  0.00     0.000 C
BRANCH  23  24
HETATM   24  C2  UNL     1     -27.348  -2.279  44.614  1.00  0.00    -0.005 C
HETATM   25  C1  UNL     1     -27.266  -1.092  45.550  1.00  0.00     0.005 C
ENDBRANCH  23  24
ENDBRANCH  22  23
ENDBRANCH  21  22
ENDBRANCH  19  21
ENDBRANCH  18  19
ENDBRANCH   1  18
TORSDOF 9
ENDMDL