MODEL 1
REMARK VINA RESULT: -7.533921073      0.000      0.000
REMARK  7 active torsions:
REMARK  status: ('A' for Active; 'I' for Inactive)
REMARK    1  A    between atoms: C1_2  and  C2_3
REMARK       I    between atoms: C1_2  and  N4_20
REMARK    2  A    between atoms: C2_3  and  S1_4
REMARK    3  A    between atoms: S1_4  and  C3_5
REMARK    4  A    between atoms: C4_10  and  C5_11
REMARK    5  A    between atoms: C5_11  and  C6_12
REMARK    6  A    between atoms: C6_12  and  C7_13
REMARK    7  A    between atoms: N4_20  and  C12_22
ROOT
HETATM    1  C3  UNL     1     -30.628  -2.528  38.411  1.00  0.00     0.160 A
HETATM    2  N1  UNL     1     -30.730  -2.801  37.101  1.00  0.00    -0.278 N
ATOM      3  H1  UNL     1     -30.607  -2.124  36.348  1.00  0.00     0.189 HD
HETATM    4  N2  UNL     1     -31.014  -4.085  36.933  1.00  0.00    -0.287 N
ATOM      5  H2  UNL     1     -31.147  -4.561  36.040  1.00  0.00     0.188 HD
HETATM    6  C4  UNL     1     -31.094  -4.645  38.146  1.00  0.00     0.097 A
HETATM    7  N3  UNL     1     -30.858  -3.696  39.048  1.00  0.00    -0.324 N
ATOM      8  H3  UNL     1     -30.852  -3.829  40.059  1.00  0.00     0.169 HD
ENDROOT
BRANCH   1   9
HETATM    9  S1  UNL     1     -30.264  -0.963  39.146  1.00  0.00    -0.083 SA
BRANCH   9  10
HETATM   10  C2  UNL     1     -31.090  -0.892  40.778  1.00  0.00     0.185 C
BRANCH  10  11
HETATM   11  C1  UNL     1     -30.098  -0.452  41.793  1.00  0.00     0.227 C
HETATM   12  O1  UNL     1     -30.417   0.525  42.523  1.00  0.00    -0.273 OA
HETATM   13  N4  UNL     1     -28.831  -1.107  41.942  1.00  0.00    -0.356 N
ATOM     14  H4  UNL     1     -28.594  -1.896  41.341  1.00  0.00     0.162 HD
BRANCH  13  15
HETATM   15  C12 UNL     1     -27.897  -0.659  42.930  1.00  0.00     0.084 C
HETATM   16  C13 UNL     1     -28.388  -0.804  44.334  1.00  0.00     0.025 C
HETATM   17  C14 UNL     1     -27.836  -2.123  44.835  1.00  0.00     0.002 C
HETATM   18  C15 UNL     1     -26.738  -2.499  43.893  1.00  0.00     0.002 C
HETATM   19  C16 UNL     1     -26.572  -1.378  42.894  1.00  0.00     0.025 C
ENDBRANCH  13  15
ENDBRANCH  10  11
ENDBRANCH   9  10
ENDBRANCH   1   9
BRANCH   6  20
HETATM   20  C5  UNL     1     -31.389  -6.061  38.456  1.00  0.00     0.078 C
BRANCH  20  21
HETATM   21  C6  UNL     1     -31.014  -6.318  39.891  1.00  0.00     0.012 C
BRANCH  21  22
HETATM   22  C7  UNL     1     -31.840  -7.436  40.490  1.00  0.00    -0.014 C
HETATM   23  C8  UNL     1     -32.514  -7.001  41.773  1.00  0.00     0.004 C
HETATM   24  C9  UNL     1     -32.652  -8.259  42.589  1.00  0.00     0.000 C
HETATM   25  C10 UNL     1     -31.830  -9.317  41.898  1.00  0.00     0.000 C
HETATM   26  C11 UNL     1     -30.906  -8.532  41.015  1.00  0.00     0.004 C
ENDBRANCH  21  22
ENDBRANCH  20  21
ENDBRANCH   6  20
TORSDOF 7
ENDMDL