MODEL 5
REMARK VINA RESULT: -6.614959740      1.691      5.409
REMARK  9 active torsions:
REMARK  status: ('A' for Active; 'I' for Inactive)
REMARK    1  A    between atoms: C2_2  and  O1_3
REMARK    2  A    between atoms: O1_3  and  C3_4
REMARK    3  A    between atoms: C3_4  and  C4_5
REMARK    4  A    between atoms: C4_5  and  C5_6
REMARK    5  A    between atoms: C5_6  and  N1_7
REMARK       I    between atoms: N1_7  and  C6_9
REMARK    6  A    between atoms: C6_9  and  C7_11
REMARK    7  A    between atoms: C7_11  and  N2_12
REMARK    8  A    between atoms: C11_20  and  C12_21
REMARK    9  A    between atoms: C12_21  and  C13_22
ROOT
HETATM    1  C7  UNL     1     -27.378  -0.986  43.425  1.00  0.00     0.379 C
HETATM    2  C8  UNL     1     -27.781  -0.777  44.808  1.00  0.00     0.102 C
HETATM    3  N3  UNL     1     -28.120  -0.614  45.899  1.00  0.00    -0.195 NA
ENDROOT
BRANCH   1   4
HETATM    4  C6  UNL     1     -28.579  -0.830  42.550  1.00  0.00     0.263 C
HETATM    5  N1  UNL     1     -28.900  -1.815  41.610  1.00  0.00    -0.347 N
ATOM      6  H1  UNL     1     -28.279  -2.623  41.572  1.00  0.00     0.163 HD
HETATM    7  O2  UNL     1     -29.253   0.196  42.703  1.00  0.00    -0.270 OA
BRANCH   5   8
HETATM    8  C5  UNL     1     -30.010  -1.817  40.689  1.00  0.00     0.056 C
HETATM    9  C9  UNL     1     -29.950  -0.538  39.887  1.00  0.00     0.036 C
HETATM   10  C10 UNL     1     -31.372  -0.330  39.340  1.00  0.00     0.034 C
HETATM   11  C11 UNL     1     -32.174   0.121  40.543  1.00  0.00     0.122 C
HETATM   12  O3  UNL     1     -32.004  -0.743  41.602  1.00  0.00    -0.383 OA
HETATM   13  C17 UNL     1     -31.340  -1.892  41.388  1.00  0.00     0.199 C
BRANCH   8  14
HETATM   14  C4  UNL     1     -29.913  -3.020  39.792  1.00  0.00     0.059 C
BRANCH  14  15
HETATM   15  C3  UNL     1     -30.977  -4.026  39.825  1.00  0.00     0.170 C
BRANCH  15  16
HETATM   16  O1  UNL     1     -30.659  -5.322  39.542  1.00  0.00    -0.391 OA
BRANCH  16  17
HETATM   17  C2  UNL     1     -31.642  -6.222  39.947  1.00  0.00     0.163 C
HETATM   18  C1  UNL     1     -31.026  -7.547  40.314  1.00  0.00     0.033 C
ENDBRANCH  16  17
ENDBRANCH  15  16
ENDBRANCH  14  15
ENDBRANCH   8  14
BRANCH  11  19
HETATM   19  C12 UNL     1     -33.545   0.565  40.280  1.00  0.00     0.040 C
BRANCH  19  20
HETATM   20  C13 UNL     1     -34.458   0.936  41.364  1.00  0.00    -0.049 C
HETATM   21  C14 UNL     1     -35.369  -0.126  41.880  1.00  0.00     0.014 C
HETATM   22  C15 UNL     1     -35.381   2.025  40.769  1.00  0.00     0.014 C
HETATM   23  C16 UNL     1     -33.807   1.628  42.539  1.00  0.00     0.014 C
ENDBRANCH  19  20
ENDBRANCH  11  19
ENDBRANCH   5   8
ENDBRANCH   1   4
BRANCH   1  24
HETATM   24  N2  UNL     1     -26.848  -2.343  43.333  1.00  0.00    -0.054 N
ATOM     25  H23 UNL     1     -26.456  -2.536  42.411  1.00  0.00     0.276 HD
ATOM     26  H22 UNL     1     -25.998  -2.457  43.887  1.00  0.00     0.276 HD
ATOM     27  H21 UNL     1     -27.561  -3.025  43.591  1.00  0.00     0.276 HD
ENDBRANCH   1  24
TORSDOF 9
ENDMDL