MODEL 3
REMARK VINA RESULT: -7.346488678      1.661      2.542
REMARK  7 active torsions:
REMARK  status: ('A' for Active; 'I' for Inactive)
REMARK    1  A    between atoms: C2_2  and  C3_4
REMARK    2  A    between atoms: C3_4  and  C4_5
REMARK    3  A    between atoms: C4_5  and  C5_6
REMARK       I    between atoms: C5_6  and  N1_8
REMARK    4  A    between atoms: N1_8  and  N2_9
REMARK    5  A    between atoms: C6_11  and  C8_14
REMARK    6  A    between atoms: C8_14  and  C9_15
REMARK       I    between atoms: C9_15  and  N4_17
REMARK    7  A    between atoms: N4_17  and  C10_19
ROOT
HETATM    1  N2  UNL     1     -31.379  -1.838  40.307  1.00  0.00    -0.226 N
ATOM      2  H2  UNL     1     -31.524  -2.705  40.824  1.00  0.00     0.202 HD
HETATM    3  C6  UNL     1     -31.686  -2.058  39.149  1.00  0.00     0.127 C
HETATM    4  C7  UNL     1     -31.610  -1.060  38.125  1.00  0.00     0.116 C
HETATM    5  N3  UNL     1     -31.577  -0.254  37.279  1.00  0.00    -0.190 NA
ENDROOT
BRANCH   3   6
HETATM    6  C8  UNL     1     -32.171  -3.409  38.767  1.00  0.00     0.174 C
BRANCH   6   7
HETATM    7  C9  UNL     1     -31.701  -4.484  39.651  1.00  0.00     0.224 C
HETATM    8  O3  UNL     1     -30.494  -4.618  39.904  1.00  0.00    -0.273 OA
HETATM    9  N4  UNL     1     -32.647  -5.372  40.212  1.00  0.00    -0.356 N
ATOM     10  H4  UNL     1     -33.639  -5.261  40.001  1.00  0.00     0.162 HD
BRANCH   9  11
HETATM   11  C10 UNL     1     -32.207  -6.439  41.086  1.00  0.00     0.084 C
HETATM   12  C11 UNL     1     -31.890  -7.652  40.279  1.00  0.00     0.025 C
HETATM   13  C12 UNL     1     -31.042  -8.673  40.973  1.00  0.00     0.002 C
HETATM   14  C13 UNL     1     -31.777  -9.579  41.912  1.00  0.00     0.000 C
HETATM   15  C14 UNL     1     -33.144  -9.103  42.297  1.00  0.00     0.000 C
HETATM   16  C15 UNL     1     -33.020  -7.782  43.032  1.00  0.00     0.002 C
HETATM   17  C16 UNL     1     -33.332  -6.677  42.073  1.00  0.00     0.025 C
ENDBRANCH   9  11
ENDBRANCH   6   7
ENDBRANCH   3   6
BRANCH   1  18
HETATM   18  N1  UNL     1     -30.962  -0.993  41.119  1.00  0.00    -0.286 NA
HETATM   19  C5  UNL     1     -30.501  -0.057  42.019  1.00  0.00     0.312 C
HETATM   20  O2  UNL     1     -31.123   0.899  42.552  1.00  0.00    -0.255 OA
BRANCH  19  21
HETATM   21  C4  UNL     1     -29.042  -0.212  42.409  1.00  0.00     0.128 C
BRANCH  21  22
HETATM   22  C3  UNL     1     -28.847   0.385  43.759  1.00  0.00     0.088 C
BRANCH  22  23
HETATM   23  C2  UNL     1     -28.258  -0.591  44.698  1.00  0.00     0.123 C
HETATM   24  C1  UNL     1     -27.769  -1.873  44.032  1.00  0.00     0.091 C
HETATM   25  O1  UNL     1     -28.142  -0.452  45.908  1.00  0.00    -0.298 OA
ENDBRANCH  22  23
ENDBRANCH  21  22
ENDBRANCH  19  21
ENDBRANCH   1  18
TORSDOF 7
ENDMDL