MODEL 5
REMARK VINA RESULT: -5.642294218      2.394      4.379
REMARK  9 active torsions:
REMARK  status: ('A' for Active; 'I' for Inactive)
REMARK    1  A    between atoms: C2_2  and  C4_4
REMARK    2  A    between atoms: C4_4  and  C5_5
REMARK    3  A    between atoms: C7_7  and  O1_8
REMARK    4  A    between atoms: C9_11  and  C11_13
REMARK    5  A    between atoms: C11_13  and  O2_14
REMARK    6  A    between atoms: C11_13  and  C12_16
REMARK    7  A    between atoms: C12_16  and  C13_17
REMARK    8  A    between atoms: C13_17  and  C14_18
REMARK    9  A    between atoms: C17_23  and  C18_24
ROOT
HETATM    1  C5  UNL     1     -33.437  -3.037  38.811  1.00  0.00     0.034 C
HETATM    2  C6  UNL     1     -33.657  -2.563  40.145  1.00  0.00     0.042 C
HETATM    3  C7  UNL     1     -32.748  -2.734  41.283  1.00  0.00     0.121 C
HETATM    4  C8  UNL     1     -31.435  -2.184  41.399  1.00  0.00     0.072 C
HETATM    5  C9  UNL     1     -30.972  -0.993  40.656  1.00  0.00     0.095 C
HETATM    6  C10 UNL     1     -31.644   0.296  40.987  1.00  0.00     0.049 C
HETATM    7  O3  UNL     1     -30.861  -1.247  39.288  1.00  0.00    -0.304 OA
HETATM    8  C16 UNL     1     -31.086  -2.275  38.396  1.00  0.00     0.293 C
HETATM    9  O4  UNL     1     -30.253  -2.236  37.435  1.00  0.00    -0.259 OA
HETATM   10  C17 UNL     1     -32.053  -3.369  38.327  1.00  0.00     0.059 C
ENDROOT
BRANCH   5  11
HETATM   11  C11 UNL     1     -29.523  -0.807  41.175  1.00  0.00     0.153 C
BRANCH  11  12
HETATM   12  O2  UNL     1     -28.889  -2.044  41.280  1.00  0.00    -0.393 OA
ATOM     13  H2  UNL     1     -29.308  -2.677  40.709  1.00  0.00     0.210 HD
ENDBRANCH  11  12
BRANCH  11  14
HETATM   14  C12 UNL     1     -29.533  -0.194  42.552  1.00  0.00     0.035 C
BRANCH  14  15
HETATM   15  C13 UNL     1     -28.143  -0.271  43.100  1.00  0.00     0.002 C
BRANCH  15  16
HETATM   16  C14 UNL     1     -28.083  -0.698  44.536  1.00  0.00    -0.004 C
HETATM   17  C15 UNL     1     -27.621  -2.154  44.550  1.00  0.00     0.005 C
ENDBRANCH  15  16
ENDBRANCH  14  15
ENDBRANCH  11  14
ENDBRANCH   5  11
BRANCH   3  18
HETATM   18  O1  UNL     1     -32.698  -4.123  41.588  1.00  0.00    -0.395 OA
ATOM     19  H1  UNL     1     -33.107  -4.246  42.436  1.00  0.00     0.210 HD
ENDBRANCH   3  18
BRANCH  10  20
HETATM   20  C18 UNL     1     -31.541  -4.687  38.770  1.00  0.00     0.272 C
HETATM   21  O5  UNL     1     -30.550  -4.670  39.499  1.00  0.00    -0.302 OA
ENDBRANCH  10  20
BRANCH   1  22
HETATM   22  C4  UNL     1     -34.295  -4.179  38.322  1.00  0.00     0.042 C
BRANCH  22  23
HETATM   23  C2  UNL     1     -34.658  -4.219  36.922  1.00  0.00    -0.092 C
HETATM   24  C1  UNL     1     -35.218  -3.254  36.247  1.00  0.00     0.014 C
HETATM   25  C3  UNL     1     -34.380  -5.498  36.146  1.00  0.00     0.042 C
ENDBRANCH  22  23
ENDBRANCH   1  22
TORSDOF 9
ENDMDL