MODEL 5
REMARK VINA RESULT: -6.033505630      2.652      5.068
REMARK  7 active torsions:
REMARK  status: ('A' for Active; 'I' for Inactive)
REMARK    1  A    between atoms: N1_4  and  N2_6
REMARK    2  A    between atoms: C4_8  and  C5_9
REMARK    3  A    between atoms: C4_8  and  C11_20
REMARK       I    between atoms: C5_9  and  N3_11
REMARK    4  A    between atoms: N3_11  and  C6_12
REMARK    5  A    between atoms: N3_11  and  C9_16
REMARK    6  A    between atoms: C6_12  and  C7_13
REMARK    7  A    between atoms: C9_16  and  C10_17
ROOT
HETATM    1  C7  UNL     1     -31.641  -4.856  37.658  1.00  0.00     0.143 C
HETATM    2  C8  UNL     1     -31.103  -5.805  36.694  1.00  0.00     0.060 C
HETATM    3  N4  UNL     1     -30.694  -6.580  35.938  1.00  0.00    -0.197 NA
ENDROOT
BRANCH   1   4
HETATM    4  C6  UNL     1     -30.673  -3.933  38.294  1.00  0.00     0.141 C
BRANCH   4   5
HETATM    5  N3  UNL     1     -30.661  -2.557  37.988  1.00  0.00    -0.336 N
HETATM    6  C5  UNL     1     -30.445  -1.541  38.945  1.00  0.00     0.268 C
HETATM    7  O1  UNL     1     -30.483  -0.309  38.552  1.00  0.00    -0.266 OA
BRANCH   6   8
HETATM    8  C4  UNL     1     -30.168  -1.742  40.391  1.00  0.00     0.097 C
HETATM    9  N2  UNL     1     -29.034  -2.028  40.815  1.00  0.00    -0.299 N
ATOM     10  H2  UNL     1     -28.367  -2.097  40.046  1.00  0.00     0.186 HD
BRANCH   9  11
HETATM   11  N1  UNL     1     -28.448  -2.265  41.963  1.00  0.00    -0.309 N
HETATM   12  C2  UNL     1     -28.122  -1.514  42.933  1.00  0.00    -0.004 C
HETATM   13  C1  UNL     1     -27.453  -2.140  44.111  1.00  0.00     0.064 C
HETATM   14  C3  UNL     1     -28.353  -0.051  42.998  1.00  0.00     0.064 C
ATOM     15  H1  UNL     1     -28.207  -3.247  42.105  1.00  0.00     0.186 HD
ENDBRANCH   9  11
BRANCH   8  16
HETATM   16  C11 UNL     1     -31.352  -1.535  41.274  1.00  0.00     0.043 C
HETATM   17  C12 UNL     1     -31.648  -0.137  41.665  1.00  0.00     0.011 C
HETATM   18  C13 UNL     1     -32.783   0.460  40.830  1.00  0.00     0.001 C
HETATM   19  C14 UNL     1     -34.081  -0.255  41.231  1.00  0.00     0.000 C
HETATM   20  C15 UNL     1     -33.768  -1.717  41.537  1.00  0.00     0.001 C
HETATM   21  C16 UNL     1     -32.615  -2.137  40.611  1.00  0.00     0.011 C
ENDBRANCH   8  16
ENDBRANCH   6   8
BRANCH   5  22
HETATM   22  C9  UNL     1     -30.771  -2.057  36.604  1.00  0.00     0.239 C
BRANCH  22  23
HETATM   23  C10 UNL     1     -32.072  -1.589  36.196  1.00  0.00     0.191 C
HETATM   24  O2  UNL     1     -32.163  -0.892  35.155  1.00  0.00    -0.647 OA
HETATM   25  O3  UNL     1     -33.242  -1.851  36.878  1.00  0.00    -0.647 OA
ENDBRANCH  22  23
ENDBRANCH   5  22
ENDBRANCH   4   5
ENDBRANCH   1   4
TORSDOF 7
ENDMDL