MODEL 3
REMARK VINA RESULT: -6.134895031      3.717      5.699
REMARK  7 active torsions:
REMARK  status: ('A' for Active; 'I' for Inactive)
REMARK    1  A    between atoms: C2_2  and  C4_4
REMARK    2  A    between atoms: C4_4  and  C5_5
REMARK    3  A    between atoms: C5_5  and  S1_6
REMARK    4  A    between atoms: C5_5  and  C11_19
REMARK    5  A    between atoms: S1_6  and  C6_7
REMARK    6  A    between atoms: N3_13  and  C8_15
REMARK       I    between atoms: C11_19  and  N4_21
REMARK    7  A    between atoms: N4_21  and  C12_23
ROOT
HETATM    1  S1  UNL     1     -30.748  -2.838  38.946  1.00  0.00    -0.070 SA
ENDROOT
BRANCH   1   2
HETATM    2  C5  UNL     1     -32.448  -3.204  39.444  1.00  0.00     0.148 C
BRANCH   2   3
HETATM    3  C4  UNL     1     -32.768  -2.561  40.777  1.00  0.00     0.029 C
BRANCH   3   4
HETATM    4  C2  UNL     1     -33.674  -1.374  40.648  1.00  0.00    -0.021 C
HETATM    5  C1  UNL     1     -32.922  -0.169  41.178  1.00  0.00     0.009 C
HETATM    6  C3  UNL     1     -34.973  -1.515  41.367  1.00  0.00     0.009 C
ENDBRANCH   3   4
ENDBRANCH   2   3
BRANCH   2   7
HETATM    7  C11 UNL     1     -32.674  -4.662  39.563  1.00  0.00     0.232 C
HETATM    8  O2  UNL     1     -33.325  -5.272  38.678  1.00  0.00    -0.272 OA
HETATM    9  N4  UNL     1     -32.195  -5.447  40.645  1.00  0.00    -0.356 N
ATOM     10  H4  UNL     1     -31.661  -4.981  41.378  1.00  0.00     0.162 HD
BRANCH   9  11
HETATM   11  C12 UNL     1     -32.421  -6.858  40.763  1.00  0.00     0.076 C
HETATM   12  C13 UNL     1     -32.728  -7.262  42.181  1.00  0.00     0.032 C
HETATM   13  C14 UNL     1     -31.122  -7.549  40.335  1.00  0.00     0.032 C
ENDBRANCH   9  11
ENDBRANCH   2   7
ENDBRANCH   1   2
BRANCH   1  14
HETATM   14  C6  UNL     1     -29.844  -1.951  40.187  1.00  0.00     0.205 A
HETATM   15  N1  UNL     1     -29.450  -0.655  40.187  1.00  0.00    -0.271 N
HETATM   16  N2  UNL     1     -28.803  -0.419  41.316  1.00  0.00    -0.263 N
ATOM     17  H1  UNL     1     -29.622   0.022  39.444  1.00  0.00     0.189 HD
HETATM   18  C7  UNL     1     -28.807  -1.574  41.996  1.00  0.00     0.241 A
ATOM     19  H2  UNL     1     -28.386   0.463  41.611  1.00  0.00     0.190 HD
HETATM   20  N3  UNL     1     -28.275  -1.758  43.151  1.00  0.00    -0.350 N
HETATM   21  O1  UNL     1     -29.435  -2.497  41.313  1.00  0.00    -0.253 OA
ATOM     22  H3  UNL     1     -28.330  -2.676  43.591  1.00  0.00     0.163 HD
BRANCH  20  23
HETATM   23  C8  UNL     1     -27.600  -0.682  43.835  1.00  0.00     0.085 A
HETATM   24  C9  UNL     1     -27.540  -0.872  45.344  1.00  0.00     0.027 A
HETATM   25  C10 UNL     1     -28.352   0.207  44.762  1.00  0.00     0.027 A
ENDBRANCH  20  23
ENDBRANCH   1  14
TORSDOF 7
ENDMDL