MODEL 4
REMARK VINA RESULT: -6.253433734      2.561      3.021
REMARK  9 active torsions:
REMARK  status: ('A' for Active; 'I' for Inactive)
REMARK    1  A    between atoms: C3_3  and  C4_4
REMARK    2  A    between atoms: C4_4  and  C5_5
REMARK    3  A    between atoms: C5_5  and  C6_6
REMARK    4  A    between atoms: C8_8  and  O1_9
REMARK    5  A    between atoms: C9_11  and  C11_13
REMARK    6  A    between atoms: C12_14  and  C13_15
REMARK    7  A    between atoms: C15_18  and  C16_19
REMARK    8  A    between atoms: C16_19  and  C17_20
REMARK    9  A    between atoms: C17_20  and  O3_21
ROOT
HETATM    1  C6  UNL     1     -29.619  -0.372  41.904  1.00  0.00     0.163 C
HETATM    2  C7  UNL     1     -30.877   0.111  41.266  1.00  0.00     0.070 C
HETATM    3  C8  UNL     1     -31.287  -0.702  40.064  1.00  0.00     0.162 C
HETATM    4  C9  UNL     1     -30.854  -2.147  40.178  1.00  0.00     0.136 C
HETATM    5  C10 UNL     1     -31.991  -2.938  40.837  1.00  0.00     0.057 C
HETATM    6  O4  UNL     1     -29.677  -2.300  40.869  1.00  0.00    -0.223 OA
HETATM    7  O5  UNL     1     -29.683  -1.763  42.056  1.00  0.00    -0.234 OA
ENDROOT
BRANCH   4   8
HETATM    8  C11 UNL     1     -30.678  -2.709  38.811  1.00  0.00     0.015 C
HETATM    9  C12 UNL     1     -31.692  -3.228  38.129  1.00  0.00     0.004 C
BRANCH   9  10
HETATM   10  C13 UNL     1     -31.574  -3.793  36.786  1.00  0.00     0.150 C
HETATM   11  O2  UNL     1     -32.567  -3.438  35.875  1.00  0.00    -0.381 OA
HETATM   12  C14 UNL     1     -32.302  -4.674  35.238  1.00  0.00     0.176 C
HETATM   13  C15 UNL     1     -32.020  -5.228  36.611  1.00  0.00     0.044 C
BRANCH  13  14
HETATM   14  C16 UNL     1     -30.915  -6.204  36.734  1.00  0.00     0.035 C
BRANCH  14  15
HETATM   15  C17 UNL     1     -31.298  -7.635  36.552  1.00  0.00     0.164 C
BRANCH  15  16
HETATM   16  O3  UNL     1     -30.270  -8.242  35.791  1.00  0.00    -0.401 OA
ATOM     17  H3  UNL     1     -30.024  -7.622  35.115  1.00  0.00     0.209 HD
ENDBRANCH  15  16
ENDBRANCH  14  15
ENDBRANCH  13  14
ENDBRANCH   9  10
ENDBRANCH   4   8
BRANCH   3  18
HETATM   18  O1  UNL     1     -30.769  -0.093  38.923  1.00  0.00    -0.392 OA
ATOM     19  H1  UNL     1     -31.153  -0.509  38.160  1.00  0.00     0.210 HD
ENDBRANCH   3  18
BRANCH   1  20
HETATM   20  C5  UNL     1     -29.480   0.217  43.290  1.00  0.00     0.039 C
BRANCH  20  21
HETATM   21  C4  UNL     1     -28.038   0.106  43.735  1.00  0.00     0.029 C
BRANCH  21  22
HETATM   22  C3  UNL     1     -27.905  -0.604  45.012  1.00  0.00    -0.031 C
HETATM   23  C2  UNL     1     -27.352  -1.803  45.045  1.00  0.00    -0.035 C
HETATM   24  C1  UNL     1     -26.847  -2.470  43.789  1.00  0.00     0.036 C
ENDBRANCH  21  22
ENDBRANCH  20  21
ENDBRANCH   1  20
TORSDOF 9
ENDMDL