MODEL 3
REMARK VINA RESULT: -6.957073158      1.396      2.937
REMARK  7 active torsions:
REMARK  status: ('A' for Active; 'I' for Inactive)
REMARK    1  A    between atoms: C2_2  and  C3_3
REMARK    2  A    between atoms: C3_3  and  C4_4
REMARK    3  A    between atoms: C4_4  and  C5_5
REMARK    4  A    between atoms: C4_4  and  N3_18
REMARK    5  A    between atoms: C5_5  and  S1_6
REMARK    6  A    between atoms: S1_6  and  C6_7
REMARK    7  A    between atoms: N3_18  and  C12_20
ROOT
HETATM    1  C6  UNL     1     -31.405  -4.461  39.420  1.00  0.00     0.013 A
HETATM    2  C7  UNL     1     -31.329  -4.442  38.088  1.00  0.00     0.125 A
HETATM    3  C8  UNL     1     -31.250  -3.201  37.353  1.00  0.00     0.106 C
HETATM    4  N1  UNL     1     -31.180  -2.213  36.747  1.00  0.00    -0.191 NA
HETATM    5  C9  UNL     1     -31.304  -5.672  37.313  1.00  0.00     0.269 A
HETATM    6  O1  UNL     1     -31.234  -5.652  36.040  1.00  0.00    -0.266 OA
HETATM    7  N2  UNL     1     -31.361  -6.879  38.047  1.00  0.00    -0.292 N
ATOM      8  H2  UNL     1     -31.346  -7.763  37.540  1.00  0.00     0.172 HD
HETATM    9  C10 UNL     1     -31.438  -6.903  39.452  1.00  0.00     0.229 A
HETATM   10  O2  UNL     1     -31.454  -8.053  40.027  1.00  0.00    -0.273 OA
HETATM   11  C11 UNL     1     -31.499  -5.667  40.245  1.00  0.00     0.150 A
ENDROOT
BRANCH   1  12
HETATM   12  S1  UNL     1     -31.396  -2.849  40.202  1.00  0.00    -0.130 SA
BRANCH  12  13
HETATM   13  C5  UNL     1     -29.679  -2.413  40.579  1.00  0.00     0.103 C
BRANCH  13  14
HETATM   14  C4  UNL     1     -29.713  -1.264  41.567  1.00  0.00     0.086 C
BRANCH  14  15
HETATM   15  C3  UNL     1     -30.582  -0.192  40.937  1.00  0.00     0.025 C
BRANCH  15  16
HETATM   16  C2  UNL     1     -31.421   0.543  41.933  1.00  0.00    -0.002 C
HETATM   17  C1  UNL     1     -32.880   0.600  41.509  1.00  0.00     0.005 C
ENDBRANCH  15  16
ENDBRANCH  14  15
BRANCH  14  18
HETATM   18  N3  UNL     1     -28.468  -0.689  41.878  1.00  0.00    -0.412 N
ATOM     19  H3  UNL     1     -27.939  -0.212  41.147  1.00  0.00     0.154 HD
BRANCH  18  20
HETATM   20  C12 UNL     1     -27.944  -0.759  43.166  1.00  0.00     0.077 C
HETATM   21  C13 UNL     1     -27.976  -2.061  43.891  1.00  0.00     0.024 C
HETATM   22  C14 UNL     1     -27.208  -1.653  45.165  1.00  0.00     0.002 C
HETATM   23  C15 UNL     1     -27.711  -0.228  45.430  1.00  0.00     0.002 C
HETATM   24  C16 UNL     1     -28.528   0.167  44.209  1.00  0.00     0.024 C
ENDBRANCH  18  20
ENDBRANCH  14  18
ENDBRANCH  13  14
ENDBRANCH  12  13
ENDBRANCH   1  12
TORSDOF 7
ENDMDL