MODEL 5
REMARK VINA RESULT: -7.054506153      4.478      6.610
REMARK  3 active torsions:
REMARK  status: ('A' for Active; 'I' for Inactive)
REMARK    1  A    between atoms: C2_2  and  C4_4
REMARK    2  A    between atoms: C5_7  and  C6_8
REMARK    3  A    between atoms: C18_24  and  O1_25
ROOT
HETATM    1  C4  UNL     1      32.009   8.275  27.366  1.00  0.00     0.066 A
HETATM    2  N1  UNL     1      32.296   9.132  26.397  1.00  0.00    -0.344 N
ATOM      3  H1  UNL     1      33.205   9.074  25.938  1.00  0.00     0.167 HD
HETATM    4  C5  UNL     1      31.420  10.079  26.000  1.00  0.00     0.105 A
HETATM    5  N2  UNL     1      30.244  10.119  26.627  1.00  0.00    -0.286 N
ATOM      6  H2  UNL     1      29.581  10.833  26.325  1.00  0.00     0.188 HD
HETATM    7  N3  UNL     1      29.861   9.316  27.605  1.00  0.00    -0.277 N
ATOM      8  H3  UNL     1      28.945   9.400  28.048  1.00  0.00     0.189 HD
HETATM    9  C18 UNL     1      30.757   8.379  27.981  1.00  0.00     0.178 A
ENDROOT
BRANCH   4  10
HETATM   10  C6  UNL     1      31.686  11.007  24.860  1.00  0.00     0.021 C
HETATM   11  C7  UNL     1      32.641  10.324  23.920  1.00  0.00     0.022 C
HETATM   12  C8  UNL     1      33.279  11.249  22.950  1.00  0.00    -0.013 C
HETATM   13  C9  UNL     1      34.062  12.287  23.730  1.00  0.00     0.009 C
HETATM   14  C13 UNL     1      32.356  11.944  22.001  1.00  0.00     0.010 C
HETATM   15  C10 UNL     1      33.057  13.100  24.505  1.00  0.00    -0.013 C
HETATM   16  C11 UNL     1      32.085  13.839  23.637  1.00  0.00     0.010 C
HETATM   17  C17 UNL     1      32.277  12.258  25.456  1.00  0.00     0.022 C
HETATM   18  C12 UNL     1      31.411  12.909  22.669  1.00  0.00    -0.010 C
HETATM   19  C14 UNL     1      30.182  12.258  23.258  1.00  0.00    -0.013 C
HETATM   20  C15 UNL     1      29.343  11.774  22.052  1.00  0.00     0.010 C
HETATM   21  C16 UNL     1      30.367  11.169  24.187  1.00  0.00     0.022 C
ENDBRANCH   4  10
BRANCH   1  22
HETATM   22  C2  UNL     1      32.882   7.194  27.868  1.00  0.00     0.032 C
HETATM   23  C1  UNL     1      33.602   7.511  29.133  1.00  0.00     0.016 C
HETATM   24  C3  UNL     1      33.905   6.933  26.729  1.00  0.00     0.016 C
ENDBRANCH   1  22
BRANCH   9  25
HETATM   25  O1  UNL     1      30.381   7.528  29.019  1.00  0.00    -0.344 OA
ATOM     26  H1  UNL     1      30.648   7.689  29.917  1.00  0.00     0.219 HD
ENDBRANCH   9  25
TORSDOF 3
ENDMDL