MODEL 2
REMARK VINA RESULT: -5.713491269      1.204      3.794
REMARK  2 active torsions:
REMARK  status: ('A' for Active; 'I' for Inactive)
REMARK    1  A    between atoms: C2_2  and  C4_4
REMARK    2  A    between atoms: C5_5  and  C6_6
ROOT
HETATM    1  C6  UNL     1      32.779   9.080  23.953  1.00  0.00    -0.021 C
HETATM    2  C7  UNL     1      31.921   8.190  24.506  1.00  0.00     0.080 C
HETATM    3  N1  UNL     1      30.591   8.680  24.870  1.00  0.00    -0.351 N
ATOM      4  H1  UNL     1      29.933   9.035  24.176  1.00  0.00     0.166 HD
HETATM    5  C8  UNL     1      30.286   8.631  26.211  1.00  0.00     0.180 C
HETATM    6  N2  UNL     1      31.190   8.139  27.213  1.00  0.00    -0.350 N
HETATM    7  C9  UNL     1      30.692   8.148  28.553  1.00  0.00     0.153 C
HETATM    8  C10 UNL     1      32.539   7.658  26.888  1.00  0.00     0.136 C
HETATM    9  C11 UNL     1      33.044   7.031  28.185  1.00  0.00     0.071 C
HETATM   10  C12 UNL     1      33.583   8.554  26.445  1.00  0.00     0.062 C
HETATM   11  C13 UNL     1      34.534   8.301  25.369  1.00  0.00     0.020 C
HETATM   12  C14 UNL     1      34.152   8.497  23.903  1.00  0.00     0.009 C
HETATM   13  C15 UNL     1      35.175   9.300  23.186  1.00  0.00     0.022 C
HETATM   14  C16 UNL     1      34.050   7.178  23.183  1.00  0.00     0.250 C
HETATM   15  N3  UNL     1      33.394   6.257  24.060  1.00  0.00    -0.036 N
ATOM     16  H31 UNL     1      34.057   5.862  24.727  1.00  0.00     0.281 HD
ATOM     17  H32 UNL     1      33.130   5.409  23.558  1.00  0.00     0.281 HD
HETATM   18  C17 UNL     1      32.274   6.804  24.738  1.00  0.00     0.268 C
HETATM   19  C18 UNL     1      31.076   5.954  24.248  1.00  0.00     0.086 C
HETATM   20  O1  UNL     1      32.382   6.513  26.073  1.00  0.00    -0.319 OA
ENDROOT
BRANCH   1  21
HETATM   21  C5  UNL     1      32.368  10.430  23.718  1.00  0.00     0.006 C
HETATM   22  C4  UNL     1      32.335  11.488  24.432  1.00  0.00    -0.022 C
BRANCH  22  23
HETATM   23  C2  UNL     1      31.828  12.803  23.867  1.00  0.00    -0.000 C
HETATM   24  C1  UNL     1      32.736  13.945  24.193  1.00  0.00     0.013 C
HETATM   25  C3  UNL     1      31.596  12.705  22.387  1.00  0.00     0.013 C
ENDBRANCH  22  23
ENDBRANCH   1  21
TORSDOF 2
ENDMDL