MODEL 2
REMARK VINA RESULT: -7.306440594      0.987      1.042
REMARK  2 active torsions:
REMARK  status: ('A' for Active; 'I' for Inactive)
REMARK    1  A    between atoms: C9_10  and  S1_11
REMARK    2  A    between atoms: S1_11  and  C10_12
ROOT
HETATM    1  O1  UNL     1      32.673   9.390  23.771  1.00  0.00    -0.297 OA
HETATM    2  C1  UNL     1      32.322  10.295  24.529  1.00  0.00     0.141 C
HETATM    3  C2  UNL     1      32.983  11.595  24.463  1.00  0.00     0.079 C
HETATM    4  C3  UNL     1      32.202  12.686  23.770  1.00  0.00     0.007 C
HETATM    5  C4  UNL     1      31.838  12.373  22.368  1.00  0.00     0.000 C
HETATM    6  C5  UNL     1      30.406  12.519  22.004  1.00  0.00     0.000 C
HETATM    7  C6  UNL     1      29.422  12.053  23.039  1.00  0.00     0.000 C
HETATM    8  C7  UNL     1      29.756  10.654  23.543  1.00  0.00     0.002 C
HETATM    9  C8  UNL     1      29.925  10.603  25.018  1.00  0.00     0.023 C
HETATM   10  C9  UNL     1      31.232  10.044  25.497  1.00  0.00     0.123 C
ENDROOT
BRANCH  10  11
HETATM   11  S1  UNL     1      31.016   8.261  25.783  1.00  0.00    -0.091 SA
BRANCH  11  12
HETATM   12  C10 UNL     1      31.692   7.800  27.386  1.00  0.00     0.130 A
HETATM   13  N1  UNL     1      31.146   7.906  28.587  1.00  0.00    -0.287 N
HETATM   14  N2  UNL     1      31.775   7.525  29.618  1.00  0.00    -0.283 N
ATOM     15  H1  UNL     1      30.210   8.299  28.682  1.00  0.00     0.188 HD
HETATM   16  C11 UNL     1      33.000   7.014  29.478  1.00  0.00     0.159 A
ATOM     17  H2  UNL     1      31.352   7.607  30.543  1.00  0.00     0.188 HD
HETATM   18  S2  UNL     1      34.011   6.453  30.650  1.00  0.00    -0.051 SA
HETATM   19  S3  UNL     1      33.217   7.103  27.778  1.00  0.00    -0.033 SA
ENDBRANCH  11  12
ENDBRANCH  10  11
TORSDOF 2
ENDMDL