MODEL 3
REMARK VINA RESULT: -6.954374013      2.312      6.331
REMARK  3 active torsions:
REMARK  status: ('A' for Active; 'I' for Inactive)
REMARK    1  A    between atoms: O1_2  and  C2_3
REMARK    2  A    between atoms: C7_8  and  O2_9
REMARK    3  A    between atoms: C9_11  and  O3_12
ROOT
HETATM    1  C2  UNL     1      32.222  11.308  23.684  1.00  0.00     0.104 A
HETATM    2  C3  UNL     1      33.266  10.420  23.834  1.00  0.00     0.077 A
HETATM    3  C4  UNL     1      33.086   9.103  24.268  1.00  0.00     0.081 A
HETATM    4  C5  UNL     1      31.800   8.716  24.547  1.00  0.00     0.007 A
HETATM    5  C6  UNL     1      30.735   9.612  24.398  1.00  0.00     0.052 A
HETATM    6  C7  UNL     1      30.935  10.903  23.969  1.00  0.00     0.102 A
HETATM    7  C9  UNL     1      31.523   7.354  25.006  1.00  0.00     0.157 C
HETATM    8  C10 UNL     1      32.685   6.486  25.277  1.00  0.00     0.075 C
HETATM    9  C11 UNL     1      33.922   6.829  24.493  1.00  0.00     0.070 C
HETATM   10  C12 UNL     1      35.124   6.116  25.035  1.00  0.00     0.038 C
HETATM   11  C13 UNL     1      35.140   4.656  24.722  1.00  0.00     0.003 C
HETATM   12  C14 UNL     1      35.494   4.334  23.302  1.00  0.00     0.000 C
HETATM   13  C15 UNL     1      36.024   5.497  22.532  1.00  0.00     0.000 C
HETATM   14  C16 UNL     1      34.973   6.518  22.264  1.00  0.00     0.003 C
HETATM   15  C17 UNL     1      33.707   6.360  23.048  1.00  0.00     0.038 C
HETATM   16  O4  UNL     1      34.130   8.229  24.412  1.00  0.00    -0.339 OA
ENDROOT
BRANCH   7  17
HETATM   17  O3  UNL     1      30.676   7.456  26.126  1.00  0.00    -0.391 OA
ATOM     18  H3  UNL     1      30.745   8.347  26.451  1.00  0.00     0.210 HD
ENDBRANCH   7  17
BRANCH   1  19
HETATM   19  O1  UNL     1      32.416  12.606  23.254  1.00  0.00    -0.353 OA
HETATM   20  C1  UNL     1      32.769  13.575  24.222  1.00  0.00     0.210 C
ENDBRANCH   1  19
BRANCH   6  21
HETATM   21  O2  UNL     1      29.851  11.791  23.826  1.00  0.00    -0.353 OA
HETATM   22  C8  UNL     1      29.191  11.839  22.575  1.00  0.00     0.210 C
ENDBRANCH   6  21
TORSDOF 3
ENDMDL