MODEL 4
REMARK VINA RESULT: -7.136027411      3.492      7.288
REMARK  3 active torsions:
REMARK  status: ('A' for Active; 'I' for Inactive)
REMARK    1  A    between atoms: C3_4  and  O2_5
REMARK    2  A    between atoms: N1_14  and  C10_15
REMARK    3  A    between atoms: C10_15  and  C11_16
ROOT
HETATM    1  C1  UNL     1      35.524   2.895  23.652  1.00  0.00     0.077 C
HETATM    2  C2  UNL     1      34.966   4.071  24.393  1.00  0.00     0.061 A
HETATM    3  O1  UNL     1      35.116   4.357  25.647  1.00  0.00    -0.292 OA
HETATM    4  C3  UNL     1      34.484   5.459  25.935  1.00  0.00     0.193 A
HETATM    5  C4  UNL     1      33.881   5.924  24.790  1.00  0.00     0.045 A
HETATM    6  C5  UNL     1      34.189   5.032  23.796  1.00  0.00     0.009 A
HETATM    7  C6  UNL     1      33.542   5.531  22.562  1.00  0.00     0.211 C
HETATM    8  O3  UNL     1      32.569   6.412  22.983  1.00  0.00    -0.370 OA
HETATM    9  C7  UNL     1      33.050   6.958  24.146  1.00  0.00     0.097 C
HETATM   10  C8  UNL     1      33.869   8.192  23.803  1.00  0.00     0.073 C
HETATM   11  C9  UNL     1      33.302   9.372  24.553  1.00  0.00     0.276 C
HETATM   12  N1  UNL     1      31.942   9.612  24.021  1.00  0.00     0.089 N
HETATM   13  C16 UNL     1      31.128   8.447  24.401  1.00  0.00     0.276 C
HETATM   14  C17 UNL     1      31.932   7.369  25.087  1.00  0.00     0.073 C
ENDROOT
BRANCH   4  15
HETATM   15  O2  UNL     1      34.414   6.090  27.200  1.00  0.00    -0.340 OA
ATOM     16  H2  UNL     1      33.627   6.334  27.671  1.00  0.00     0.220 HD
ENDBRANCH   4  15
BRANCH  12  17
HETATM   17  C10 UNL     1      31.434  10.804  24.636  1.00  0.00     0.277 C
BRANCH  17  18
HETATM   18  C11 UNL     1      30.668  11.737  23.794  1.00  0.00     0.014 C
HETATM   19  C12 UNL     1      29.421  11.298  23.138  1.00  0.00     0.006 C
HETATM   20  C13 UNL     1      29.335  12.342  21.986  1.00  0.00     0.000 C
HETATM   21  C14 UNL     1      30.766  12.196  21.443  1.00  0.00     0.000 C
HETATM   22  C15 UNL     1      31.549  12.396  22.721  1.00  0.00     0.006 C
ENDBRANCH  17  18
ENDBRANCH  12  17
TORSDOF 3
ENDMDL