MODEL 3
REMARK VINA RESULT: -6.696819741      1.922      5.705
REMARK  5 active torsions:
REMARK  status: ('A' for Active; 'I' for Inactive)
REMARK    1  A    between atoms: O1_2  and  C2_3
REMARK    2  A    between atoms: C2_3  and  C3_5
REMARK    3  A    between atoms: C4_7  and  C5_8
REMARK    4  A    between atoms: C10_13  and  N1_14
REMARK       I    between atoms: N1_14  and  C11_16
REMARK    5  A    between atoms: C11_16  and  C12_18
ROOT
HETATM    1  C3  UNL     1      31.726   8.607  25.456  1.00  0.00     0.107 A
HETATM    2  S1  UNL     1      30.812  10.045  25.263  1.00  0.00    -0.086 SA
HETATM    3  C4  UNL     1      31.727  10.807  24.060  1.00  0.00    -0.007 A
HETATM    4  C9  UNL     1      32.746   9.915  23.825  1.00  0.00     0.046 A
HETATM    5  C10 UNL     1      32.751   8.768  24.553  1.00  0.00     0.059 A
ENDROOT
BRANCH   5   6
HETATM    6  N1  UNL     1      33.713   7.718  24.318  1.00  0.00    -0.325 N
HETATM    7  C11 UNL     1      33.470   6.566  23.547  1.00  0.00     0.229 C
HETATM    8  O3  UNL     1      32.380   6.351  22.976  1.00  0.00    -0.272 OA
ATOM      9  H1  UNL     1      34.636   7.819  24.740  1.00  0.00     0.169 HD
BRANCH   7  10
HETATM   10  C12 UNL     1      34.563   5.559  23.408  1.00  0.00     0.030 C
HETATM   11  C13 UNL     1      35.290   5.813  22.110  1.00  0.00     0.025 C
HETATM   12  C14 UNL     1      35.556   5.560  24.522  1.00  0.00     0.025 C
HETATM   13  C15 UNL     1      33.965   4.160  23.288  1.00  0.00     0.025 C
ENDBRANCH   7  10
ENDBRANCH   5   6
BRANCH   1  14
HETATM   14  C2  UNL     1      31.473   7.501  26.413  1.00  0.00     0.302 C
HETATM   15  O2  UNL     1      30.916   6.421  26.130  1.00  0.00    -0.259 OA
BRANCH  14  16
HETATM   16  O1  UNL     1      31.876   7.641  27.719  1.00  0.00    -0.322 OA
HETATM   17  C1  UNL     1      33.268   7.756  28.060  1.00  0.00     0.213 C
ENDBRANCH  14  16
ENDBRANCH   1  14
BRANCH   3  18
HETATM   18  C5  UNL     1      31.508  12.151  23.409  1.00  0.00    -0.018 C
HETATM   19  C6  UNL     1      29.985  12.367  23.405  1.00  0.00     0.020 C
HETATM   20  C7  UNL     1      32.086  13.280  24.188  1.00  0.00     0.020 C
HETATM   21  C8  UNL     1      31.924  12.208  21.975  1.00  0.00     0.020 C
ENDBRANCH   3  18
TORSDOF 5
ENDMDL