MODEL 5
REMARK VINA RESULT: -5.079228023      2.358      5.526
REMARK  3 active torsions:
REMARK  status: ('A' for Active; 'I' for Inactive)
REMARK    1  A    between atoms: C12_14  and  O3_15
REMARK    2  A    between atoms: O3_15  and  O4_16
REMARK    3  A    between atoms: C13_18  and  C14_19
ROOT
HETATM    1  C1  UNL     1      34.569   6.360  26.656  1.00  0.00     0.049 C
HETATM    2  C2  UNL     1      33.518   7.079  26.977  1.00  0.00     0.082 C
HETATM    3  O1  UNL     1      33.312   7.657  28.206  1.00  0.00    -0.202 OA
HETATM    4  O2  UNL     1      32.434   8.642  28.037  1.00  0.00    -0.224 OA
HETATM    5  C3  UNL     1      31.547   8.229  27.025  1.00  0.00     0.103 C
HETATM    6  C4  UNL     1      30.595   7.327  27.856  1.00  0.00     0.050 C
HETATM    7  C5  UNL     1      30.733   9.357  26.616  1.00  0.00     0.042 C
HETATM    8  C6  UNL     1      31.339  10.455  25.847  1.00  0.00     0.011 C
HETATM    9  C7  UNL     1      32.727  10.224  25.330  1.00  0.00     0.028 C
HETATM   10  C8  UNL     1      33.411  11.463  24.888  1.00  0.00    -0.012 C
HETATM   11  C9  UNL     1      32.544  12.655  24.619  1.00  0.00     0.010 C
HETATM   12  C10 UNL     1      34.231  11.032  23.716  1.00  0.00     0.008 C
HETATM   13  C11 UNL     1      34.081   9.543  23.594  1.00  0.00     0.042 C
HETATM   14  C12 UNL     1      32.778   9.170  24.280  1.00  0.00     0.105 C
HETATM   15  C13 UNL     1      32.730   7.772  24.775  1.00  0.00     0.040 C
HETATM   16  C17 UNL     1      32.344   7.429  26.129  1.00  0.00     0.089 C
ENDROOT
BRANCH  14  17
HETATM   17  O3  UNL     1      31.799   9.310  23.298  1.00  0.00    -0.231 OA
BRANCH  17  18
HETATM   18  O4  UNL     1      30.643   9.680  23.702  1.00  0.00    -0.250 OA
ATOM     19  H4  UNL     1      30.461  10.612  23.660  1.00  0.00     0.253 HD
ENDBRANCH  17  18
ENDBRANCH  14  17
BRANCH  15  20
HETATM   20  C14 UNL     1      32.120   6.788  23.764  1.00  0.00    -0.015 C
HETATM   21  C15 UNL     1      31.039   5.931  24.374  1.00  0.00     0.010 C
HETATM   22  C16 UNL     1      33.073   6.070  22.921  1.00  0.00     0.010 C
ENDBRANCH  15  20
TORSDOF 3
ENDMDL