MODEL 2
REMARK VINA RESULT: -6.676267998      4.647      5.674
REMARK  2 active torsions:
REMARK  status: ('A' for Active; 'I' for Inactive)
REMARK    1  A    between atoms: C6_7  and  C7_8
REMARK    2  A    between atoms: N1_9  and  N2_11
ROOT
HETATM    1  C1  UNL     1      32.407  11.185  24.667  1.00  0.00     0.015 C
HETATM    2  C2  UNL     1      31.992   9.722  24.842  1.00  0.00    -0.040 C
HETATM    3  C3  UNL     1      30.484   9.677  24.652  1.00  0.00     0.015 C
HETATM    4  C4  UNL     1      32.650   8.920  23.789  1.00  0.00     0.088 C
HETATM    5  C5  UNL     1      33.699   8.005  24.251  1.00  0.00     0.138 C
HETATM    6  O1  UNL     1      34.443   7.526  23.390  1.00  0.00    -0.297 OA
HETATM    7  C6  UNL     1      33.916   7.626  25.678  1.00  0.00     0.117 C
HETATM    8  C14 UNL     1      32.611   7.839  26.386  1.00  0.00     0.061 C
HETATM    9  C15 UNL     1      32.710   7.571  27.875  1.00  0.00     0.032 C
HETATM   10  C16 UNL     1      31.534   7.036  25.843  1.00  0.00     0.070 C
HETATM   11  N3  UNL     1      30.665   6.370  25.414  1.00  0.00    -0.196 NA
HETATM   12  C17 UNL     1      32.300   9.333  26.248  1.00  0.00     0.034 C
ENDROOT
BRANCH   7  13
HETATM   13  C7  UNL     1      34.423   6.240  25.789  1.00  0.00     0.094 C
HETATM   14  N1  UNL     1      35.526   5.832  25.318  1.00  0.00    -0.315 N
ATOM     15  H1  UNL     1      36.128   6.487  24.820  1.00  0.00     0.185 HD
BRANCH  14  16
HETATM   16  N2  UNL     1      35.933   4.516  25.463  1.00  0.00    -0.310 N
HETATM   17  C8  UNL     1      36.674   3.892  24.630  1.00  0.00     0.003 C
HETATM   18  C9  UNL     1      37.201   4.507  23.381  1.00  0.00     0.054 C
HETATM   19  C13 UNL     1      37.033   2.471  24.918  1.00  0.00     0.054 C
HETATM   20  C10 UNL     1      38.432   3.729  22.974  1.00  0.00     0.006 C
HETATM   21  C11 UNL     1      38.161   2.268  22.762  1.00  0.00     0.001 C
HETATM   22  C12 UNL     1      37.004   1.749  23.582  1.00  0.00     0.006 C
ATOM     23  H2  UNL     1      35.620   4.010  26.292  1.00  0.00     0.186 HD
ENDBRANCH  14  16
ENDBRANCH   7  13
TORSDOF 2
ENDMDL