MODEL 1
REMARK VINA RESULT: -6.036966533      0.000      0.000
REMARK  4 active torsions:
REMARK  status: ('A' for Active; 'I' for Inactive)
REMARK    1  A    between atoms: N1_2  and  C2_4
REMARK    2  A    between atoms: C2_4  and  O1_5
REMARK    3  A    between atoms: C2_4  and  C3_7
REMARK    4  A    between atoms: C4_8  and  N2_9
REMARK       I    between atoms: N2_9  and  C5_11
ROOT
HETATM    1  C3  UNL     1      30.902  10.600  24.541  1.00  0.00     0.057 A
HETATM    2  C4  UNL     1      30.941  11.720  23.723  1.00  0.00     0.092 A
HETATM    3  S1  UNL     1      32.509  11.676  23.044  1.00  0.00    -0.074 SA
HETATM    4  C7  UNL     1      33.087  10.263  23.792  1.00  0.00     0.003 A
HETATM    5  C8  UNL     1      32.088   9.830  24.549  1.00  0.00    -0.009 A
HETATM    6  C9  UNL     1      32.382   8.506  25.243  1.00  0.00     0.030 C
HETATM    7  C10 UNL     1      32.815   8.670  26.653  1.00  0.00     0.032 C
HETATM    8  C11 UNL     1      31.394   7.432  24.972  1.00  0.00     0.032 C
HETATM    9  S2  UNL     1      33.901   7.929  24.361  1.00  0.00    -0.150 SA
HETATM   10  C12 UNL     1      34.377   9.522  23.774  1.00  0.00     0.121 C
ENDROOT
BRANCH   1  11
HETATM   11  C2  UNL     1      29.627  10.331  25.243  1.00  0.00     0.149 C
BRANCH  11  12
HETATM   12  N1  UNL     1      29.257  10.531  26.571  1.00  0.00    -0.375 N
HETATM   13  C1  UNL     1      29.759   9.552  27.569  1.00  0.00     0.148 C
ATOM     14  H1  UNL     1      28.666  11.315  26.846  1.00  0.00     0.161 HD
ENDBRANCH  11  12
BRANCH  11  15
HETATM   15  O1  UNL     1      28.675   9.828  24.494  1.00  0.00    -0.346 OA
ATOM     16  H1  UNL     1      28.863   8.958  24.160  1.00  0.00     0.219 HD
ENDBRANCH  11  15
ENDBRANCH   1  11
BRANCH   2  17
HETATM   17  N2  UNL     1      29.969  12.762  23.478  1.00  0.00    -0.321 N
HETATM   18  C5  UNL     1      28.981  12.492  22.469  1.00  0.00     0.218 C
HETATM   19  C6  UNL     1      27.936  13.459  22.116  1.00  0.00     0.117 C
HETATM   20  O2  UNL     1      28.998  11.402  21.862  1.00  0.00    -0.274 OA
ATOM     21  H2  UNL     1      29.985  13.643  23.993  1.00  0.00     0.169 HD
ENDBRANCH   2  17
TORSDOF 4
ENDMDL