MODEL 1
REMARK VINA RESULT: -7.662108606      0.000      0.000
REMARK  3 active torsions:
REMARK  status: ('A' for Active; 'I' for Inactive)
REMARK    1  A    between atoms: C2_2  and  C5_5
REMARK    2  A    between atoms: N1_6  and  N2_8
REMARK    3  A    between atoms: N3_20  and  O1_22
ROOT
HETATM    1  N2  UNL     1      32.975   9.699  25.013  1.00  0.00    -0.323 N
HETATM    2  C6  UNL     1      33.999   9.183  24.132  1.00  0.00     0.143 C
HETATM    3  C7  UNL     1      33.663   7.699  23.929  1.00  0.00     0.022 C
HETATM    4  C8  UNL     1      33.816   7.057  25.287  1.00  0.00     0.013 C
HETATM    5  C9  UNL     1      32.805   7.580  26.281  1.00  0.00    -0.013 C
HETATM    6  C10 UNL     1      31.508   6.849  26.020  1.00  0.00     0.012 C
HETATM    7  C11 UNL     1      30.588   6.798  27.192  1.00  0.00     0.011 C
HETATM    8  C12 UNL     1      30.977   7.700  28.332  1.00  0.00     0.033 C
HETATM    9  C13 UNL     1      30.809   9.160  27.995  1.00  0.00     0.013 C
HETATM   10  C14 UNL     1      31.214   9.490  26.592  1.00  0.00     0.028 C
HETATM   11  C15 UNL     1      32.620   9.053  26.254  1.00  0.00     0.111 C
HETATM   12  C16 UNL     1      32.365   7.375  28.712  1.00  0.00     0.015 C
HETATM   13  N3  UNL     1      32.724   7.258  29.944  1.00  0.00    -0.277 N
ATOM     14  H3  UNL     1      32.021   7.395  30.670  1.00  0.00     0.193 HD
HETATM   15  C17 UNL     1      33.359   7.182  27.657  1.00  0.00     0.066 C
ENDROOT
BRANCH   1  16
HETATM   16  N1  UNL     1      32.326  10.869  24.615  1.00  0.00    -0.317 N
HETATM   17  C5  UNL     1      32.010  11.031  23.383  1.00  0.00     0.088 C
ATOM     18  H1  UNL     1      32.104  11.591  25.301  1.00  0.00     0.185 HD
BRANCH  17  19
HETATM   19  C2  UNL     1      31.318  12.258  22.906  1.00  0.00    -0.018 C
HETATM   20  C1  UNL     1      29.827  12.163  23.194  1.00  0.00     0.020 C
HETATM   21  C3  UNL     1      31.474  12.462  21.418  1.00  0.00     0.020 C
HETATM   22  C4  UNL     1      31.848  13.446  23.659  1.00  0.00     0.020 C
ENDBRANCH  17  19
ENDBRANCH   1  16
BRANCH  13  23
HETATM   23  O1  UNL     1      34.001   6.960  30.324  1.00  0.00    -0.290 OA
ATOM     24  H1  UNL     1      34.279   6.927  31.232  1.00  0.00     0.244 HD
ENDBRANCH  13  23
TORSDOF 3
ENDMDL