MODEL 2
REMARK VINA RESULT: -6.292035664      2.444      4.687
REMARK  1 active torsions:
REMARK  status: ('A' for Active; 'I' for Inactive)
REMARK    1  A    between atoms: C4_5  and  C5_6
ROOT
HETATM    1  C5  UNL     1     -21.364 -31.272 -21.051  1.00  0.00     0.097 C
HETATM    2  C6  UNL     1     -21.280 -32.592 -20.341  1.00  0.00     0.165 C
HETATM    3  C7  UNL     1     -22.329 -32.919 -19.386  1.00  0.00     0.220 C
HETATM    4  O2  UNL     1     -23.549 -33.084 -19.332  1.00  0.00    -0.282 OA
HETATM    5  S1  UNL     1     -21.117 -33.040 -18.047  1.00  0.00    -0.001 SA
HETATM    6  N1  UNL     1     -20.193 -32.448 -19.434  1.00  0.00    -0.238 NA
HETATM    7  C8  UNL     1     -19.810 -31.066 -19.369  1.00  0.00     0.114 C
HETATM    8  C9  UNL     1     -20.942 -30.272 -20.032  1.00  0.00    -0.015 C
HETATM    9  C10 UNL     1     -21.952 -29.805 -19.065  1.00  0.00     0.011 C
HETATM   10  C11 UNL     1     -21.363 -28.578 -18.349  1.00  0.00     0.001 C
HETATM   11  C12 UNL     1     -21.426 -27.361 -19.240  1.00  0.00     0.000 C
HETATM   12  C13 UNL     1     -21.232 -27.862 -20.664  1.00  0.00     0.001 C
HETATM   13  C14 UNL     1     -20.328 -29.069 -20.719  1.00  0.00     0.011 C
ENDROOT
BRANCH   1  14
HETATM   14  C4  UNL     1     -22.627 -31.026 -21.730  1.00  0.00     0.130 A
HETATM   15  O1  UNL     1     -23.304 -29.941 -21.948  1.00  0.00    -0.307 OA
HETATM   16  C3  UNL     1     -24.410 -30.140 -22.605  1.00  0.00     0.168 A
HETATM   17  C2  UNL     1     -24.476 -31.503 -22.852  1.00  0.00     0.029 A
HETATM   18  C1  UNL     1     -25.520 -32.274 -23.564  1.00  0.00     0.070 C
HETATM   19  N2  UNL     1     -23.382 -32.009 -22.310  1.00  0.00    -0.342 N
ATOM     20  H2  UNL     1     -23.134 -32.998 -22.322  1.00  0.00     0.167 HD
ENDBRANCH   1  14
TORSDOF 1
ENDMDL