MODEL 2
REMARK VINA RESULT: -8.033655308      1.731      1.972
REMARK  2 active torsions:
REMARK  status: ('A' for Active; 'I' for Inactive)
REMARK    1  A    between atoms: O1_1  and  C1_3
REMARK    2  A    between atoms: C4_9  and  C5_10
ROOT
HETATM    1  C1  UNL     1     -20.809 -31.996 -18.675  1.00  0.00     0.155 A
HETATM    2  C2  UNL     1     -20.771 -32.677 -19.857  1.00  0.00     0.109 A
HETATM    3  S1  UNL     1     -21.063 -31.439 -20.993  1.00  0.00    -0.061 SA
HETATM    4  C3  UNL     1     -21.216 -30.132 -19.909  1.00  0.00     0.157 A
HETATM    5  N1  UNL     1     -21.443 -28.785 -19.802  1.00  0.00    -0.338 N
ATOM      6  H1  UNL     1     -21.608 -28.136 -20.573  1.00  0.00     0.168 HD
HETATM    7  C4  UNL     1     -21.408 -28.479 -18.511  1.00  0.00     0.031 A
HETATM    8  C14 UNL     1     -21.159 -29.648 -17.827  1.00  0.00     0.126 A
HETATM    9  N2  UNL     1     -21.038 -30.696 -18.721  1.00  0.00    -0.280 N
ENDROOT
BRANCH   7  10
HETATM   10  C5  UNL     1     -21.603 -27.118 -17.896  1.00  0.00     0.037 C
HETATM   11  C6  UNL     1     -21.412 -26.100 -18.998  1.00  0.00     0.011 C
HETATM   12  C7  UNL     1     -21.606 -24.733 -18.380  1.00  0.00     0.012 C
HETATM   13  C8  UNL     1     -20.534 -24.466 -17.369  1.00  0.00    -0.017 C
HETATM   14  C9  UNL     1     -21.081 -23.553 -16.282  1.00  0.00     0.038 C
HETATM   15  C11 UNL     1     -19.534 -23.507 -18.024  1.00  0.00     0.177 C
HETATM   16  C12 UNL     1     -19.840 -25.662 -16.853  1.00  0.00     0.012 C
HETATM   17  C10 UNL     1     -21.016 -22.211 -16.964  1.00  0.00     0.168 C
HETATM   18  O2  UNL     1     -20.230 -22.329 -18.076  1.00  0.00    -0.390 OA
HETATM   19  C13 UNL     1     -20.695 -26.891 -16.733  1.00  0.00     0.011 C
ENDBRANCH   7  10
BRANCH   1  20
HETATM   20  O1  UNL     1     -20.599 -32.737 -17.475  1.00  0.00    -0.345 OA
ATOM     21  H1  UNL     1     -20.005 -33.478 -17.510  1.00  0.00     0.219 HD
ENDBRANCH   1  20
TORSDOF 2
ENDMDL