MODEL 5
REMARK VINA RESULT: -5.698095726      2.721      5.201
REMARK  1 active torsions:
REMARK  status: ('A' for Active; 'I' for Inactive)
REMARK    1  A    between atoms: C7_13  and  C8_14
ROOT
HETATM    1  O1  UNL     1     -20.053 -25.279 -17.976  1.00  0.00    -0.292 OA
HETATM    2  C1  UNL     1     -20.561 -25.499 -16.912  1.00  0.00     0.189 C
HETATM    3  C2  UNL     1     -21.378 -24.657 -16.031  1.00  0.00     0.110 C
HETATM    4  C3  UNL     1     -22.047 -25.655 -15.147  1.00  0.00     0.179 C
HETATM    5  O2  UNL     1     -21.443 -26.867 -15.265  1.00  0.00    -0.349 OA
HETATM    6  C4  UNL     1     -20.437 -26.829 -16.209  1.00  0.00     0.233 C
HETATM    7  N1  UNL     1     -19.129 -26.906 -15.668  1.00  0.00    -0.333 N
ATOM      8  H1  UNL     1     -18.621 -26.079 -15.355  1.00  0.00     0.164 HD
HETATM    9  C5  UNL     1     -18.578 -28.198 -15.593  1.00  0.00     0.142 C
HETATM   10  S1  UNL     1     -17.407 -28.753 -14.634  1.00  0.00    -0.052 SA
HETATM   11  S2  UNL     1     -19.457 -29.155 -16.813  1.00  0.00    -0.060 SA
HETATM   12  C6  UNL     1     -20.620 -27.843 -17.274  1.00  0.00     0.050 C
HETATM   13  C7  UNL     1     -21.424 -27.818 -18.308  1.00  0.00     0.038 C
ENDROOT
BRANCH  13  14
HETATM   14  C8  UNL     1     -21.475 -28.917 -19.272  1.00  0.00     0.006 A
HETATM   15  C9  UNL     1     -21.311 -28.867 -20.632  1.00  0.00     0.019 A
HETATM   16  C10 UNL     1     -21.402 -30.024 -21.309  1.00  0.00     0.008 A
HETATM   17  C11 UNL     1     -21.653 -31.159 -20.580  1.00  0.00     0.050 A
HETATM   18  S3  UNL     1     -21.752 -30.574 -18.983  1.00  0.00    -0.102 SA
ENDBRANCH  13  14
TORSDOF 1
ENDMDL