MODEL 2
REMARK VINA RESULT: -6.412949247      1.441      2.218
REMARK  2 active torsions:
REMARK  status: ('A' for Active; 'I' for Inactive)
REMARK    1  A    between atoms: C12_16  and  C13_17
REMARK    2  A    between atoms: C13_17  and  O5_18
ROOT
HETATM    1  C1  UNL     1     -22.072 -33.160 -20.846  1.00  0.00     0.010 C
HETATM    2  C2  UNL     1     -20.800 -32.653 -20.210  1.00  0.00    -0.018 C
HETATM    3  C3  UNL     1     -20.517 -31.209 -20.579  1.00  0.00     0.010 C
HETATM    4  C4  UNL     1     -19.964 -30.427 -19.414  1.00  0.00     0.075 C
HETATM    5  C5  UNL     1     -21.036 -30.211 -18.338  1.00  0.00     0.235 C
HETATM    6  O1  UNL     1     -20.320 -30.024 -17.141  1.00  0.00    -0.194 OA
HETATM    7  O2  UNL     1     -19.813 -28.812 -17.210  1.00  0.00    -0.195 OA
HETATM    8  C6  UNL     1     -20.813 -27.833 -17.083  1.00  0.00     0.229 C
HETATM    9  C7  UNL     1     -21.171 -27.746 -15.614  1.00  0.00     0.074 C
HETATM   10  C8  UNL     1     -21.083 -26.362 -15.064  1.00  0.00     0.006 C
HETATM   11  C9  UNL     1     -21.741 -25.333 -15.953  1.00  0.00     0.000 C
HETATM   12  C10 UNL     1     -21.053 -25.340 -17.288  1.00  0.00     0.006 C
HETATM   13  C11 UNL     1     -20.210 -26.534 -17.540  1.00  0.00     0.074 C
HETATM   14  O3  UNL     1     -21.923 -28.218 -17.775  1.00  0.00    -0.195 OA
HETATM   15  O4  UNL     1     -21.746 -29.097 -18.698  1.00  0.00    -0.194 OA
HETATM   16  C12 UNL     1     -21.836 -31.472 -18.258  1.00  0.00     0.078 C
HETATM   17  C14 UNL     1     -20.988 -32.676 -18.695  1.00  0.00     0.016 C
ENDROOT
BRANCH  16  18
HETATM   18  C13 UNL     1     -22.281 -31.778 -16.839  1.00  0.00     0.174 C
BRANCH  18  19
HETATM   19  O5  UNL     1     -22.748 -30.674 -16.167  1.00  0.00    -0.400 OA
ATOM     20  H5  UNL     1     -22.673 -29.870 -16.670  1.00  0.00     0.209 HD
ENDBRANCH  18  19
ENDBRANCH  16  18
TORSDOF 2
ENDMDL