MODEL 5
REMARK VINA RESULT: -6.518474426      2.423      4.405
REMARK  1 active torsions:
REMARK  status: ('A' for Active; 'I' for Inactive)
REMARK    1  A    between atoms: C3_5  and  C4_6
ROOT
HETATM    1  C4  UNL     1     -21.770 -33.224 -20.035  1.00  0.00     0.097 C
HETATM    2  C5  UNL     1     -21.223 -32.400 -21.202  1.00  0.00     0.072 C
HETATM    3  C6  UNL     1     -21.015 -31.042 -20.642  1.00  0.00     0.129 C
HETATM    4  O1  UNL     1     -21.118 -30.025 -21.559  1.00  0.00    -0.381 OA
HETATM    5  C7  UNL     1     -21.658 -28.848 -21.042  1.00  0.00     0.117 C
HETATM    6  C8  UNL     1     -20.977 -27.716 -21.800  1.00  0.00     0.039 C
HETATM    7  C9  UNL     1     -21.351 -28.638 -19.590  1.00  0.00     0.032 C
HETATM    8  C10 UNL     1     -21.783 -29.818 -18.714  1.00  0.00     0.010 C
HETATM    9  C11 UNL     1     -22.185 -30.897 -19.685  1.00  0.00     0.026 C
HETATM   10  C12 UNL     1     -22.483 -32.236 -19.137  1.00  0.00    -0.006 C
HETATM   11  C13 UNL     1     -22.223 -32.419 -17.688  1.00  0.00     0.019 C
HETATM   12  C14 UNL     1     -23.988 -32.485 -19.317  1.00  0.00     0.014 C
HETATM   13  C15 UNL     1     -24.383 -32.629 -20.750  1.00  0.00     0.020 C
HETATM   14  C16 UNL     1     -23.737 -33.894 -21.268  1.00  0.00     0.115 C
HETATM   15  N2  UNL     1     -22.606 -34.291 -20.491  1.00  0.00    -0.406 N
ATOM     16  H2  UNL     1     -22.409 -35.269 -20.275  1.00  0.00     0.154 HD
ENDROOT
BRANCH   1  17
HETATM   17  C3  UNL     1     -20.571 -33.842 -19.374  1.00  0.00     0.133 A
HETATM   18  N1  UNL     1     -20.206 -35.131 -19.514  1.00  0.00    -0.325 N
HETATM   19  C2  UNL     1     -19.114 -35.345 -18.799  1.00  0.00     0.144 A
ATOM     20  H1  UNL     1     -20.692 -35.828 -20.078  1.00  0.00     0.169 HD
HETATM   21  C1  UNL     1     -18.433 -36.666 -18.732  1.00  0.00     0.100 C
HETATM   22  O2  UNL     1     -18.824 -34.206 -18.235  1.00  0.00    -0.223 OA
HETATM   23  N3  UNL     1     -19.674 -33.285 -18.559  1.00  0.00    -0.245 N
ATOM     24  H3  UNL     1     -19.660 -32.314 -18.249  1.00  0.00     0.196 HD
ENDBRANCH   1  17
TORSDOF 1
ENDMDL