MODEL 5
REMARK VINA RESULT: -6.953323534      2.568      3.106
REMARK  2 active torsions:
REMARK  status: ('A' for Active; 'I' for Inactive)
REMARK    1  A    between atoms: C3_4  and  O1_5
REMARK    2  A    between atoms: C5_9  and  N2_10
ROOT
HETATM    1  N1  UNL     1     -17.933 -28.825 -15.967  1.00  0.00    -0.191 NA
HETATM    2  C1  UNL     1     -18.600 -29.552 -16.613  1.00  0.00     0.105 C
HETATM    3  C2  UNL     1     -19.415 -30.453 -17.439  1.00  0.00     0.111 A
HETATM    4  C3  UNL     1     -18.979 -31.638 -17.897  1.00  0.00     0.095 A
HETATM    5  C4  UNL     1     -19.846 -32.374 -18.662  1.00  0.00     0.090 A
HETATM    6  S1  UNL     1     -21.234 -31.396 -18.720  1.00  0.00    -0.080 SA
HETATM    7  C5  UNL     1     -20.689 -30.084 -17.777  1.00  0.00     0.096 A
ENDROOT
BRANCH   4   8
HETATM    8  O1  UNL     1     -17.684 -32.160 -17.634  1.00  0.00    -0.359 OA
ATOM      9  H1  UNL     1     -17.517 -32.890 -17.049  1.00  0.00     0.217 HD
ENDBRANCH   4   8
BRANCH   7  10
HETATM   10  N2  UNL     1     -21.390 -28.874 -17.405  1.00  0.00    -0.374 N
HETATM   11  C6  UNL     1     -21.767 -28.677 -16.041  1.00  0.00     0.123 C
HETATM   12  C7  UNL     1     -21.165 -27.340 -15.594  1.00  0.00     0.025 C
HETATM   13  C8  UNL     1     -21.771 -26.206 -16.356  1.00  0.00     0.070 C
HETATM   14  C9  UNL     1     -20.913 -25.780 -17.520  1.00  0.00     0.165 C
HETATM   15  C10 UNL     1     -20.511 -26.929 -18.422  1.00  0.00     0.088 C
HETATM   16  O2  UNL     1     -21.599 -24.877 -18.325  1.00  0.00    -0.353 OA
HETATM   17  O3  UNL     1     -19.762 -25.182 -17.076  1.00  0.00    -0.353 OA
HETATM   18  C11 UNL     1     -21.614 -27.976 -18.516  1.00  0.00     0.129 C
HETATM   19  C12 UNL     1     -21.019 -23.641 -18.198  1.00  0.00     0.197 C
HETATM   20  C13 UNL     1     -19.823 -23.827 -17.321  1.00  0.00     0.197 C
ENDBRANCH   7  10
TORSDOF 2
ENDMDL