MODEL 2
REMARK VINA RESULT: -7.778401466      2.498      4.140
REMARK  1 active torsions:
REMARK  status: ('A' for Active; 'I' for Inactive)
REMARK    1  A    between atoms: N3_8  and  C4_10
ROOT
HETATM    1  C4  UNL     1     -21.078 -29.269 -20.173  1.00  0.00     0.098 A
HETATM    2  S1  UNL     1     -21.229 -27.844 -21.098  1.00  0.00    -0.075 SA
HETATM    3  C5  UNL     1     -21.494 -26.737 -19.841  1.00  0.00    -0.007 A
HETATM    4  C6  UNL     1     -21.458 -27.515 -18.710  1.00  0.00    -0.021 A
HETATM    5  C7  UNL     1     -21.240 -28.836 -18.886  1.00  0.00     0.085 A
HETATM    6  C8  UNL     1     -21.170 -29.822 -17.793  1.00  0.00     0.103 C
HETATM    7  N4  UNL     1     -21.130 -30.602 -16.916  1.00  0.00    -0.191 NA
HETATM    8  C9  UNL     1     -21.671 -26.764 -17.397  1.00  0.00     0.041 C
HETATM    9  C10 UNL     1     -20.937 -25.492 -17.400  1.00  0.00     0.005 C
HETATM   10  C11 UNL     1     -20.671 -24.819 -18.688  1.00  0.00     0.005 C
HETATM   11  C12 UNL     1     -21.732 -25.244 -19.706  1.00  0.00     0.047 C
ENDROOT
BRANCH   1  12
HETATM   12  N3  UNL     1     -20.836 -30.605 -20.652  1.00  0.00    -0.328 N
HETATM   13  C3  UNL     1     -21.844 -31.344 -21.048  1.00  0.00     0.166 A
HETATM   14  N2  UNL     1     -23.143 -31.038 -21.078  1.00  0.00    -0.279 N
HETATM   15  S2  UNL     1     -21.852 -32.939 -21.655  1.00  0.00    -0.038 SA
HETATM   16  N1  UNL     1     -23.966 -31.907 -21.501  1.00  0.00    -0.296 N
ATOM     17  H2  UNL     1     -23.468 -30.123 -20.767  1.00  0.00     0.189 HD
HETATM   18  C2  UNL     1     -23.537 -33.094 -21.905  1.00  0.00     0.066 A
ATOM     19  H1  UNL     1     -24.962 -31.690 -21.532  1.00  0.00     0.187 HD
HETATM   20  C1  UNL     1     -24.372 -34.219 -22.427  1.00  0.00     0.078 C
ATOM     21  H3  UNL     1     -19.885 -30.974 -20.684  1.00  0.00     0.168 HD
ENDBRANCH   1  12
TORSDOF 1
ENDMDL