MODEL 4
REMARK VINA RESULT: -6.373957906      3.599      5.186
REMARK  3 active torsions:
REMARK  status: ('A' for Active; 'I' for Inactive)
REMARK    1  A    between atoms: C8_9  and  N2_10
REMARK    2  A    between atoms: C11_15  and  N3_16
REMARK    3  A    between atoms: N3_16  and  C12_18
ROOT
HETATM    1  C1  UNL     1     -17.145 -28.454 -16.005  1.00  0.00     0.016 C
HETATM    2  C2  UNL     1     -18.603 -28.050 -15.757  1.00  0.00    -0.033 C
HETATM    3  C3  UNL     1     -18.874 -28.252 -14.267  1.00  0.00     0.016 C
HETATM    4  C4  UNL     1     -19.451 -28.940 -16.607  1.00  0.00     0.031 C
HETATM    5  C5  UNL     1     -20.861 -28.404 -16.706  1.00  0.00     0.144 C
HETATM    6  N1  UNL     1     -20.745 -27.005 -17.108  1.00  0.00    -0.314 N
HETATM    7  C6  UNL     1     -21.280 -26.531 -18.335  1.00  0.00     0.034 C
HETATM    8  C7  UNL     1     -21.604 -25.256 -18.478  1.00  0.00     0.011 C
HETATM    9  C8  UNL     1     -22.131 -24.989 -19.811  1.00  0.00     0.013 C
HETATM   10  C9  UNL     1     -21.673 -26.154 -20.642  1.00  0.00     0.063 C
HETATM   11  C10 UNL     1     -21.573 -27.261 -19.611  1.00  0.00     0.065 C
HETATM   12  C11 UNL     1     -21.385 -24.365 -17.317  1.00  0.00     0.133 C
HETATM   13  C13 UNL     1     -20.117 -24.777 -16.604  1.00  0.00     0.143 C
HETATM   14  N4  UNL     1     -20.089 -26.155 -16.241  1.00  0.00    -0.226 NA
HETATM   15  C14 UNL     1     -18.725 -26.594 -16.072  1.00  0.00     0.122 C
ENDROOT
BRANCH  12  16
HETATM   16  N3  UNL     1     -21.196 -22.992 -17.748  1.00  0.00    -0.380 N
ATOM     17  H3  UNL     1     -21.979 -22.388 -17.996  1.00  0.00     0.160 HD
BRANCH  16  18
HETATM   18  C12 UNL     1     -19.974 -22.587 -17.798  1.00  0.00     0.166 C
HETATM   19  S1  UNL     1     -18.650 -21.911 -18.441  1.00  0.00    -0.075 SA
ENDBRANCH  16  18
ENDBRANCH  12  16
BRANCH   9  20
HETATM   20  N2  UNL     1     -22.842 -23.980 -20.222  1.00  0.00    -0.402 N
ATOM     21  H22 UNL     1     -23.047 -23.130 -19.697  1.00  0.00     0.156 HD
ATOM     22  H21 UNL     1     -23.315 -23.851 -21.117  1.00  0.00     0.156 HD
ENDBRANCH   9  20
TORSDOF 3
ENDMDL