MODEL 2
REMARK VINA RESULT: -6.926680238      3.691      6.357
REMARK  2 active torsions:
REMARK  status: ('A' for Active; 'I' for Inactive)
REMARK    1  A    between atoms: C3_6  and  N2_7
REMARK    2  A    between atoms: C12_17  and  N3_18
ROOT
HETATM    1  N2  UNL     1     -20.209 -32.161 -18.300  1.00  0.00    -0.304 N
HETATM    2  C4  UNL     1     -20.049 -31.282 -19.394  1.00  0.00     0.166 C
HETATM    3  C5  UNL     1     -21.239 -30.393 -19.568  1.00  0.00     0.083 C
HETATM    4  C6  UNL     1     -21.365 -30.193 -21.116  1.00  0.00     0.035 C
HETATM    5  C7  UNL     1     -21.901 -28.795 -21.437  1.00  0.00     0.002 C
HETATM    6  C8  UNL     1     -21.195 -27.609 -21.028  1.00  0.00     0.001 C
HETATM    7  C9  UNL     1     -21.504 -26.882 -19.735  1.00  0.00     0.011 C
HETATM    8  C10 UNL     1     -21.287 -27.796 -18.488  1.00  0.00     0.081 C
HETATM    9  C11 UNL     1     -21.265 -29.129 -18.955  1.00  0.00    -0.160 C
HETATM   10  S2  UNL     1     -22.574 -31.537 -19.019  1.00  0.00    -0.070 SA
HETATM   11  C12 UNL     1     -21.520 -32.579 -18.032  1.00  0.00     0.143 C
ENDROOT
BRANCH   1  12
HETATM   12  C3  UNL     1     -19.100 -32.608 -17.508  1.00  0.00     0.170 A
HETATM   13  S1  UNL     1     -18.290 -34.123 -17.519  1.00  0.00     0.024 SA
HETATM   14  N1  UNL     1     -17.151 -33.803 -16.322  1.00  0.00    -0.313 N
HETATM   15  C2  UNL     1     -17.444 -32.547 -15.966  1.00  0.00     0.085 A
ATOM     16  H1  UNL     1     -16.420 -34.413 -15.958  1.00  0.00     0.175 HD
HETATM   17  C1  UNL     1     -16.622 -31.870 -14.881  1.00  0.00     0.089 C
HETATM   18  N4  UNL     1     -18.425 -31.957 -16.570  1.00  0.00    -0.325 N
ATOM     19  H4  UNL     1     -18.677 -30.999 -16.327  1.00  0.00     0.169 HD
ENDBRANCH   1  12
BRANCH  11  20
HETATM   20  N3  UNL     1     -21.906 -33.497 -17.257  1.00  0.00    -0.380 N
ATOM     21  H32 UNL     1     -22.265 -34.408 -17.543  1.00  0.00     0.158 HD
ATOM     22  H31 UNL     1     -21.929 -33.495 -16.238  1.00  0.00     0.158 HD
ENDBRANCH  11  20
TORSDOF 2
ENDMDL