MODEL 5
REMARK VINA RESULT: -7.047387764      1.923      2.424
REMARK  1 active torsions:
REMARK  status: ('A' for Active; 'I' for Inactive)
REMARK    1  A    between atoms: N1_2  and  C1_4
ROOT
HETATM    1  C1  UNL     1     -20.633 -30.208 -18.975  1.00  0.00     0.103 A
HETATM    2  C2  UNL     1     -20.644 -30.132 -20.350  1.00  0.00     0.037 A
HETATM    3  C3  UNL     1     -21.041 -28.948 -20.933  1.00  0.00     0.021 A
HETATM    4  C4  UNL     1     -21.409 -27.901 -20.146  1.00  0.00     0.007 A
HETATM    5  C5  UNL     1     -21.413 -27.938 -18.792  1.00  0.00    -0.034 A
HETATM    6  C6  UNL     1     -21.018 -29.112 -18.187  1.00  0.00     0.045 A
HETATM    7  C7  UNL     1     -21.825 -26.802 -17.995  1.00  0.00     0.034 C
HETATM    8  C8  UNL     1     -21.452 -26.997 -16.508  1.00  0.00     0.011 C
HETATM    9  C9  UNL     1     -21.805 -25.749 -15.738  1.00  0.00     0.011 C
HETATM   10  C10 UNL     1     -20.597 -24.795 -15.688  1.00  0.00     0.074 C
HETATM   11  S1  UNL     1     -19.949 -24.869 -17.409  1.00  0.00    -0.163 SA
HETATM   12  C11 UNL     1     -21.402 -25.446 -18.383  1.00  0.00     0.065 C
HETATM   13  C12 UNL     1     -21.144 -25.117 -19.791  1.00  0.00     0.095 C
HETATM   14  S2  UNL     1     -21.908 -26.366 -20.907  1.00  0.00    -0.128 SA
ENDROOT
BRANCH   1  15
HETATM   15  N1  UNL     1     -20.228 -31.413 -18.363  1.00  0.00    -0.116 N
HETATM   16  O1  UNL     1     -20.270 -32.509 -18.939  1.00  0.00    -0.532 OA
HETATM   17  O2  UNL     1     -19.765 -31.395 -17.078  1.00  0.00    -0.532 OA
ENDBRANCH   1  15
TORSDOF 1
ENDMDL