MODEL 1
REMARK VINA RESULT: -8.722868511      0.000      0.000
REMARK  1 active torsions:
REMARK  status: ('A' for Active; 'I' for Inactive)
REMARK    1  A    between atoms: C4_8  and  C5_9
ROOT
HETATM    1  C5  UNL     1     -21.279 -27.126 -15.230  1.00  0.00     0.140 C
HETATM    2  C6  UNL     1     -19.786 -27.586 -15.243  1.00  0.00     0.124 C
HETATM    3  N2  UNL     1     -18.793 -26.908 -14.828  1.00  0.00    -0.383 N
ATOM      4  H21 UNL     1     -17.818 -27.209 -14.836  1.00  0.00     0.158 HD
ATOM      5  H22 UNL     1     -18.821 -25.970 -14.429  1.00  0.00     0.158 HD
HETATM    6  O2  UNL     1     -19.749 -28.852 -15.781  1.00  0.00    -0.326 OA
HETATM    7  C7  UNL     1     -21.052 -29.301 -16.077  1.00  0.00     0.086 C
HETATM    8  C8  UNL     1     -21.147 -30.242 -17.209  1.00  0.00     0.040 C
HETATM    9  C9  UNL     1     -21.368 -31.673 -16.868  1.00  0.00     0.003 C
HETATM   10  C10 UNL     1     -20.678 -32.136 -15.629  1.00  0.00     0.004 C
HETATM   11  C11 UNL     1     -20.610 -31.108 -14.553  1.00  0.00    -0.016 C
HETATM   12  C12 UNL     1     -20.751 -31.643 -13.153  1.00  0.00     0.010 C
HETATM   13  C13 UNL     1     -21.543 -29.916 -14.772  1.00  0.00     0.044 C
HETATM   14  C14 UNL     1     -21.715 -27.955 -16.393  1.00  0.00     0.146 C
HETATM   15  C15 UNL     1     -21.330 -27.501 -17.690  1.00  0.00     0.068 C
HETATM   16  N3  UNL     1     -21.040 -27.117 -18.740  1.00  0.00    -0.197 NA
ENDROOT
BRANCH   1  17
HETATM   17  C4  UNL     1     -21.237 -25.671 -15.408  1.00  0.00     0.091 A
HETATM   18  C2  UNL     1     -21.985 -24.738 -14.688  1.00  0.00     0.039 A
HETATM   19  C1  UNL     1     -23.095 -25.022 -13.700  1.00  0.00     0.071 C
HETATM   20  N1  UNL     1     -21.641 -23.515 -15.127  1.00  0.00    -0.328 N
HETATM   21  C3  UNL     1     -20.701 -23.708 -16.095  1.00  0.00     0.223 A
ATOM     22  H1  UNL     1     -22.010 -22.622 -14.801  1.00  0.00     0.168 HD
HETATM   23 CL1  UNL     1     -19.944 -22.382 -16.949  1.00  0.00    -0.037 Cl
HETATM   24  O1  UNL     1     -20.480 -25.007 -16.246  1.00  0.00    -0.285 OA
ENDBRANCH   1  17
TORSDOF 1
ENDMDL