MODEL 5
REMARK VINA RESULT: -5.679820774      1.785      2.224
REMARK  4 active torsions:
REMARK  status: ('A' for Active; 'I' for Inactive)
REMARK    1  A    between atoms: S1_2  and  C2_3
REMARK    2  A    between atoms: C2_3  and  O1_7
REMARK    3  A    between atoms: O1_7  and  C3_8
REMARK    4  A    between atoms: C5_11  and  C6_12
ROOT
HETATM    1  C3  UNL     1     -21.757 -25.827 -15.042  1.00  0.00     0.159 C
HETATM    2  C4  UNL     1     -22.361 -24.590 -14.599  1.00  0.00     0.125 C
HETATM    3  N2  UNL     1     -22.847 -23.605 -14.234  1.00  0.00    -0.189 NA
HETATM    4  C5  UNL     1     -21.376 -26.698 -14.136  1.00  0.00     0.067 C
ENDROOT
BRANCH   1   5
HETATM    5  O1  UNL     1     -21.570 -26.120 -16.366  1.00  0.00    -0.277 OA
BRANCH   5   6
HETATM    6  C2  UNL     1     -21.282 -25.157 -17.306  1.00  0.00     0.181 C
HETATM    7  N1  UNL     1     -22.129 -24.974 -18.255  1.00  0.00    -0.374 N
ATOM      8  H12 UNL     1     -21.916 -24.260 -18.952  1.00  0.00     0.158 HD
ATOM      9  H11 UNL     1     -22.980 -25.537 -18.288  1.00  0.00     0.158 HD
BRANCH   6  10
HETATM   10  S1  UNL     1     -19.798 -24.175 -17.248  1.00  0.00    -0.091 SA
HETATM   11  C1  UNL     1     -20.163 -22.464 -16.820  1.00  0.00     0.099 C
ENDBRANCH   6  10
ENDBRANCH   5   6
ENDBRANCH   1   5
BRANCH   4  12
HETATM   12  C6  UNL     1     -20.758 -27.965 -14.559  1.00  0.00     0.009 A
HETATM   13  C7  UNL     1     -19.446 -28.337 -14.619  1.00  0.00     0.038 A
HETATM   14  C8  UNL     1     -19.167 -29.581 -15.058  1.00  0.00     0.018 A
HETATM   15 BR1  UNL     1     -17.360 -30.272 -15.208  1.00  0.00    -0.051 Br
HETATM   16  C9  UNL     1     -20.222 -30.371 -15.409  1.00  0.00     0.069 A
HETATM   17  S2  UNL     1     -21.569 -29.369 -15.120  1.00  0.00    -0.101 SA
ENDBRANCH   4  12
TORSDOF 4
ENDMDL