MODEL 3
REMARK VINA RESULT: -8.447258124      1.075      1.120
REMARK  3 active torsions:
REMARK  status: ('A' for Active; 'I' for Inactive)
REMARK    1  A    between atoms: C4_4  and  N1_5
REMARK    2  A    between atoms: N1_5  and  O1_6
REMARK    3  A    between atoms: C5_9  and  O2_10
ROOT
HETATM    1  C1  UNL     1     -20.939 -29.397 -15.129  1.00  0.00     0.049 C
HETATM    2  C2  UNL     1     -21.128 -29.321 -16.579  1.00  0.00    -0.049 A
HETATM    3  C3  UNL     1     -21.224 -30.479 -17.318  1.00  0.00     0.043 A
HETATM    4  C4  UNL     1     -21.413 -30.506 -18.692  1.00  0.00     0.110 A
HETATM    5  C5  UNL     1     -21.508 -29.307 -19.360  1.00  0.00     0.113 A
HETATM    6  C6  UNL     1     -21.415 -28.106 -18.636  1.00  0.00     0.084 A
HETATM    7  C7  UNL     1     -21.227 -28.101 -17.277  1.00  0.00     0.002 A
HETATM    8  C8  UNL     1     -21.146 -26.727 -16.861  1.00  0.00     0.100 A
HETATM    9  C9  UNL     1     -19.668 -26.374 -16.549  1.00  0.00     0.044 C
HETATM   10  C10 UNL     1     -19.618 -24.845 -16.675  1.00  0.00     0.003 C
HETATM   11  C11 UNL     1     -20.400 -24.288 -15.519  1.00  0.00     0.000 C
HETATM   12  C12 UNL     1     -21.165 -25.324 -14.758  1.00  0.00     0.003 C
HETATM   13  C13 UNL     1     -21.894 -26.307 -15.650  1.00  0.00     0.044 C
HETATM   14  O3  UNL     1     -21.392 -25.949 -17.985  1.00  0.00    -0.301 OA
HETATM   15  C14 UNL     1     -21.518 -26.719 -19.088  1.00  0.00     0.298 A
HETATM   16  O4  UNL     1     -21.694 -26.377 -20.311  1.00  0.00    -0.259 OA
ENDROOT
BRANCH   5  17
HETATM   17  O2  UNL     1     -21.693 -29.252 -20.721  1.00  0.00    -0.357 OA
ATOM     18  H2  UNL     1     -21.153 -28.702 -21.275  1.00  0.00     0.217 HD
ENDBRANCH   5  17
BRANCH   4  19
HETATM   19  N1  UNL     1     -21.488 -31.764 -19.304  1.00  0.00    -0.160 N
HETATM   20 CL1  UNL     1     -23.028 -32.466 -19.417  1.00  0.00     0.042 Cl
BRANCH  19  21
HETATM   21  O1  UNL     1     -20.643 -31.970 -20.308  1.00  0.00    -0.272 OA
ATOM     22  H1  UNL     1     -19.732 -31.768 -20.131  1.00  0.00     0.246 HD
ENDBRANCH  19  21
ENDBRANCH   4  19
TORSDOF 3
ENDMDL