MODEL 1
REMARK VINA RESULT: -8.355404524      0.000      0.000
REMARK  3 active torsions:
REMARK  status: ('A' for Active; 'I' for Inactive)
REMARK    1  A    between atoms: C2_2  and  O2_4
REMARK    2  A    between atoms: O2_4  and  C3_5
REMARK    3  A    between atoms: C9_13  and  O5_14
ROOT
HETATM    1  C3  UNL     1     -21.235 -26.906 -16.447  1.00  0.00     0.311 C
HETATM    2  O3  UNL     1     -20.209 -27.777 -16.197  1.00  0.00    -0.341 OA
HETATM    3  C4  UNL     1     -20.545 -29.070 -15.975  1.00  0.00     0.084 C
HETATM    4  C5  UNL     1     -20.767 -29.872 -17.207  1.00  0.00     0.012 C
HETATM    5  C6  UNL     1     -21.149 -29.403 -18.384  1.00  0.00     0.013 C
HETATM    6  C7  UNL     1     -21.432 -28.017 -18.728  1.00  0.00     0.002 A
HETATM    7  C8  UNL     1     -21.722 -27.538 -20.001  1.00  0.00     0.157 A
HETATM    8  O4  UNL     1     -21.924 -26.242 -19.943  1.00  0.00    -0.299 OA
HETATM    9  C9  UNL     1     -21.787 -25.816 -18.697  1.00  0.00     0.195 A
HETATM   10  C10 UNL     1     -21.481 -26.898 -17.916  1.00  0.00     0.067 A
HETATM   11  C11 UNL     1     -21.727 -29.288 -15.078  1.00  0.00     0.044 C
HETATM   12  C12 UNL     1     -21.527 -30.729 -14.641  1.00  0.00     0.023 C
HETATM   13  C13 UNL     1     -20.051 -30.863 -14.418  1.00  0.00     0.085 C
HETATM   14 CL1  UNL     1     -19.478 -32.388 -15.167  1.00  0.00    -0.125 Cl
HETATM   15  C14 UNL     1     -19.413 -29.719 -15.171  1.00  0.00     0.062 C
ENDROOT
BRANCH   1  16
HETATM   16  O2  UNL     1     -20.971 -25.623 -15.946  1.00  0.00    -0.285 OA
BRANCH  16  17
HETATM   17  C2  UNL     1     -21.762 -25.006 -14.972  1.00  0.00     0.257 C
HETATM   18  C1  UNL     1     -22.396 -25.769 -13.862  1.00  0.00     0.126 C
HETATM   19  O1  UNL     1     -21.912 -23.764 -15.086  1.00  0.00    -0.266 OA
ENDBRANCH  16  17
ENDBRANCH   1  16
BRANCH   9  20
HETATM   20  O5  UNL     1     -21.920 -24.520 -18.219  1.00  0.00    -0.340 OA
ATOM     21  H5  UNL     1     -22.266 -24.239 -17.380  1.00  0.00     0.220 HD
ENDBRANCH   9  20
TORSDOF 3
ENDMDL