MODEL 2
REMARK VINA RESULT: -8.373675062      3.367      5.508
REMARK  1 active torsions:
REMARK  status: ('A' for Active; 'I' for Inactive)
REMARK    1  A    between atoms: N1_8  and  C5_9
ROOT
HETATM    1  O1  UNL     1     -20.966 -28.253 -15.263  1.00  0.00    -0.267 OA
HETATM    2  C1  UNL     1     -21.048 -28.755 -16.438  1.00  0.00     0.258 A
HETATM    3  C2  UNL     1     -21.296 -27.858 -17.441  1.00  0.00     0.044 A
HETATM    4  C3  UNL     1     -21.424 -28.170 -18.775  1.00  0.00     0.084 A
HETATM    5  S1  UNL     1     -21.241 -29.846 -19.091  1.00  0.00    -0.042 SA
HETATM    6  C4  UNL     1     -20.941 -30.766 -17.692  1.00  0.00     0.150 A
HETATM    7  S2  UNL     1     -20.733 -32.372 -17.741  1.00  0.00    -0.052 SA
HETATM    8  N1  UNL     1     -20.885 -30.063 -16.522  1.00  0.00    -0.294 N
HETATM    9  N2  UNL     1     -21.681 -27.190 -19.773  1.00  0.00    -0.384 N
ATOM     10  H2  UNL     1     -21.624 -27.460 -20.755  1.00  0.00     0.160 HD
HETATM   11  C11 UNL     1     -22.022 -25.821 -19.443  1.00  0.00     0.120 C
HETATM   12  C12 UNL     1     -21.162 -25.488 -18.217  1.00  0.00     0.024 C
HETATM   13  C13 UNL     1     -21.445 -26.400 -17.080  1.00  0.00     0.049 C
ENDROOT
BRANCH   8  14
HETATM   14  C5  UNL     1     -20.625 -30.860 -15.313  1.00  0.00     0.094 C
HETATM   15  C6  UNL     1     -21.751 -30.845 -14.334  1.00  0.00     0.026 C
HETATM   16  C7  UNL     1     -21.517 -31.978 -13.356  1.00  0.00     0.002 C
HETATM   17  C8  UNL     1     -20.161 -31.985 -12.753  1.00  0.00     0.000 C
HETATM   18  C9  UNL     1     -19.030 -31.712 -13.711  1.00  0.00     0.002 C
HETATM   19  C10 UNL     1     -19.360 -30.506 -14.611  1.00  0.00     0.026 C
ENDBRANCH   8  14
TORSDOF 1
ENDMDL