MODEL 3
REMARK VINA RESULT: -6.719857147      3.797      6.994
REMARK  2 active torsions:
REMARK  status: ('A' for Active; 'I' for Inactive)
REMARK    1  A    between atoms: C3_3  and  S1_5
REMARK    2  A    between atoms: S1_5  and  C4_6
ROOT
HETATM    1  C4  UNL     1     -21.023 -30.508 -16.137  1.00  0.00     0.116 C
HETATM    2  N1  UNL     1     -21.060 -30.159 -17.339  1.00  0.00    -0.330 N
ATOM      3  H1  UNL     1     -21.288 -29.199 -17.598  1.00  0.00     0.165 HD
HETATM    4  C5  UNL     1     -20.769 -31.158 -18.360  1.00  0.00     0.214 C
HETATM    5  C6  UNL     1     -21.907 -32.111 -18.466  1.00  0.00     0.093 C
HETATM    6  C7  UNL     1     -22.656 -31.705 -19.711  1.00  0.00     0.021 C
HETATM    7  C8  UNL     1     -22.193 -32.387 -20.977  1.00  0.00     0.010 C
HETATM    8  C9  UNL     1     -21.962 -31.013 -21.570  1.00  0.00     0.033 C
HETATM    9  C10 UNL     1     -21.938 -30.466 -20.137  1.00  0.00     0.130 C
HETATM   10  O1  UNL     1     -20.704 -30.450 -19.561  1.00  0.00    -0.338 OA
HETATM   11  N2  UNL     1     -19.507 -31.783 -18.168  1.00  0.00    -0.357 N
ATOM     12  H2  UNL     1     -18.743 -31.644 -18.829  1.00  0.00     0.159 HD
HETATM   13  C11 UNL     1     -19.347 -32.608 -17.025  1.00  0.00     0.077 C
HETATM   14  C12 UNL     1     -19.431 -34.088 -17.324  1.00  0.00     0.050 C
HETATM   15  C13 UNL     1     -17.992 -32.269 -16.400  1.00  0.00     0.050 C
HETATM   16  S2  UNL     1     -20.619 -32.195 -15.796  1.00  0.00    -0.074 SA
ENDROOT
BRANCH   1  17
HETATM   17  S1  UNL     1     -21.353 -29.405 -14.809  1.00  0.00    -0.036 SA
BRANCH  17  18
HETATM   18  C3  UNL     1     -21.562 -27.722 -15.325  1.00  0.00     0.155 C
HETATM   19  C2  UNL     1     -21.537 -26.769 -14.402  1.00  0.00     0.019 C
HETATM   20  C1  UNL     1     -21.718 -25.357 -14.875  1.00  0.00     0.039 C
HETATM   21  F1  UNL     1     -21.740 -27.464 -16.634  1.00  0.00    -0.198 F
ENDBRANCH  17  18
ENDBRANCH   1  17
TORSDOF 2
ENDMDL