MODEL 3
REMARK VINA RESULT: -9.820369140      0.938      1.039
REMARK  2 active torsions:
REMARK  status: ('A' for Active; 'I' for Inactive)
REMARK    1  A    between atoms: C2_2  and  C3_3
REMARK    2  A    between atoms: C9_12  and  O4_13
ROOT
HETATM    1  C3  UNL     1     -21.292 -25.997 -15.587  1.00  0.00     0.109 A
HETATM    2  O1  UNL     1     -21.127 -26.987 -14.775  1.00  0.00    -0.319 OA
HETATM    3  C4  UNL     1     -21.105 -28.149 -15.450  1.00  0.00     0.158 A
HETATM    4  C5  UNL     1     -21.268 -27.852 -16.738  1.00  0.00     0.035 A
HETATM    5  C6  UNL     1     -21.388 -26.456 -16.880  1.00  0.00     0.126 A
HETATM    6  O2  UNL     1     -21.535 -25.950 -18.051  1.00  0.00    -0.271 OA
HETATM    7  C7  UNL     1     -21.576 -26.653 -19.146  1.00  0.00     0.302 A
HETATM    8  O3  UNL     1     -21.718 -26.134 -20.289  1.00  0.00    -0.259 OA
HETATM    9  C8  UNL     1     -21.463 -28.026 -19.097  1.00  0.00     0.085 A
HETATM   10  C9  UNL     1     -21.455 -28.776 -20.246  1.00  0.00     0.085 A
HETATM   11  C10 UNL     1     -21.298 -30.136 -20.187  1.00  0.00     0.075 A
HETATM   12  C11 UNL     1     -21.159 -30.709 -18.957  1.00  0.00     0.085 A
HETATM   13  C12 UNL     1     -21.165 -29.987 -17.721  1.00  0.00     0.044 A
HETATM   14  C13 UNL     1     -21.312 -28.634 -17.878  1.00  0.00     0.014 A
HETATM   15  C14 UNL     1     -21.158 -30.821 -16.563  1.00  0.00     0.109 C
HETATM   16  F1  UNL     1     -22.008 -30.914 -15.528  1.00  0.00    -0.210 F
HETATM   17  C15 UNL     1     -19.915 -31.702 -16.576  1.00  0.00     0.098 C
HETATM   18  C16 UNL     1     -19.935 -32.535 -17.854  1.00  0.00     0.182 C
HETATM   19  O5  UNL     1     -20.975 -32.098 -18.738  1.00  0.00    -0.350 OA
ENDROOT
BRANCH   1  20
HETATM   20  C2  UNL     1     -21.373 -24.561 -15.259  1.00  0.00     0.030 C
HETATM   21  C1  UNL     1     -22.340 -24.130 -14.468  1.00  0.00     0.014 C
ENDBRANCH   1  20
BRANCH  10  22
HETATM   22  O4  UNL     1     -21.611 -28.089 -21.446  1.00  0.00    -0.360 OA
ATOM     23  H4  UNL     1     -22.145 -28.506 -22.113  1.00  0.00     0.217 HD
ENDBRANCH  10  22
TORSDOF 2
ENDMDL