MODEL 2
REMARK VINA RESULT: -7.766012551      4.120      5.765
REMARK  2 active torsions:
REMARK  status: ('A' for Active; 'I' for Inactive)
REMARK    1  A    between atoms: N2_16  and  N3_17
REMARK    2  A    between atoms: N3_17  and  O1_19
ROOT
HETATM    1  C1  UNL     1     -22.055 -31.207 -16.064  1.00  0.00     0.020 C
HETATM    2  C2  UNL     1     -20.848 -30.338 -15.726  1.00  0.00    -0.013 C
HETATM    3  C3  UNL     1     -20.756 -30.207 -14.254  1.00  0.00     0.020 C
HETATM    4  C4  UNL     1     -19.558 -30.996 -16.206  1.00  0.00     0.062 C
HETATM    5  C5  UNL     1     -19.727 -31.800 -17.457  1.00  0.00     0.238 C
HETATM    6  F1  UNL     1     -18.465 -31.864 -18.066  1.00  0.00    -0.238 F
HETATM    7  S1  UNL     1     -20.820 -30.863 -18.555  1.00  0.00    -0.085 SA
HETATM    8  C6  UNL     1     -21.068 -29.230 -17.821  1.00  0.00     0.054 A
HETATM    9  S2  UNL     1     -21.334 -27.687 -18.462  1.00  0.00    -0.075 SA
HETATM   10  C7  UNL     1     -21.437 -26.796 -17.014  1.00  0.00     0.102 A
HETATM   11  C8  UNL     1     -21.253 -27.747 -16.043  1.00  0.00     0.061 A
HETATM   12  C9  UNL     1     -21.061 -29.026 -16.462  1.00  0.00     0.002 A
HETATM   13  N1  UNL     1     -21.260 -27.178 -14.704  1.00  0.00    -0.370 N
ATOM     14  H1  UNL     1     -20.709 -27.632 -13.977  1.00  0.00     0.161 HD
HETATM   15  C10 UNL     1     -22.016 -25.994 -14.360  1.00  0.00     0.276 C
HETATM   16  N2  UNL     1     -21.781 -24.934 -15.348  1.00  0.00    -0.219 N
HETATM   17  C11 UNL     1     -21.700 -25.377 -16.692  1.00  0.00     0.284 C
HETATM   18  O2  UNL     1     -21.851 -24.571 -17.625  1.00  0.00    -0.265 OA
ENDROOT
BRANCH  16  19
HETATM   19  N3  UNL     1     -21.665 -23.641 -14.913  1.00  0.00    -0.203 N
ATOM     20  H3  UNL     1     -22.188 -23.361 -14.084  1.00  0.00     0.216 HD
BRANCH  19  21
HETATM   21  O1  UNL     1     -20.948 -22.782 -15.484  1.00  0.00    -0.274 OA
ATOM     22  H1  UNL     1     -21.092 -21.846 -15.407  1.00  0.00     0.246 HD
ENDBRANCH  19  21
ENDBRANCH  16  19
TORSDOF 2
ENDMDL