MODEL 3
REMARK VINA RESULT: -7.209244630      4.105      5.879
REMARK  1 active torsions:
REMARK  status: ('A' for Active; 'I' for Inactive)
REMARK    1  A    between atoms: N2_3  and  C2_5
ROOT
HETATM    1  N1  UNL     1     -19.649 -32.982 -17.675  1.00  0.00    -0.172 NA
HETATM    2  C1  UNL     1     -18.873 -32.421 -17.002  1.00  0.00     0.184 C
HETATM    3  N2  UNL     1     -17.932 -31.748 -16.218  1.00  0.00    -0.265 N
ATOM      4  H2  UNL     1     -16.958 -32.051 -16.237  1.00  0.00     0.181 HD
ENDROOT
BRANCH   3   5
HETATM    5  C2  UNL     1     -18.308 -30.627 -15.379  1.00  0.00     0.196 A
HETATM    6  N3  UNL     1     -19.032 -29.713 -15.811  1.00  0.00    -0.341 N
HETATM    7  C3  UNL     1     -19.379 -28.640 -14.972  1.00  0.00     0.105 A
ATOM      8  H3  UNL     1     -19.373 -29.742 -16.771  1.00  0.00     0.164 HD
HETATM    9  C4  UNL     1     -20.850 -28.483 -14.704  1.00  0.00     0.045 C
HETATM   10  C11 UNL     1     -18.692 -27.402 -15.416  1.00  0.00     0.084 C
HETATM   11  S2  UNL     1     -18.475 -29.192 -13.464  1.00  0.00    -0.020 SA
HETATM   12  C5  UNL     1     -21.691 -28.919 -15.883  1.00  0.00     0.008 C
HETATM   13  C6  UNL     1     -21.248 -28.255 -17.159  1.00  0.00     0.047 C
HETATM   14  C7  UNL     1     -20.703 -26.879 -16.903  1.00  0.00    -0.009 A
HETATM   15  S1  UNL     1     -21.337 -25.412 -17.495  1.00  0.00    -0.082 SA
HETATM   16  C10 UNL     1     -19.623 -26.472 -16.169  1.00  0.00    -0.040 A
HETATM   17  C8  UNL     1     -20.228 -24.328 -16.804  1.00  0.00     0.075 A
HETATM   18 CL1  UNL     1     -20.163 -22.560 -16.925  1.00  0.00    -0.076 Cl
HETATM   19  C9  UNL     1     -19.372 -25.141 -16.116  1.00  0.00     0.039 A
HETATM   20  N4  UNL     1     -17.858 -30.553 -14.050  1.00  0.00    -0.299 N
ATOM     21  H4  UNL     1     -17.264 -31.222 -13.561  1.00  0.00     0.177 HD
ENDBRANCH   3   5
TORSDOF 1
ENDMDL