MODEL 3
REMARK VINA RESULT: -7.373270124      3.081      6.693
REMARK  2 active torsions:
REMARK  status: ('A' for Active; 'I' for Inactive)
REMARK    1  A    between atoms: C3_4  and  C4_5
REMARK    2  A    between atoms: N3_15  and  C9_17
ROOT
HETATM    1  N1  UNL     1     -21.263 -26.981 -19.407  1.00  0.00    -0.191 NA
HETATM    2  C1  UNL     1     -21.275 -27.700 -18.472  1.00  0.00     0.104 C
HETATM    3  C2  UNL     1     -21.282 -28.577 -17.278  1.00  0.00     0.107 A
HETATM    4  C3  UNL     1     -21.298 -29.919 -17.380  1.00  0.00     0.079 A
HETATM    5  N2  UNL     1     -21.299 -30.620 -16.234  1.00  0.00    -0.322 N
ATOM      6  H2  UNL     1     -21.310 -31.635 -16.124  1.00  0.00     0.174 HD
HETATM    7  S2  UNL     1     -21.278 -29.465 -15.033  1.00  0.00     0.005 SA
HETATM    8  C8  UNL     1     -21.268 -28.047 -16.016  1.00  0.00     0.110 A
HETATM    9  N3  UNL     1     -21.253 -26.863 -15.540  1.00  0.00    -0.377 N
ATOM     10  H3  UNL     1     -21.245 -26.843 -14.521  1.00  0.00     0.160 HD
ENDROOT
BRANCH   4  11
HETATM   11  C4  UNL     1     -21.316 -30.663 -18.679  1.00  0.00     0.036 A
HETATM   12  C5  UNL     1     -22.139 -30.470 -19.752  1.00  0.00     0.025 A
HETATM   13  C6  UNL     1     -21.955 -31.277 -20.813  1.00  0.00     0.051 A
HETATM   14  C7  UNL     1     -20.963 -32.217 -20.726  1.00  0.00     0.158 A
HETATM   15  F1  UNL     1     -20.605 -33.140 -21.687  1.00  0.00    -0.198 F
HETATM   16  S1  UNL     1     -20.324 -31.944 -19.172  1.00  0.00    -0.058 SA
ENDBRANCH   4  11
BRANCH   9  17
HETATM   17  C9  UNL     1     -21.245 -25.589 -16.114  1.00  0.00     0.082 C
HETATM   18  C10 UNL     1     -19.919 -25.116 -16.661  1.00  0.00     0.025 C
HETATM   19  C11 UNL     1     -20.159 -23.603 -16.764  1.00  0.00     0.002 C
HETATM   20  C12 UNL     1     -21.175 -23.282 -15.689  1.00  0.00     0.002 C
HETATM   21  C13 UNL     1     -21.390 -24.578 -14.944  1.00  0.00     0.025 C
ENDBRANCH   9  17
TORSDOF 2
ENDMDL