MODEL 1
REMARK VINA RESULT: -6.274712513      0.000      0.000
REMARK  9 active torsions:
REMARK  status: ('A' for Active; 'I' for Inactive)
REMARK    1  A    between atoms: C3_3  and  C4_4
REMARK    2  A    between atoms: C4_4  and  N1_5
REMARK    3  A    between atoms: C4_4  and  C10_14
REMARK       I    between atoms: N1_5  and  C5_7
REMARK    4  A    between atoms: C5_7  and  O2_9
REMARK    5  A    between atoms: O2_9  and  C6_10
REMARK    6  A    between atoms: C6_10  and  C7_11
REMARK       I    between atoms: C10_14  and  N2_16
REMARK    7  A    between atoms: N2_16  and  C11_18
REMARK    8  A    between atoms: C11_18  and  C12_20
REMARK       I    between atoms: C12_20  and  N3_22
REMARK    9  A    between atoms: N3_22  and  C13_24
ROOT
HETATM    1  C1  UNL     1     -41.556 -44.840  20.001  1.00  0.00     0.112 C
HETATM    2  C2  UNL     1     -40.651 -44.313  18.995  1.00  0.00    -0.108 C
HETATM    3  C3  UNL     1     -39.884 -43.863  18.171  1.00  0.00    -0.072 C
ENDROOT
BRANCH   3   4
HETATM    4  C4  UNL     1     -38.936 -43.305  17.186  1.00  0.00     0.258 C
BRANCH   4   5
HETATM    5  N1  UNL     1     -38.310 -44.392  16.477  1.00  0.00    -0.313 N
HETATM    6  C5  UNL     1     -38.441 -44.430  15.056  1.00  0.00     0.361 C
HETATM    7  O1  UNL     1     -39.072 -43.562  14.412  1.00  0.00    -0.238 OA
ATOM      8  H1  UNL     1     -37.788 -45.112  16.976  1.00  0.00     0.166 HD
BRANCH   6   9
HETATM    9  O2  UNL     1     -37.849 -45.463  14.375  1.00  0.00    -0.304 OA
BRANCH   9  10
HETATM   10  C6  UNL     1     -37.546 -45.501  13.019  1.00  0.00     0.184 C
BRANCH  10  11
HETATM   11  C7  UNL     1     -36.066 -45.505  12.702  1.00  0.00     0.002 C
HETATM   12  C8  UNL     1     -35.699 -46.813  12.035  1.00  0.00     0.011 C
HETATM   13  C9  UNL     1     -35.774 -44.388  11.726  1.00  0.00     0.011 C
ENDBRANCH  10  11
ENDBRANCH   9  10
ENDBRANCH   6   9
ENDBRANCH   4   5
BRANCH   4  14
HETATM   14  C10 UNL     1     -37.947 -42.518  17.973  1.00  0.00     0.254 C
HETATM   15  O3  UNL     1     -37.256 -43.125  18.839  1.00  0.00    -0.270 OA
HETATM   16  N2  UNL     1     -37.761 -41.142  17.784  1.00  0.00    -0.336 N
ATOM     17  H2  UNL     1     -38.316 -40.646  17.086  1.00  0.00     0.164 HD
BRANCH  16  18
HETATM   18  C11 UNL     1     -36.791 -40.422  18.572  1.00  0.00     0.250 C
HETATM   19  S1  UNL     1     -37.549 -39.932  20.145  1.00  0.00    -0.060 SA
BRANCH  18  20
HETATM   20  C12 UNL     1     -36.305 -39.241  17.827  1.00  0.00     0.251 C
HETATM   21  O4  UNL     1     -36.449 -38.105  18.305  1.00  0.00    -0.270 OA
HETATM   22  N3  UNL     1     -35.668 -39.351  16.562  1.00  0.00    -0.354 N
ATOM     23  H3  UNL     1     -35.543 -40.279  16.157  1.00  0.00     0.162 HD
BRANCH  22  24
HETATM   24  C13 UNL     1     -35.190 -38.204  15.825  1.00  0.00     0.084 A
HETATM   25  C14 UNL     1     -35.695 -37.997  14.417  1.00  0.00     0.027 A
HETATM   26  C15 UNL     1     -34.284 -38.388  14.662  1.00  0.00     0.027 A
ENDBRANCH  22  24
ENDBRANCH  18  20
ENDBRANCH  16  18
ENDBRANCH   4  14
ENDBRANCH   3   4
TORSDOF 9
ENDMDL