MODEL 3
REMARK VINA RESULT: -8.303639553      1.399      2.023
REMARK  8 active torsions:
REMARK  status: ('A' for Active; 'I' for Inactive)
REMARK    1  A    between atoms: C2_2  and  N1_4
REMARK       I    between atoms: N1_4  and  C4_6
REMARK    2  A    between atoms: C4_6  and  C5_8
REMARK    3  A    between atoms: C6_9  and  C7_10
REMARK       I    between atoms: C7_10  and  N2_12
REMARK    4  A    between atoms: N2_12  and  C8_13
REMARK    5  A    between atoms: C8_13  and  C9_14
REMARK    6  A    between atoms: C8_13  and  C10_17
REMARK    7  A    between atoms: C10_17  and  C11_19
REMARK    8  A    between atoms: C14_22  and  O6_23
ROOT
HETATM    1  C8  UNL     1     -34.611 -46.285  10.776  1.00  0.00     0.341 C
ENDROOT
BRANCH   1   2
HETATM    2  N2  UNL     1     -35.719 -45.917  11.490  1.00  0.00    -0.387 NA
HETATM    3  C7  UNL     1     -36.810 -45.559  12.185  1.00  0.00     0.312 C
HETATM    4  O2  UNL     1     -38.036 -45.728  11.794  1.00  0.00    -0.252 OA
BRANCH   3   5
HETATM    5  C6  UNL     1     -36.783 -44.896  13.521  1.00  0.00     0.095 C
HETATM    6  C5  UNL     1     -37.875 -44.809  14.212  1.00  0.00     0.080 C
BRANCH   6   7
HETATM    7  C4  UNL     1     -37.955 -44.148  15.558  1.00  0.00     0.241 C
HETATM    8  N1  UNL     1     -38.536 -44.903  16.567  1.00  0.00    -0.354 N
ATOM      9  H1  UNL     1     -38.811 -45.856  16.329  1.00  0.00     0.163 HD
HETATM   10  O1  UNL     1     -37.499 -42.976  15.620  1.00  0.00    -0.269 OA
BRANCH   8  11
HETATM   11  C2  UNL     1     -38.783 -44.479  17.896  1.00  0.00     0.076 C
HETATM   12  C1  UNL     1     -40.144 -43.950  18.129  1.00  0.00     0.032 C
HETATM   13  C3  UNL     1     -38.419 -45.603  18.877  1.00  0.00     0.032 C
ENDBRANCH   8  11
ENDBRANCH   6   7
ENDBRANCH   3   5
ENDBRANCH   1   2
BRANCH   1  14
HETATM   14  C9  UNL     1     -33.409 -45.593  11.376  1.00  0.00     0.218 C
HETATM   15  O3  UNL     1     -33.407 -45.336  12.575  1.00  0.00    -0.645 OA
HETATM   16  O4  UNL     1     -32.343 -45.279  10.539  1.00  0.00    -0.645 OA
ENDBRANCH   1  14
BRANCH   1  17
HETATM   17  C10 UNL     1     -34.348 -47.767  10.778  1.00  0.00     0.205 C
HETATM   18  O5  UNL     1     -33.346 -48.194  11.371  1.00  0.00    -0.288 OA
BRANCH  17  19
HETATM   19  C11 UNL     1     -35.241 -48.688  10.109  1.00  0.00     0.014 A
HETATM   20  C12 UNL     1     -36.099 -48.375   9.088  1.00  0.00     0.018 A
HETATM   21  C13 UNL     1     -36.941 -49.300   8.508  1.00  0.00     0.037 A
HETATM   22  C14 UNL     1     -36.968 -50.621   8.936  1.00  0.00     0.065 A
HETATM   23  C15 UNL     1     -36.113 -50.947   9.959  1.00  0.00     0.037 A
HETATM   24  C16 UNL     1     -35.274 -50.030  10.537  1.00  0.00     0.018 A
BRANCH  22  25
HETATM   25  O6  UNL     1     -37.837 -51.552   8.332  1.00  0.00    -0.361 OA
ATOM     26  H6  UNL     1     -37.832 -52.462   8.602  1.00  0.00     0.217 HD
ENDBRANCH  22  25
ENDBRANCH  17  19
ENDBRANCH   1  17
TORSDOF 8
ENDMDL