MODEL 2
REMARK VINA RESULT: -6.613211904      1.956      2.347
REMARK  7 active torsions:
REMARK  status: ('A' for Active; 'I' for Inactive)
REMARK    1  A    between atoms: C2_2  and  C3_3
REMARK       I    between atoms: C3_3  and  N1_5
REMARK    2  A    between atoms: N1_5  and  C4_7
REMARK    3  A    between atoms: C7_10  and  S1_11
REMARK    4  A    between atoms: S1_11  and  N2_14
REMARK    5  A    between atoms: N2_14  and  C8_16
REMARK    6  A    between atoms: C8_16  and  C9_17
REMARK    7  A    between atoms: C8_16  and  C10_19
ROOT
HETATM    1  C4  UNL     1     -37.727 -45.091  12.820  1.00  0.00     0.035 A
HETATM    2  C5  UNL     1     -37.120 -44.234  11.873  1.00  0.00     0.031 A
HETATM    3  C6  UNL     1     -35.893 -44.579  11.221  1.00  0.00     0.027 A
HETATM    4  C7  UNL     1     -35.410 -45.813  11.550  1.00  0.00     0.079 A
HETATM    5  C11 UNL     1     -35.950 -46.598  12.447  1.00  0.00     0.027 A
HETATM    6  C12 UNL     1     -37.053 -46.337  13.125  1.00  0.00     0.031 A
ENDROOT
BRANCH   4   7
HETATM    7  S1  UNL     1     -33.738 -46.313  11.024  1.00  0.00     0.259 S
HETATM    8  O2  UNL     1     -33.092 -46.944  12.214  1.00  0.00    -0.201 OA
HETATM    9  O3  UNL     1     -33.021 -45.040  10.565  1.00  0.00    -0.201 OA
BRANCH   7  10
HETATM   10  N2  UNL     1     -33.729 -47.342   9.697  1.00  0.00    -0.299 N
ATOM     11  H2  UNL     1     -33.111 -47.203   8.898  1.00  0.00     0.173 HD
BRANCH  10  12
HETATM   12  C8  UNL     1     -34.632 -48.397   9.775  1.00  0.00     0.204 C
BRANCH  12  13
HETATM   13  C9  UNL     1     -36.075 -47.966   9.517  1.00  0.00     0.122 C
HETATM   14  S2  UNL     1     -36.638 -48.959   8.091  1.00  0.00    -0.095 SA
ENDBRANCH  12  13
BRANCH  12  15
HETATM   15  C10 UNL     1     -34.462 -49.529  10.650  1.00  0.00     0.198 C
HETATM   16  O4  UNL     1     -33.724 -49.606  11.645  1.00  0.00    -0.646 OA
HETATM   17  O5  UNL     1     -35.254 -50.738  10.448  1.00  0.00    -0.646 OA
ENDBRANCH  12  15
ENDBRANCH  10  12
ENDBRANCH   7  10
ENDBRANCH   4   7
BRANCH   1  18
HETATM   18  N1  UNL     1     -38.744 -44.850  13.728  1.00  0.00    -0.324 N
HETATM   19  C3  UNL     1     -38.319 -44.235  14.971  1.00  0.00     0.244 C
HETATM   20  O1  UNL     1     -37.338 -44.379  15.513  1.00  0.00    -0.268 OA
ATOM     21  H1  UNL     1     -39.718 -45.085  13.537  1.00  0.00     0.169 HD
BRANCH  19  22
HETATM   22  C2  UNL     1     -39.360 -43.291  15.457  1.00  0.00     0.064 C
HETATM   23  C1  UNL     1     -39.843 -43.066  16.577  1.00  0.00     0.017 C
ENDBRANCH  19  22
ENDBRANCH   1  18
TORSDOF 7
ENDMDL