MODEL 2
REMARK VINA RESULT: -6.728936368      0.889      1.330
REMARK  9 active torsions:
REMARK  status: ('A' for Active; 'I' for Inactive)
REMARK    1  A    between atoms: C2_2  and  N1_4
REMARK       I    between atoms: N1_4  and  C4_6
REMARK    2  A    between atoms: C4_6  and  C5_8
REMARK    3  A    between atoms: C5_8  and  N2_9
REMARK    4  A    between atoms: N2_9  and  C6_10
REMARK       I    between atoms: N2_9  and  C13_21
REMARK    5  A    between atoms: C6_10  and  C7_11
REMARK       I    between atoms: C7_11  and  N3_13
REMARK    6  A    between atoms: N3_13  and  N4_15
REMARK    7  A    between atoms: C13_21  and  C14_23
REMARK    8  A    between atoms: C14_23  and  O4_24
REMARK    9  A    between atoms: N5_26  and  O5_28
ROOT
HETATM    1  N2  UNL     1     -34.865 -47.143  11.318  1.00  0.00    -0.328 N
HETATM    2  C13 UNL     1     -33.527 -46.793  11.503  1.00  0.00     0.297 C
HETATM    3  O3  UNL     1     -32.790 -47.708  12.039  1.00  0.00    -0.263 OA
ENDROOT
BRANCH   1   4
HETATM    4  C5  UNL     1     -35.306 -48.489  11.701  1.00  0.00     0.229 C
BRANCH   4   5
HETATM    5  C4  UNL     1     -35.432 -49.368  10.523  1.00  0.00     0.235 C
HETATM    6  N1  UNL     1     -36.354 -49.127   9.503  1.00  0.00    -0.356 N
ATOM      7  H1  UNL     1     -36.945 -48.302   9.602  1.00  0.00     0.162 HD
HETATM    8  O1  UNL     1     -34.683 -50.393  10.408  1.00  0.00    -0.272 OA
BRANCH   6   9
HETATM    9  C2  UNL     1     -36.550 -49.935   8.320  1.00  0.00     0.076 C
HETATM   10  C1  UNL     1     -37.389 -51.151   8.550  1.00  0.00     0.032 C
HETATM   11  C3  UNL     1     -37.184 -49.114   7.206  1.00  0.00     0.032 C
ENDBRANCH   6   9
ENDBRANCH   4   5
ENDBRANCH   1   4
BRANCH   1  12
HETATM   12  C6  UNL     1     -35.837 -46.237  10.793  1.00  0.00     0.231 C
BRANCH  12  13
HETATM   13  C7  UNL     1     -36.305 -45.296  11.877  1.00  0.00     0.253 C
HETATM   14  O2  UNL     1     -35.746 -44.196  12.026  1.00  0.00    -0.270 OA
HETATM   15  N3  UNL     1     -37.378 -45.649  12.733  1.00  0.00    -0.271 N
ATOM     16  H3  UNL     1     -37.838 -46.550  12.611  1.00  0.00     0.189 HD
BRANCH  15  17
HETATM   17  N4  UNL     1     -37.800 -44.820  13.703  1.00  0.00    -0.325 N
HETATM   18  C8  UNL     1     -36.931 -44.462  14.763  1.00  0.00     0.142 C
HETATM   19  C9  UNL     1     -37.660 -44.095  16.034  1.00  0.00     0.021 C
HETATM   20  C10 UNL     1     -39.107 -44.537  15.849  1.00  0.00     0.003 C
HETATM   21  C11 UNL     1     -39.672 -43.639  14.742  1.00  0.00     0.021 C
HETATM   22  C12 UNL     1     -38.900 -43.961  13.484  1.00  0.00     0.142 C
ENDBRANCH  15  17
ENDBRANCH  12  13
ENDBRANCH   1  12
BRANCH   2  23
HETATM   23  C14 UNL     1     -32.844 -45.572  11.187  1.00  0.00     0.230 C
HETATM   24  N5  UNL     1     -32.663 -44.557  11.950  1.00  0.00    -0.243 N
ATOM     25  H5  UNL     1     -33.042 -44.604  12.895  1.00  0.00     0.196 HD
BRANCH  23  26
HETATM   26  O4  UNL     1     -32.291 -45.428   9.896  1.00  0.00    -0.341 OA
ATOM     27  H4  UNL     1     -31.511 -44.895   9.797  1.00  0.00     0.219 HD
ENDBRANCH  23  26
BRANCH  24  28
HETATM   28  O5  UNL     1     -32.001 -43.420  11.594  1.00  0.00    -0.288 OA
ATOM     29  H5  UNL     1     -31.099 -43.221  11.817  1.00  0.00     0.244 HD
ENDBRANCH  24  28
ENDBRANCH   2  23
TORSDOF 9
ENDMDL