MODEL 1
REMARK VINA RESULT: -8.060124197      0.000      0.000
REMARK  8 active torsions:
REMARK  status: ('A' for Active; 'I' for Inactive)
REMARK    1  A    between atoms: C2_2  and  C3_3
REMARK    2  A    between atoms: C2_2  and  C7_13
REMARK       I    between atoms: C3_3  and  N1_5
REMARK    3  A    between atoms: N1_5  and  C4_7
REMARK    4  A    between atoms: C4_7  and  C5_8
REMARK    5  A    between atoms: C4_7  and  C6_10
REMARK    6  A    between atoms: C10_16  and  N2_17
REMARK       I    between atoms: N2_17  and  C11_19
REMARK    7  A    between atoms: C11_19  and  C12_21
REMARK    8  A    between atoms: C12_21  and  O6_24
ROOT
HETATM    1  C7  UNL     1     -35.034 -46.408  11.614  1.00  0.00    -0.045 A
HETATM    2  C8  UNL     1     -35.903 -47.046  12.473  1.00  0.00     0.010 A
HETATM    3  C9  UNL     1     -36.905 -46.378  13.123  1.00  0.00     0.030 A
HETATM    4  C10 UNL     1     -37.114 -44.994  12.955  1.00  0.00     0.034 A
HETATM    5  C15 UNL     1     -36.242 -44.378  12.097  1.00  0.00     0.030 A
HETATM    6  C16 UNL     1     -35.213 -45.059  11.429  1.00  0.00     0.010 A
ENDROOT
BRANCH   1   7
HETATM    7  C2  UNL     1     -33.929 -47.075  10.897  1.00  0.00     0.106 C
HETATM    8  C1  UNL     1     -33.059 -46.008  10.272  1.00  0.00     0.025 C
BRANCH   7   9
HETATM    9  C3  UNL     1     -34.350 -48.102   9.942  1.00  0.00     0.226 C
HETATM   10  O1  UNL     1     -33.442 -48.897   9.503  1.00  0.00    -0.273 OA
HETATM   11  N1  UNL     1     -35.688 -48.247   9.494  1.00  0.00    -0.340 N
ATOM     12  H1  UNL     1     -36.398 -47.607   9.850  1.00  0.00     0.163 HD
BRANCH  11  13
HETATM   13  C4  UNL     1     -36.083 -49.271   8.550  1.00  0.00     0.247 C
BRANCH  13  14
HETATM   14  C5  UNL     1     -37.268 -48.810   7.800  1.00  0.00     0.267 C
HETATM   15  O2  UNL     1     -37.260 -48.782   6.592  1.00  0.00    -0.304 OA
ENDBRANCH  13  14
BRANCH  13  16
HETATM   16  C6  UNL     1     -36.499 -50.463   9.361  1.00  0.00     0.203 C
HETATM   17  O3  UNL     1     -35.729 -51.031  10.175  1.00  0.00    -0.646 OA
HETATM   18  O4  UNL     1     -37.790 -50.989   9.232  1.00  0.00    -0.646 OA
ENDBRANCH  13  16
ENDBRANCH  11  13
ENDBRANCH   7   9
ENDBRANCH   1   7
BRANCH   4  19
HETATM   19  N2  UNL     1     -38.153 -44.359  13.656  1.00  0.00    -0.325 N
HETATM   20  C11 UNL     1     -38.192 -44.107  15.019  1.00  0.00     0.256 C
HETATM   21  O5  UNL     1     -37.299 -44.404  15.849  1.00  0.00    -0.270 OA
ATOM     22  H2  UNL     1     -38.957 -44.053  13.109  1.00  0.00     0.169 HD
BRANCH  20  23
HETATM   23  C12 UNL     1     -39.388 -43.411  15.647  1.00  0.00     0.131 C
HETATM   24  C13 UNL     1     -39.721 -44.015  16.981  1.00  0.00     0.056 C
HETATM   25  C14 UNL     1     -40.517 -43.560  14.640  1.00  0.00     0.056 C
BRANCH  23  26
HETATM   26  O6  UNL     1     -39.076 -42.073  15.775  1.00  0.00    -0.381 OA
ATOM     27  H6  UNL     1     -38.668 -41.951  16.624  1.00  0.00     0.211 HD
ENDBRANCH  23  26
ENDBRANCH  20  23
ENDBRANCH   4  19
TORSDOF 8
ENDMDL