MODEL 4
REMARK VINA RESULT: -6.408042190      6.206      8.667
REMARK  7 active torsions:
REMARK  status: ('A' for Active; 'I' for Inactive)
REMARK    1  A    between atoms: O1_2  and  N1_3
REMARK       I    between atoms: N1_3  and  C2_5
REMARK    2  A    between atoms: C2_5  and  C3_7
REMARK    3  A    between atoms: C8_12  and  N2_13
REMARK       I    between atoms: N2_13  and  C9_14
REMARK    4  A    between atoms: C9_14  and  C10_16
REMARK    5  A    between atoms: C11_17  and  C12_18
REMARK    6  A    between atoms: C11_17  and  C13_21
REMARK    7  A    between atoms: C13_21  and  C15_23
ROOT
HETATM    1  N2  UNL     1     -37.722 -40.806  18.212  1.00  0.00    -0.366 NA
HETATM    2  C9  UNL     1     -38.793 -41.522  18.529  1.00  0.00     0.317 C
HETATM    3  O3  UNL     1     -39.984 -41.018  18.477  1.00  0.00    -0.252 OA
ENDROOT
BRANCH   1   4
HETATM    4  C8  UNL     1     -36.606 -40.054  17.880  1.00  0.00     0.127 A
HETATM    5  C3  UNL     1     -35.566 -39.794  18.772  1.00  0.00     0.074 A
HETATM    6  C4  UNL     1     -34.351 -39.264  18.347  1.00  0.00     0.020 A
HETATM    7  C5  UNL     1     -34.163 -38.979  16.994  1.00  0.00     0.001 A
HETATM    8  C6  UNL     1     -35.151 -39.213  16.091  1.00  0.00     0.003 A
HETATM    9  C7  UNL     1     -36.347 -39.741  16.517  1.00  0.00     0.046 A
BRANCH   5  10
HETATM   10  C2  UNL     1     -35.748 -39.943  20.200  1.00  0.00     0.278 C
HETATM   11  N1  UNL     1     -35.985 -41.188  20.840  1.00  0.00    -0.231 N
ATOM     12  H1  UNL     1     -36.045 -42.042  20.285  1.00  0.00     0.197 HD
HETATM   13  O2  UNL     1     -35.704 -38.934  20.936  1.00  0.00    -0.265 OA
BRANCH  11  14
HETATM   14  O1  UNL     1     -36.130 -41.245  22.190  1.00  0.00    -0.282 OA
HETATM   15  C1  UNL     1     -37.247 -42.004  22.539  1.00  0.00     0.237 C
ENDBRANCH  11  14
ENDBRANCH   5  10
ENDBRANCH   1   4
BRANCH   2  16
HETATM   16  C10 UNL     1     -38.777 -42.917  18.936  1.00  0.00     0.105 C
HETATM   17  C11 UNL     1     -38.900 -43.964  18.226  1.00  0.00     0.039 C
BRANCH  17  18
HETATM   18  C12 UNL     1     -39.109 -44.174  16.822  1.00  0.00     0.206 C
HETATM   19  O4  UNL     1     -40.169 -43.569  16.269  1.00  0.00    -0.644 OA
HETATM   20  O5  UNL     1     -38.426 -44.888  15.902  1.00  0.00    -0.644 OA
ENDBRANCH  17  18
BRANCH  17  21
HETATM   21  C13 UNL     1     -38.670 -45.305  18.984  1.00  0.00     0.122 C
HETATM   22  C14 UNL     1     -39.732 -45.445  20.039  1.00  0.00     0.026 C
BRANCH  21  23
HETATM   23  C15 UNL     1     -37.389 -45.143  19.769  1.00  0.00     0.181 C
HETATM   24  O6  UNL     1     -37.484 -45.230  21.017  1.00  0.00    -0.647 OA
HETATM   25  O7  UNL     1     -36.222 -44.919  19.141  1.00  0.00    -0.647 OA
ENDBRANCH  21  23
ENDBRANCH  17  21
ENDBRANCH   2  16
TORSDOF 7
ENDMDL