MODEL 4
REMARK VINA RESULT: -7.663750142      1.213      1.781
REMARK  10 active torsions:
REMARK  status: ('A' for Active; 'I' for Inactive)
REMARK    1  A    between atoms: C2_2  and  N1_5
REMARK       I    between atoms: N1_5  and  C5_7
REMARK       I    between atoms: C5_7  and  N2_9
REMARK    2  A    between atoms: N2_9  and  C6_11
REMARK    3  A    between atoms: C6_11  and  C7_12
REMARK    4  A    between atoms: C7_12  and  N3_13
REMARK    5  A    between atoms: N3_13  and  C8_15
REMARK    6  A    between atoms: C8_15  and  C9_19
REMARK    7  A    between atoms: C9_19  and  O2_20
REMARK    8  A    between atoms: O2_20  and  C10_21
REMARK    9  A    between atoms: C10_21  and  C11_23
REMARK   10  A    between atoms: C12_24  and  C13_25
ROOT
HETATM    1  C8  UNL     1     -35.580 -44.631  11.773  1.00  0.00     0.095 C
HETATM    2  N4  UNL     1     -35.090 -43.839  10.894  1.00  0.00    -0.387 N
ATOM      3  H41 UNL     1     -34.089 -43.908  10.711  1.00  0.00     0.157 HD
ATOM      4  H42 UNL     1     -35.700 -43.178  10.412  1.00  0.00     0.157 HD
ENDROOT
BRANCH   1   5
HETATM    5  N3  UNL     1     -36.971 -44.535  12.028  1.00  0.00    -0.377 N
ATOM      6  H3  UNL     1     -37.525 -43.967  11.387  1.00  0.00     0.160 HD
BRANCH   5   7
HETATM    7  C7  UNL     1     -37.660 -45.165  13.104  1.00  0.00     0.140 C
BRANCH   7   8
HETATM    8  C6  UNL     1     -37.446 -44.569  14.452  1.00  0.00     0.144 C
BRANCH   8   9
HETATM    9  N2  UNL     1     -38.645 -44.327  15.185  1.00  0.00    -0.342 N
HETATM   10  C5  UNL     1     -38.659 -44.270  16.597  1.00  0.00     0.316 C
HETATM   11  N1  UNL     1     -39.839 -44.032  17.352  1.00  0.00    -0.335 N
HETATM   12  O1  UNL     1     -37.573 -44.439  17.217  1.00  0.00    -0.247 OA
ATOM     13  H1  UNL     1     -40.712 -43.902  16.839  1.00  0.00     0.165 HD
ATOM     14  H2  UNL     1     -39.518 -44.190  14.674  1.00  0.00     0.164 HD
BRANCH  11  15
HETATM   15  C2  UNL     1     -39.890 -43.963  18.773  1.00  0.00     0.023 C
HETATM   16  C1  UNL     1     -41.339 -43.907  19.221  1.00  0.00     0.037 C
HETATM   17  C3  UNL     1     -39.234 -42.676  19.257  1.00  0.00     0.037 C
HETATM   18  C4  UNL     1     -39.210 -45.099  19.468  1.00  0.00     0.037 C
ENDBRANCH  11  15
ENDBRANCH   8   9
ENDBRANCH   7   8
ENDBRANCH   5   7
ENDBRANCH   1   5
BRANCH   1  19
HETATM   19  C9  UNL     1     -34.693 -45.592  12.474  1.00  0.00     0.254 C
BRANCH  19  20
HETATM   20  O2  UNL     1     -33.449 -45.734  11.821  1.00  0.00    -0.311 OA
BRANCH  20  21
HETATM   21  C10 UNL     1     -33.211 -46.521  10.719  1.00  0.00     0.283 C
HETATM   22  O3  UNL     1     -32.267 -46.207   9.958  1.00  0.00    -0.260 OA
BRANCH  21  23
HETATM   23  C11 UNL     1     -34.002 -47.701  10.390  1.00  0.00     0.083 C
HETATM   24  C12 UNL     1     -35.027 -47.669   9.577  1.00  0.00     0.017 C
BRANCH  24  25
HETATM   25  C13 UNL     1     -35.826 -48.825   9.236  1.00  0.00    -0.036 A
HETATM   26  C14 UNL     1     -35.641 -50.004   9.923  1.00  0.00     0.011 A
HETATM   27  C15 UNL     1     -36.367 -51.126   9.640  1.00  0.00     0.001 A
HETATM   28  C16 UNL     1     -37.319 -51.093   8.635  1.00  0.00     0.000 A
HETATM   29  C17 UNL     1     -37.511 -49.914   7.940  1.00  0.00     0.001 A
HETATM   30  C18 UNL     1     -36.771 -48.795   8.240  1.00  0.00     0.011 A
ENDBRANCH  24  25
ENDBRANCH  21  23
ENDBRANCH  20  21
ENDBRANCH  19  20
ENDBRANCH   1  19
TORSDOF 10
ENDMDL