MODEL 3
REMARK VINA RESULT: -8.102657762      2.751      4.919
REMARK  12 active torsions:
REMARK  status: ('A' for Active; 'I' for Inactive)
REMARK    1  A    between atoms: C2_2  and  C3_3
REMARK    2  A    between atoms: C3_3  and  C5_5
REMARK    3  A    between atoms: C5_5  and  C6_6
REMARK    4  A    between atoms: C6_6  and  C7_7
REMARK    5  A    between atoms: C7_7  and  C9_9
REMARK    6  A    between atoms: C10_10  and  C11_11
REMARK    7  A    between atoms: C12_12  and  C13_13
REMARK    8  A    between atoms: C14_14  and  C15_15
REMARK    9  A    between atoms: C16_17  and  O2_18
REMARK   10  A    between atoms: C17_20  and  O3_21
REMARK   11  A    between atoms: C18_23  and  O4_24
REMARK   12  A    between atoms: C19_26  and  O5_27
ROOT
HETATM    1  C15 UNL     1     -35.264 -48.357   9.036  1.00  0.00     0.179 C
HETATM    2  O1  UNL     1     -34.595 -48.900  10.071  1.00  0.00    -0.347 OA
HETATM    3  C16 UNL     1     -35.150 -49.834  10.865  1.00  0.00     0.289 C
HETATM    4  C17 UNL     1     -36.096 -50.803  10.226  1.00  0.00     0.204 C
HETATM    5  C18 UNL     1     -36.629 -50.334   8.897  1.00  0.00     0.183 C
HETATM    6  C19 UNL     1     -36.725 -48.830   8.978  1.00  0.00     0.182 C
ENDROOT
BRANCH   1   7
HETATM    7  C14 UNL     1     -35.398 -46.870   9.261  1.00  0.00     0.008 C
HETATM    8  C13 UNL     1     -34.582 -46.303  10.144  1.00  0.00    -0.001 C
BRANCH   8   9
HETATM    9  C12 UNL     1     -34.651 -44.892  10.417  1.00  0.00    -0.000 C
HETATM   10  C11 UNL     1     -35.020 -44.411  11.587  1.00  0.00     0.000 C
BRANCH  10  11
HETATM   11  C10 UNL     1     -35.390 -45.234  12.699  1.00  0.00     0.001 C
HETATM   12  C9  UNL     1     -36.529 -45.456  13.233  1.00  0.00     0.019 C
BRANCH  12  13
HETATM   13  C7  UNL     1     -37.896 -45.021  13.022  1.00  0.00    -0.005 C
HETATM   14  C8  UNL     1     -38.455 -45.292  11.827  1.00  0.00     0.032 C
BRANCH  13  15
HETATM   15  C6  UNL     1     -38.723 -44.305  13.933  1.00  0.00    -0.144 C
BRANCH  15  16
HETATM   16  C5  UNL     1     -39.440 -43.682  14.724  1.00  0.00     0.093 C
BRANCH  16  17
HETATM   17  C3  UNL     1     -39.214 -43.514  16.190  1.00  0.00     0.014 C
HETATM   18  C4  UNL     1     -38.637 -44.821  16.675  1.00  0.00     0.015 C
BRANCH  17  19
HETATM   19  C2  UNL     1     -38.305 -42.348  16.419  1.00  0.00    -0.032 C
HETATM   20  C1  UNL     1     -38.000 -41.964  17.676  1.00  0.00     0.007 C
ENDBRANCH  17  19
ENDBRANCH  16  17
ENDBRANCH  15  16
ENDBRANCH  13  15
ENDBRANCH  12  13
ENDBRANCH  10  11
ENDBRANCH   8   9
ENDBRANCH   1   7
BRANCH   6  21
HETATM   21  O5  UNL     1     -37.382 -48.275   7.887  1.00  0.00    -0.390 OA
ATOM     22  H5  UNL     1     -36.838 -48.312   7.109  1.00  0.00     0.210 HD
ENDBRANCH   6  21
BRANCH   3  23
HETATM   23  O2  UNL     1     -34.157 -50.473  11.604  1.00  0.00    -0.368 OA
ATOM     24  H2  UNL     1     -34.445 -50.578  12.503  1.00  0.00     0.212 HD
ENDBRANCH   3  23
BRANCH   5  25
HETATM   25  O4  UNL     1     -37.927 -50.852   8.735  1.00  0.00    -0.390 OA
ATOM     26  H4  UNL     1     -38.513 -50.132   8.536  1.00  0.00     0.210 HD
ENDBRANCH   5  25
BRANCH   4  27
HETATM   27  O3  UNL     1     -35.489 -52.044   9.980  1.00  0.00    -0.388 OA
ATOM     28  H3  UNL     1     -35.024 -52.370  10.741  1.00  0.00     0.210 HD
ENDBRANCH   4  27
TORSDOF 12
ENDMDL