MODEL 3
REMARK VINA RESULT: -8.462159615      0.776      1.265
REMARK  9 active torsions:
REMARK  status: ('A' for Active; 'I' for Inactive)
REMARK    1  A    between atoms: N2_4  and  C1_6
REMARK    2  A    between atoms: C2_7  and  N3_8
REMARK    3  A    between atoms: N3_8  and  O1_10
REMARK    4  A    between atoms: O1_10  and  C3_11
REMARK    5  A    between atoms: C3_11  and  C4_13
REMARK    6  A    between atoms: C7_16  and  N4_17
REMARK       I    between atoms: N4_17  and  C8_19
REMARK    7  A    between atoms: C8_19  and  C9_21
REMARK    8  A    between atoms: C9_21  and  O4_22
REMARK    9  A    between atoms: O4_22  and  C10_23
ROOT
HETATM    1  C4  UNL     1     -38.578 -44.345  14.401  1.00  0.00     0.041 A
HETATM    2  C5  UNL     1     -37.845 -45.492  14.591  1.00  0.00     0.020 A
HETATM    3  C6  UNL     1     -37.159 -46.058  13.556  1.00  0.00     0.030 A
HETATM    4  C7  UNL     1     -37.175 -45.489  12.260  1.00  0.00     0.034 A
HETATM    5  C16 UNL     1     -37.898 -44.353  12.060  1.00  0.00     0.030 A
HETATM    6  C17 UNL     1     -38.586 -43.804  13.144  1.00  0.00     0.020 A
ENDROOT
BRANCH   1   7
HETATM    7  C3  UNL     1     -39.297 -43.764  15.512  1.00  0.00     0.315 C
HETATM    8  O2  UNL     1     -40.022 -42.742  15.408  1.00  0.00    -0.257 OA
BRANCH   7   9
HETATM    9  O1  UNL     1     -39.231 -44.312  16.806  1.00  0.00    -0.195 OA
BRANCH   9  10
HETATM   10  N3  UNL     1     -38.659 -43.625  17.851  1.00  0.00    -0.267 N
ATOM     11  H3  UNL     1     -39.088 -42.750  18.151  1.00  0.00     0.194 HD
BRANCH  10  12
HETATM   12  C2  UNL     1     -37.493 -44.081  18.534  1.00  0.00     0.133 C
HETATM   13  C1  UNL     1     -37.570 -45.167  19.260  1.00  0.00     0.125 C
BRANCH  13  14
HETATM   14  N2  UNL     1     -38.776 -45.894  19.381  1.00  0.00    -0.317 N
HETATM   15  N1  UNL     1     -39.491 -45.907  20.429  1.00  0.00    -0.345 N
ATOM     16  H12 UNL     1     -39.161 -45.356  21.221  1.00  0.00     0.176 HD
ATOM     17  H11 UNL     1     -40.362 -46.431  20.516  1.00  0.00     0.176 HD
ATOM     18  H2  UNL     1     -39.091 -46.440  18.578  1.00  0.00     0.185 HD
ENDBRANCH  13  14
ENDBRANCH  10  12
ENDBRANCH   9  10
ENDBRANCH   7   9
ENDBRANCH   1   7
BRANCH   4  19
HETATM   19  N4  UNL     1     -36.468 -46.135  11.235  1.00  0.00    -0.325 N
HETATM   20  C8  UNL     1     -35.106 -45.947  10.951  1.00  0.00     0.246 C
HETATM   21  O3  UNL     1     -34.348 -45.186  11.585  1.00  0.00    -0.271 OA
ATOM     22  H4  UNL     1     -36.984 -46.791  10.649  1.00  0.00     0.169 HD
BRANCH  20  23
HETATM   23  C9  UNL     1     -34.459 -46.697   9.805  1.00  0.00     0.278 C
BRANCH  23  24
HETATM   24  O4  UNL     1     -34.388 -48.039  10.116  1.00  0.00    -0.342 OA
BRANCH  24  25
HETATM   25  C10 UNL     1     -35.308 -48.964   9.687  1.00  0.00     0.069 A
HETATM   26  C11 UNL     1     -36.163 -48.528   8.664  1.00  0.00     0.037 A
HETATM   27  C12 UNL     1     -37.106 -49.401   8.193  1.00  0.00     0.003 A
HETATM   28  C13 UNL     1     -37.241 -50.672   8.684  1.00  0.00     0.000 A
HETATM   29  C14 UNL     1     -36.417 -51.129   9.689  1.00  0.00     0.003 A
HETATM   30  C15 UNL     1     -35.459 -50.239  10.165  1.00  0.00     0.037 A
ENDBRANCH  24  25
ENDBRANCH  23  24
ENDBRANCH  20  23
ENDBRANCH   4  19
TORSDOF 9
ENDMDL