MODEL 4
REMARK VINA RESULT: -3.910087937      1.878      3.835
REMARK  2 active torsions:
REMARK  status: ('A' for Active; 'I' for Inactive)
REMARK    1  A    between atoms: C2_2  and  C3_3
REMARK    2  A    between atoms: C3_3  and  C4_4
ROOT
HETATM    1  C4  UNL     1      28.636  34.481  18.805  1.00  0.00     0.067 C
HETATM    2  C5  UNL     1      29.199  35.049  20.092  1.00  0.00     0.037 C
HETATM    3  N1  UNL     1      27.325  35.103  18.631  1.00  0.00    -0.118 NA
HETATM    4  N2  UNL     1      26.389  34.071  18.555  1.00  0.00    -0.038 NA
HETATM    5  N3  UNL     1      26.918  33.126  19.460  1.00  0.00    -0.118 NA
HETATM    6  C6  UNL     1      28.297  33.047  18.940  1.00  0.00     0.064 C
HETATM    7  C7  UNL     1      28.221  32.276  17.668  1.00  0.00     0.037 C
HETATM    8  C8  UNL     1      29.071  32.336  20.027  1.00  0.00     0.037 C
ENDROOT
BRANCH   1   9
HETATM    9  C3  UNL     1      29.475  34.854  17.648  1.00  0.00     0.030 C
BRANCH   9  10
HETATM   10  C2  UNL     1      29.838  36.314  17.583  1.00  0.00    -0.002 C
HETATM   11  C1  UNL     1      30.271  36.695  16.195  1.00  0.00     0.005 C
ENDBRANCH   9  10
ENDBRANCH   1   9
TORSDOF 2
ENDMDL