MODEL 1
REMARK VINA RESULT: -3.654273921      0.000      0.000
REMARK  3 active torsions:
REMARK  status: ('A' for Active; 'I' for Inactive)
REMARK    1  A    between atoms: N1_1  and  C1_5
REMARK    2  A    between atoms: C1_5  and  C2_6
REMARK    3  A    between atoms: C8_12  and  N2_13
ROOT
HETATM    1  C2  UNL     1      33.285  40.210  23.115  1.00  0.00     0.041 C
HETATM    2  C3  UNL     1      31.974  40.573  22.454  1.00  0.00     0.008 C
HETATM    3  C4  UNL     1      32.076  41.830  21.631  1.00  0.00     0.000 C
HETATM    4  C5  UNL     1      32.533  42.994  22.445  1.00  0.00     0.000 C
HETATM    5  C6  UNL     1      33.925  42.884  22.967  1.00  0.00     0.002 C
HETATM    6  C7  UNL     1      34.810  41.962  22.187  1.00  0.00     0.033 C
HETATM    7  C8  UNL     1      34.390  40.546  22.163  1.00  0.00     0.189 C
ENDROOT
BRANCH   1   8
HETATM    8  C1  UNL     1      33.226  38.718  23.409  1.00  0.00     0.236 C
BRANCH   8   9
HETATM    9  N1  UNL     1      31.846  38.305  23.157  1.00  0.00    -0.079 N
ATOM     10  H13 UNL     1      31.326  38.087  24.007  1.00  0.00     0.274 HD
ATOM     11  H12 UNL     1      31.247  39.065  22.835  1.00  0.00     0.274 HD
ATOM     12  H11 UNL     1      31.896  37.525  22.502  1.00  0.00     0.274 HD
ENDBRANCH   8   9
ENDBRANCH   1   8
BRANCH   7  13
HETATM   13  N2  UNL     1      35.574  39.703  22.398  1.00  0.00    -0.075 N
ATOM     14  H23 UNL     1      35.347  38.711  22.331  1.00  0.00     0.274 HD
ATOM     15  H22 UNL     1      36.236  39.764  21.624  1.00  0.00     0.274 HD
ATOM     16  H21 UNL     1      36.018  39.926  23.288  1.00  0.00     0.274 HD
ENDBRANCH   7  13
TORSDOF 3
ENDMDL