MODEL 2
REMARK VINA RESULT: -4.135242861      1.546      2.161
REMARK  2 active torsions:
REMARK  status: ('A' for Active; 'I' for Inactive)
REMARK    1  A    between atoms: C4_4  and  N1_5
REMARK    2  A    between atoms: N1_5  and  C5_7
ROOT
HETATM    1  C5  UNL     1      29.052  34.966  19.228  1.00  0.00     0.171 C
HETATM    2  N2  UNL     1      29.430  36.167  18.946  1.00  0.00    -0.361 N
ATOM      3  H2  UNL     1      29.494  36.926  19.624  1.00  0.00     0.162 HD
HETATM    4  C6  UNL     1      29.750  36.296  17.541  1.00  0.00     0.142 C
HETATM    5  C7  UNL     1      29.927  34.866  17.107  1.00  0.00     0.142 C
HETATM    6  N3  UNL     1      29.080  34.164  18.047  1.00  0.00    -0.361 N
ATOM      7  H3  UNL     1      28.601  33.276  17.896  1.00  0.00     0.162 HD
ENDROOT
BRANCH   1   8
HETATM    8  N1  UNL     1      28.654  34.441  20.495  1.00  0.00    -0.358 N
ATOM      9  H1  UNL     1      28.793  34.999  21.337  1.00  0.00     0.163 HD
BRANCH   8  10
HETATM   10  C4  UNL     1      28.054  33.122  20.603  1.00  0.00     0.084 C
HETATM   11  C3  UNL     1      28.619  32.334  21.742  1.00  0.00     0.025 C
HETATM   12  C2  UNL     1      27.428  31.985  22.620  1.00  0.00     0.002 C
HETATM   13  C1  UNL     1      26.557  33.229  22.405  1.00  0.00     0.002 C
HETATM   14  C8  UNL     1      26.575  33.290  20.872  1.00  0.00     0.025 C
ENDBRANCH   8  10
ENDBRANCH   1   8
TORSDOF 2
ENDMDL