MODEL 4
REMARK VINA RESULT: -4.396331836      0.901      4.890
REMARK  2 active torsions:
REMARK  status: ('A' for Active; 'I' for Inactive)
REMARK    1  A    between atoms: C3_5  and  N2_6
REMARK    2  A    between atoms: N2_6  and  C4_8
ROOT
HETATM    1  N2  UNL     1      29.462  35.432  19.683  1.00  0.00    -0.352 N
ATOM      2  H2  UNL     1      30.208  35.853  20.236  1.00  0.00     0.162 HD
ENDROOT
BRANCH   1   3
HETATM    3  C3  UNL     1      28.891  34.140  20.028  1.00  0.00     0.074 C
HETATM    4  N1  UNL     1      28.053  33.942  20.975  1.00  0.00    -0.380 N
HETATM    5  C2  UNL     1      27.633  32.575  21.121  1.00  0.00     0.121 C
ATOM      6  H1  UNL     1      27.712  34.692  21.575  1.00  0.00     0.160 HD
HETATM    7  C1  UNL     1      28.028  31.973  19.775  1.00  0.00     0.027 C
HETATM    8  C8  UNL     1      29.178  32.859  19.362  1.00  0.00     0.077 C
ENDBRANCH   1   3
BRANCH   1   9
HETATM    9  C4  UNL     1      28.921  36.086  18.522  1.00  0.00     0.285 C
HETATM   10  C5  UNL     1      29.837  35.799  17.347  1.00  0.00     0.056 C
HETATM   11  C6  UNL     1      30.272  37.190  16.877  1.00  0.00     0.031 C
HETATM   12  C7  UNL     1      29.093  38.027  17.375  1.00  0.00     0.235 C
HETATM   13  N3  UNL     1      28.976  37.519  18.745  1.00  0.00    -0.054 N
ATOM     14  H32 UNL     1      28.202  37.905  19.286  1.00  0.00     0.279 HD
ATOM     15  H31 UNL     1      29.704  37.831  19.387  1.00  0.00     0.279 HD
ENDBRANCH   1   9
TORSDOF 2
ENDMDL