MODEL 5
REMARK VINA RESULT: -4.343180444      7.890      9.021
REMARK  2 active torsions:
REMARK  status: ('A' for Active; 'I' for Inactive)
REMARK    1  A    between atoms: O1_2  and  N1_3
REMARK    2  A    between atoms: N1_3  and  C2_4
ROOT
HETATM    1  C2  UNL     1      29.360  35.010  17.683  1.00  0.00     0.204 C
HETATM    2  C3  UNL     1      28.595  34.822  18.920  1.00  0.00     0.044 C
HETATM    3  C4  UNL     1      28.997  33.635  19.745  1.00  0.00     0.004 C
HETATM    4  C5  UNL     1      28.401  32.415  19.093  1.00  0.00     0.007 C
HETATM    5  C6  UNL     1      29.422  31.745  18.259  1.00  0.00     0.075 C
HETATM    6  C7  UNL     1      30.432  32.626  17.664  1.00  0.00     0.071 C
HETATM    7  N2  UNL     1      31.575  32.101  17.413  1.00  0.00    -0.389 N
ATOM      8  H21 UNL     1      32.277  32.714  16.999  1.00  0.00     0.157 HD
ATOM      9  H22 UNL     1      31.674  31.114  17.652  1.00  0.00     0.157 HD
HETATM   10  N3  UNL     1      30.294  33.998  17.332  1.00  0.00    -0.360 N
ATOM     11  H3  UNL     1      31.026  34.332  16.704  1.00  0.00     0.162 HD
ENDROOT
BRANCH   1  12
HETATM   12  N1  UNL     1      30.090  36.285  17.761  1.00  0.00    -0.076 NA
BRANCH  12  13
HETATM   13  O1  UNL     1      29.413  37.177  18.503  1.00  0.00    -0.289 OA
HETATM   14  C1  UNL     1      29.082  38.322  17.793  1.00  0.00     0.231 C
ENDBRANCH  12  13
ENDBRANCH   1  12
TORSDOF 2
ENDMDL