MODEL 3
REMARK VINA RESULT: -3.885098535      8.580      9.603
REMARK  1 active torsions:
REMARK  status: ('A' for Active; 'I' for Inactive)
REMARK    1  A    between atoms: N2_4  and  C2_6
ROOT
HETATM    1  C2  UNL     1      28.878  34.584  18.664  1.00  0.00     0.285 C
HETATM    2  C3  UNL     1      29.636  34.570  17.377  1.00  0.00     0.056 C
HETATM    3  C4  UNL     1      30.052  36.007  17.153  1.00  0.00     0.031 C
HETATM    4  C5  UNL     1      29.202  36.750  18.162  1.00  0.00     0.235 C
HETATM    5  N3  UNL     1      29.264  35.854  19.301  1.00  0.00    -0.054 N
ATOM      6  H31 UNL     1      30.149  35.843  19.808  1.00  0.00     0.279 HD
ATOM      7  H32 UNL     1      28.707  36.129  20.110  1.00  0.00     0.279 HD
ENDROOT
BRANCH   1   8
HETATM    8  N2  UNL     1      29.191  33.517  19.550  1.00  0.00    -0.345 N
HETATM    9  C1  UNL     1      28.576  33.325  20.663  1.00  0.00     0.162 C
HETATM   10  N1  UNL     1      27.526  34.132  21.144  1.00  0.00    -0.074 NA
HETATM   11  S1  UNL     1      29.130  31.910  21.640  1.00  0.00    -0.017 SA
ATOM     12  H2  UNL     1      29.939  32.873  19.290  1.00  0.00     0.163 HD
ENDBRANCH   1   8
TORSDOF 1
ENDMDL