MODEL 3
REMARK VINA RESULT: -3.634276698      8.421      9.675
REMARK  2 active torsions:
REMARK  status: ('A' for Active; 'I' for Inactive)
REMARK    1  A    between atoms: N1_1  and  C1_5
REMARK    2  A    between atoms: C4_8  and  N2_9
ROOT
HETATM    1  N2  UNL     1      28.148  33.031  20.937  1.00  0.00    -0.384 N
ATOM      2  H2  UNL     1      28.837  32.281  20.991  1.00  0.00     0.160 HD
HETATM    3  C5  UNL     1      27.286  33.208  21.859  1.00  0.00     0.166 C
HETATM    4  S1  UNL     1      26.041  33.441  22.889  1.00  0.00    -0.075 SA
ENDROOT
BRANCH   1   5
HETATM    5  C4  UNL     1      28.110  33.953  19.793  1.00  0.00     0.107 C
HETATM    6  C3  UNL     1      28.428  33.267  18.515  1.00  0.00     0.030 C
HETATM    7  C2  UNL     1      29.589  33.941  17.816  1.00  0.00     0.064 C
HETATM    8  C1  UNL     1      29.319  35.424  17.767  1.00  0.00     0.380 C
HETATM    9  N3  UNL     1      29.221  36.016  19.072  1.00  0.00    -0.044 N
HETATM   10  C6  UNL     1      29.090  35.066  20.138  1.00  0.00     0.259 C
ATOM     11  H32 UNL     1      30.012  36.638  19.243  1.00  0.00     0.279 HD
ATOM     12  H31 UNL     1      28.459  36.693  19.101  1.00  0.00     0.279 HD
BRANCH   8  13
HETATM   13  N1  UNL     1      30.350  36.102  16.984  1.00  0.00    -0.050 N
ATOM     14  H13 UNL     1      30.642  36.978  17.418  1.00  0.00     0.276 HD
ATOM     15  H12 UNL     1      31.242  35.610  17.023  1.00  0.00     0.276 HD
ATOM     16  H11 UNL     1      30.033  36.240  16.025  1.00  0.00     0.276 HD
ENDBRANCH   8  13
ENDBRANCH   1   5
TORSDOF 2
ENDMDL