MODEL 2
REMARK VINA RESULT: -4.049209011      1.275      1.806
REMARK  1 active torsions:
REMARK  status: ('A' for Active; 'I' for Inactive)
REMARK    1  A    between atoms: N3_12  and  N4_13
ROOT
HETATM    1  N1  UNL     1      26.412  32.722  17.832  1.00  0.00    -0.087 NA
HETATM    2  C1  UNL     1      27.521  33.366  18.418  1.00  0.00     0.094 C
HETATM    3  N2  UNL     1      27.662  34.635  18.228  1.00  0.00    -0.363 N
ATOM      4  H2  UNL     1      26.975  35.135  17.665  1.00  0.00     0.162 HD
HETATM    5  C2  UNL     1      28.777  35.364  18.799  1.00  0.00     0.176 C
HETATM    6  C3  UNL     1      29.153  34.918  20.173  1.00  0.00     0.043 C
HETATM    7  C4  UNL     1      28.670  33.530  20.526  1.00  0.00     0.015 C
HETATM    8  C5  UNL     1      28.550  32.696  19.244  1.00  0.00     0.050 C
HETATM    9  C6  UNL     1      29.895  32.632  18.578  1.00  0.00     0.013 C
HETATM   10  C7  UNL     1      29.864  32.953  17.118  1.00  0.00     0.017 C
HETATM   11  C8  UNL     1      29.726  34.409  16.809  1.00  0.00     0.115 C
HETATM   12  N3  UNL     1      29.949  35.268  17.951  1.00  0.00    -0.215 NA
ENDROOT
BRANCH  12  13
HETATM   13  N4  UNL     1      30.271  36.571  17.518  1.00  0.00    -0.361 NA
ATOM     14  H42 UNL     1      30.086  36.661  16.519  1.00  0.00     0.171 HD
ATOM     15  H41 UNL     1      29.717  37.225  18.071  1.00  0.00     0.171 HD
ENDBRANCH  12  13
TORSDOF 1
ENDMDL