MODEL 3
REMARK VINA RESULT: -3.172410401      8.992     10.070
REMARK  2 active torsions:
REMARK  status: ('A' for Active; 'I' for Inactive)
REMARK    1  A    between atoms: C2_2  and  S1_3
REMARK    2  A    between atoms: S1_3  and  C3_4
ROOT
HETATM    1  C3  UNL     1      28.993  33.456  19.881  1.00  0.00     0.155 C
HETATM    2  C4  UNL     1      28.860  32.610  18.605  1.00  0.00     0.118 C
HETATM    3  S2  UNL     1      29.628  33.843  17.463  1.00  0.00    -0.092 SA
HETATM    4  C5  UNL     1      29.264  35.288  18.477  1.00  0.00     0.134 C
HETATM    5  N1  UNL     1      29.623  36.479  18.229  1.00  0.00    -0.380 N
ATOM      6  H11 UNL     1      29.417  37.296  18.803  1.00  0.00     0.158 HD
ATOM      7  H12 UNL     1      30.164  36.851  17.449  1.00  0.00     0.158 HD
HETATM    8  N2  UNL     1      28.510  34.769  19.563  1.00  0.00    -0.357 N
ATOM      9  H2  UNL     1      27.748  35.252  20.040  1.00  0.00     0.162 HD
ENDROOT
BRANCH   1  10
HETATM   10  S1  UNL     1      28.225  32.712  21.301  1.00  0.00    -0.143 SA
BRANCH  10  11
HETATM   11  C2  UNL     1      26.485  33.234  21.363  1.00  0.00     0.071 C
HETATM   12  C1  UNL     1      26.091  33.675  22.761  1.00  0.00     0.016 C
ENDBRANCH  10  11
ENDBRANCH   1  10
TORSDOF 2
ENDMDL