MODEL 4
REMARK VINA RESULT: -6.936956037      2.664      5.312
REMARK  13 active torsions:
REMARK  status: ('A' for Active; 'I' for Inactive)
REMARK    1  A    between atoms: C2_2  and  N1_5
REMARK    2  A    between atoms: N1_5  and  C5_7
REMARK    3  A    between atoms: C5_7  and  O1_8
REMARK    4  A    between atoms: C5_7  and  N2_10
REMARK    5  A    between atoms: N2_10  and  C6_12
REMARK    6  A    between atoms: C6_12  and  O2_13
REMARK    7  A    between atoms: C6_12  and  C7_15
REMARK    8  A    between atoms: C7_15  and  O3_16
REMARK    9  A    between atoms: O3_16  and  C8_17
REMARK   10  A    between atoms: C8_17  and  C9_19
REMARK   11  A    between atoms: C12_22  and  O5_23
REMARK   12  A    between atoms: O5_23  and  C13_24
REMARK   13  A    between atoms: C13_24  and  C14_26
ROOT
HETATM    1  O3  UNL     1       6.279  58.667   1.059  1.00  0.00    -0.309 OA
ENDROOT
BRANCH   1   2
HETATM    2  C7  UNL     1       4.997  58.099   0.810  1.00  0.00     0.263 C
BRANCH   2   3
HETATM    3  C6  UNL     1       4.352  57.563   1.972  1.00  0.00     0.143 C
BRANCH   3   4
HETATM    4  N2  UNL     1       4.630  56.407   2.665  1.00  0.00    -0.305 N
ATOM      5  H2  UNL     1       5.528  56.390   3.149  1.00  0.00     0.171 HD
BRANCH   4   6
HETATM    6  C5  UNL     1       3.854  55.256   2.798  1.00  0.00     0.219 C
BRANCH   6   7
HETATM    7  N1  UNL     1       4.226  53.904   2.908  1.00  0.00    -0.348 N
ATOM      8  H1  UNL     1       3.595  53.240   3.355  1.00  0.00     0.163 HD
BRANCH   7   9
HETATM    9  C2  UNL     1       5.516  53.441   2.382  1.00  0.00     0.022 C
HETATM   10  C1  UNL     1       5.811  54.030   1.024  1.00  0.00     0.037 C
HETATM   11  C3  UNL     1       6.587  53.866   3.377  1.00  0.00     0.037 C
HETATM   12  C4  UNL     1       5.503  51.938   2.255  1.00  0.00     0.037 C
ENDBRANCH   7   9
ENDBRANCH   6   7
BRANCH   6  13
HETATM   13  O1  UNL     1       2.547  55.440   2.830  1.00  0.00    -0.332 OA
ATOM     14  H1  UNL     1       2.091  55.009   2.116  1.00  0.00     0.220 HD
ENDBRANCH   6  13
ENDBRANCH   4   6
ENDBRANCH   3   4
BRANCH   3  15
HETATM   15  O2  UNL     1       3.363  58.267   2.440  1.00  0.00    -0.348 OA
ATOM     16  H2  UNL     1       3.585  59.152   2.704  1.00  0.00     0.219 HD
ENDBRANCH   3  15
ENDBRANCH   2   3
ENDBRANCH   1   2
BRANCH   1  17
HETATM   17  C8  UNL     1       7.373  58.570   0.253  1.00  0.00     0.293 C
HETATM   18  O4  UNL     1       7.605  59.475  -0.589  1.00  0.00    -0.259 OA
BRANCH  17  19
HETATM   19  C9  UNL     1       8.309  57.451   0.314  1.00  0.00     0.039 A
HETATM   20  C10 UNL     1       9.251  57.245  -0.670  1.00  0.00     0.020 A
HETATM   21  C11 UNL     1      10.137  56.197  -0.630  1.00  0.00     0.038 A
HETATM   22  C12 UNL     1      10.101  55.323   0.405  1.00  0.00     0.079 A
HETATM   23  C18 UNL     1       9.185  55.482   1.409  1.00  0.00     0.038 A
HETATM   24  C19 UNL     1       8.306  56.537   1.352  1.00  0.00     0.020 A
BRANCH  22  25
HETATM   25  O5  UNL     1      11.031  54.276   0.384  1.00  0.00    -0.278 OA
BRANCH  25  26
HETATM   26  C13 UNL     1      11.186  53.357   1.399  1.00  0.00     0.271 C
HETATM   27  O6  UNL     1      11.699  53.702   2.472  1.00  0.00    -0.264 OA
BRANCH  26  28
HETATM   28  C14 UNL     1      10.748  51.930   1.253  1.00  0.00     0.037 C
HETATM   29  C15 UNL     1      11.682  51.058   2.029  1.00  0.00     0.025 C
HETATM   30  C16 UNL     1       9.353  51.745   1.809  1.00  0.00     0.025 C
HETATM   31  C17 UNL     1      10.733  51.517  -0.186  1.00  0.00     0.025 C
ENDBRANCH  26  28
ENDBRANCH  25  26
ENDBRANCH  22  25
ENDBRANCH  17  19
ENDBRANCH   1  17
TORSDOF 13
ENDMDL