MODEL 5
REMARK VINA RESULT: -8.503274682      2.454      7.595
REMARK  6 active torsions:
REMARK  status: ('A' for Active; 'I' for Inactive)
REMARK    1  A    between atoms: O1_2  and  C2_3
REMARK    2  A    between atoms: C8_10  and  N2_11
REMARK       I    between atoms: N2_11  and  C9_13
REMARK    3  A    between atoms: C9_13  and  C10_15
REMARK    4  A    between atoms: C18_25  and  O3_26
REMARK    5  A    between atoms: O3_26  and  C19_27
REMARK    6  A    between atoms: C19_27  and  O4_29
ROOT
HETATM    1  C2  UNL     1       4.817  56.942   1.478  1.00  0.00     0.102 A
HETATM    2  C3  UNL     1       4.325  55.684   1.838  1.00  0.00     0.053 A
HETATM    3  C4  UNL     1       5.165  54.664   2.208  1.00  0.00    -0.005 A
HETATM    4  C5  UNL     1       4.681  53.422   2.565  1.00  0.00     0.040 A
HETATM    5  C6  UNL     1       5.585  52.410   2.937  1.00  0.00     0.089 A
HETATM    6  C7  UNL     1       5.025  51.148   3.295  1.00  0.00     0.103 C
HETATM    7  N1  UNL     1       4.536  50.142   3.577  1.00  0.00    -0.191 NA
HETATM    8  C8  UNL     1       6.925  52.691   2.934  1.00  0.00     0.129 A
HETATM    9  N3  UNL     1       7.351  53.963   2.566  1.00  0.00    -0.340 N
ATOM     10  H3  UNL     1       8.351  54.160   2.569  1.00  0.00     0.167 HD
HETATM   11  C16 UNL     1       6.513  54.936   2.210  1.00  0.00     0.046 A
HETATM   12  C17 UNL     1       7.001  56.167   1.857  1.00  0.00     0.070 A
HETATM   13  C18 UNL     1       6.164  57.241   1.470  1.00  0.00     0.107 A
ENDROOT
BRANCH   8  14
HETATM   14  N2  UNL     1       7.794  51.863   3.248  1.00  0.00    -0.308 N
HETATM   15  C9  UNL     1       8.644  51.025   2.606  1.00  0.00     0.257 C
HETATM   16  O2  UNL     1       8.312  49.836   2.212  1.00  0.00    -0.267 OA
ATOM     17  H2  UNL     1       7.898  51.796   4.260  1.00  0.00     0.170 HD
BRANCH  15  18
HETATM   18  C10 UNL     1      10.055  51.370   2.286  1.00  0.00     0.032 A
HETATM   19  C11 UNL     1      10.960  50.357   2.140  1.00  0.00     0.017 A
HETATM   20  C12 UNL     1      12.271  50.653   1.843  1.00  0.00     0.001 A
HETATM   21  C13 UNL     1      12.649  51.975   1.698  1.00  0.00     0.000 A
HETATM   22  C14 UNL     1      11.743  53.006   1.843  1.00  0.00     0.001 A
HETATM   23  C15 UNL     1      10.437  52.667   2.141  1.00  0.00     0.017 A
ENDBRANCH  15  18
ENDBRANCH   8  14
BRANCH   1  24
HETATM   24  O1  UNL     1       3.901  57.933   1.110  1.00  0.00    -0.353 OA
HETATM   25  C1  UNL     1       3.215  58.612   2.135  1.00  0.00     0.210 C
ENDBRANCH   1  24
BRANCH  13  26
HETATM   26  O3  UNL     1       6.723  58.414   1.140  1.00  0.00    -0.318 OA
BRANCH  26  27
HETATM   27  C19 UNL     1       7.003  59.088   0.004  1.00  0.00     0.259 C
HETATM   28  C20 UNL     1       8.419  58.785  -0.532  1.00  0.00     0.071 C
BRANCH  27  29
HETATM   29  O4  UNL     1       6.890  60.491   0.174  1.00  0.00    -0.371 OA
ATOM     30  H4  UNL     1       7.730  60.900   0.343  1.00  0.00     0.212 HD
ENDBRANCH  27  29
ENDBRANCH  26  27
ENDBRANCH  13  26
TORSDOF 6
ENDMDL