MODEL 4
REMARK VINA RESULT: -8.888550257      0.884      1.080
REMARK  5 active torsions:
REMARK  status: ('A' for Active; 'I' for Inactive)
REMARK    1  A    between atoms: O1_2  and  C2_3
REMARK       I    between atoms: C2_3  and  N1_5
REMARK    2  A    between atoms: N1_5  and  C3_6
REMARK    3  A    between atoms: C3_6  and  C4_7
REMARK    4  A    between atoms: C3_6  and  C15_23
REMARK       I    between atoms: C4_7  and  N2_9
REMARK    5  A    between atoms: N2_9  and  C5_11
ROOT
HETATM    1  C4  UNL     1       8.886  55.934   1.750  1.00  0.00     0.260 C
HETATM    2  O3  UNL     1       9.235  56.013   2.951  1.00  0.00    -0.270 OA
HETATM    3  N2  UNL     1       8.252  54.743   1.348  1.00  0.00    -0.329 N
ATOM      4  H2  UNL     1       7.968  54.612   0.378  1.00  0.00     0.165 HD
ENDROOT
BRANCH   1   5
HETATM    5  C3  UNL     1       9.130  57.050   0.759  1.00  0.00     0.294 C
BRANCH   5   6
HETATM    6  N1  UNL     1       9.734  56.480  -0.440  1.00  0.00    -0.370 NA
HETATM    7  C2  UNL     1      10.264  55.979  -1.492  1.00  0.00     0.435 C
HETATM    8  O2  UNL     1      10.105  56.217  -2.749  1.00  0.00    -0.221 OA
BRANCH   7   9
HETATM    9  O1  UNL     1      11.270  54.912  -1.383  1.00  0.00    -0.298 OA
HETATM   10  C1  UNL     1      12.114  54.570  -2.408  1.00  0.00     0.216 C
ENDBRANCH   7   9
ENDBRANCH   5   6
BRANCH   5  11
HETATM   11  C15 UNL     1       7.903  57.822   0.526  1.00  0.00    -0.013 A
HETATM   12  C16 UNL     1       6.619  57.376   0.816  1.00  0.00     0.011 A
HETATM   13  C17 UNL     1       5.509  58.191   0.666  1.00  0.00     0.001 A
HETATM   14  C18 UNL     1       5.700  59.460   0.223  1.00  0.00     0.000 A
HETATM   15  C19 UNL     1       6.908  59.979  -0.083  1.00  0.00     0.001 A
HETATM   16  C20 UNL     1       8.006  59.124   0.077  1.00  0.00     0.011 A
ENDBRANCH   5  11
ENDBRANCH   1   5
BRANCH   3  17
HETATM   17  C5  UNL     1       8.006  53.694   2.339  1.00  0.00     0.264 C
HETATM   18  O4  UNL     1       8.632  52.529   1.874  1.00  0.00    -0.320 OA
HETATM   19  C6  UNL     1       8.158  51.263   2.063  1.00  0.00     0.105 A
HETATM   20  C7  UNL     1       8.828  50.097   1.702  1.00  0.00     0.040 A
HETATM   21  C11 UNL     1       6.925  51.074   2.653  1.00  0.00     0.103 A
HETATM   22  C8  UNL     1       8.325  48.843   1.899  1.00  0.00     0.003 A
HETATM   23  C9  UNL     1       7.069  48.677   2.496  1.00  0.00     0.003 A
HETATM   24  C10 UNL     1       6.393  49.816   2.863  1.00  0.00     0.040 A
HETATM   25  O5  UNL     1       6.224  52.211   3.028  1.00  0.00    -0.334 OA
HETATM   26  C12 UNL     1       6.528  53.511   2.550  1.00  0.00     0.105 C
HETATM   27  C13 UNL     1       6.100  54.557   3.561  1.00  0.00     0.051 C
HETATM   28  C14 UNL     1       5.723  53.687   1.285  1.00  0.00     0.051 C
ENDBRANCH   3  17
TORSDOF 5
ENDMDL