MODEL 3
REMARK VINA RESULT: -7.672712773      1.584      2.735
REMARK  6 active torsions:
REMARK  status: ('A' for Active; 'I' for Inactive)
REMARK    1  A    between atoms: C2_2  and  C3_3
REMARK    2  A    between atoms: C3_3  and  N1_4
REMARK    3  A    between atoms: C4_5  and  C5_6
REMARK       I    between atoms: C5_6  and  N2_8
REMARK    4  A    between atoms: N2_8  and  C6_10
REMARK    5  A    between atoms: C13_22  and  N6_23
REMARK    6  A    between atoms: N6_23  and  C14_25
ROOT
HETATM    1  N1  UNL     1       6.252  53.493   1.856  1.00  0.00    -0.335 N
HETATM    2  C4  UNL     1       7.538  53.759   2.006  1.00  0.00     0.106 A
HETATM    3  C11 UNL     1       8.145  52.607   2.494  1.00  0.00     0.068 A
HETATM    4  C12 UNL     1       7.181  51.598   2.648  1.00  0.00     0.071 A
HETATM    5  N5  UNL     1       7.126  50.352   3.045  1.00  0.00    -0.334 N
ATOM      6  H5  UNL     1       7.968  49.869   3.357  1.00  0.00     0.168 HD
HETATM    7  C13 UNL     1       5.947  49.727   3.033  1.00  0.00     0.147 A
HETATM    8  S1  UNL     1       4.888  50.933   2.443  1.00  0.00    -0.034 SA
HETATM    9  C17 UNL     1       6.026  52.193   2.240  1.00  0.00     0.107 A
ENDROOT
BRANCH   2  10
HETATM   10  C5  UNL     1       8.234  55.021   1.725  1.00  0.00     0.274 C
HETATM   11  O1  UNL     1       8.818  55.623   2.684  1.00  0.00    -0.266 OA
HETATM   12  N2  UNL     1       8.315  55.636   0.476  1.00  0.00    -0.306 N
ATOM     13  H2  UNL     1       8.475  55.022  -0.323  1.00  0.00     0.170 HD
BRANCH  12  14
HETATM   14  C6  UNL     1       8.212  56.873   0.223  1.00  0.00     0.126 A
HETATM   15  C7  UNL     1       7.150  57.679   0.537  1.00  0.00     0.076 A
HETATM   16  C8  UNL     1       7.446  58.968   0.079  1.00  0.00     0.025 A
HETATM   17  C9  UNL     1       6.627  60.185   0.176  1.00  0.00     0.070 C
HETATM   18  N3  UNL     1       8.650  58.876  -0.478  1.00  0.00    -0.302 N
HETATM   19  N4  UNL     1       9.115  57.633  -0.398  1.00  0.00    -0.281 N
ATOM     20  H3  UNL     1       9.150  59.654  -0.908  1.00  0.00     0.186 HD
HETATM   21  C10 UNL     1      10.404  57.187  -0.911  1.00  0.00     0.179 C
ENDBRANCH  12  14
ENDBRANCH   2  10
BRANCH   1  22
HETATM   22  C3  UNL     1       5.166  54.325   1.379  1.00  0.00     0.130 C
BRANCH  22  23
HETATM   23  C2  UNL     1       4.573  55.123   2.544  1.00  0.00     0.016 C
HETATM   24  C1  UNL     1       4.018  56.437   2.052  1.00  0.00     0.006 C
ENDBRANCH  22  23
ENDBRANCH   1  22
BRANCH   7  25
HETATM   25  N6  UNL     1       5.683  48.488   3.390  1.00  0.00    -0.366 N
ATOM     26  H6  UNL     1       6.022  47.709   2.826  1.00  0.00     0.162 HD
BRANCH  25  27
HETATM   27  C14 UNL     1       4.909  48.239   4.584  1.00  0.00     0.075 C
HETATM   28  C15 UNL     1       3.450  47.988   4.264  1.00  0.00     0.032 C
HETATM   29  C16 UNL     1       5.531  47.042   5.284  1.00  0.00     0.032 C
ENDBRANCH  25  27
ENDBRANCH   7  25
TORSDOF 6
ENDMDL