MODEL 5
REMARK VINA RESULT: -8.489813708      2.466      5.323
REMARK  4 active torsions:
REMARK  status: ('A' for Active; 'I' for Inactive)
REMARK    1  A    between atoms: C4_4  and  C5_5
REMARK    2  A    between atoms: C13_14  and  N1_15
REMARK       I    between atoms: N1_15  and  C14_17
REMARK    3  A    between atoms: C14_17  and  C15_19
REMARK    4  A    between atoms: C18_24  and  N3_25
ROOT
HETATM    1  C1  UNL     1       7.997  59.416  -0.175  1.00  0.00     0.025 C
HETATM    2  C2  UNL     1       7.502  58.298   0.288  1.00  0.00    -0.018 A
HETATM    3  C3  UNL     1       8.230  56.995   0.268  1.00  0.00     0.026 A
HETATM    4  C4  UNL     1       9.453  56.853  -0.195  1.00  0.00     0.028 C
HETATM    5  C11 UNL     1       7.317  55.997   0.796  1.00  0.00     0.196 A
HETATM    6  O1  UNL     1       7.652  54.778   0.902  1.00  0.00    -0.286 OA
HETATM    7  C12 UNL     1       6.071  56.662   1.133  1.00  0.00     0.055 A
HETATM    8  C13 UNL     1       4.920  56.060   1.650  1.00  0.00     0.050 A
HETATM    9  C16 UNL     1       3.851  56.888   1.870  1.00  0.00     0.033 A
HETATM   10  C17 UNL     1       3.920  58.229   1.598  1.00  0.00     0.039 A
HETATM   11  C18 UNL     1       5.092  58.837   1.075  1.00  0.00     0.115 A
HETATM   12  C19 UNL     1       6.177  58.032   0.837  1.00  0.00     0.024 A
ENDROOT
BRANCH   4  13
HETATM   13  C5  UNL     1      10.250  55.660  -0.256  1.00  0.00    -0.035 A
HETATM   14  C6  UNL     1      10.482  54.782   0.777  1.00  0.00     0.011 A
HETATM   15  C7  UNL     1      11.239  53.637   0.644  1.00  0.00     0.001 A
HETATM   16  C8  UNL     1      11.804  53.324  -0.560  1.00  0.00     0.000 A
HETATM   17  C9  UNL     1      11.603  54.173  -1.631  1.00  0.00     0.001 A
HETATM   18  C10 UNL     1      10.844  55.313  -1.481  1.00  0.00     0.011 A
ENDBRANCH   4  13
BRANCH  11  19
HETATM   19  N3  UNL     1       5.022  60.224   0.872  1.00  0.00    -0.115 N
HETATM   20  O4  UNL     1       4.714  60.550  -0.361  1.00  0.00    -0.532 OA
HETATM   21  O5  UNL     1       5.224  61.261   1.681  1.00  0.00    -0.532 OA
ENDBRANCH  11  19
BRANCH   8  22
HETATM   22  N1  UNL     1       4.892  54.676   1.867  1.00  0.00    -0.318 N
HETATM   23  C14 UNL     1       5.402  54.005   2.993  1.00  0.00     0.311 C
HETATM   24  O2  UNL     1       5.958  54.584   3.942  1.00  0.00    -0.262 OA
ATOM     25  H1  UNL     1       4.463  54.103   1.141  1.00  0.00     0.169 HD
BRANCH  23  26
HETATM   26  C15 UNL     1       5.258  52.527   3.032  1.00  0.00     0.322 C
HETATM   27  N2  UNL     1       4.636  51.887   1.938  1.00  0.00    -0.053 NA
HETATM   28  O3  UNL     1       5.681  51.863   4.014  1.00  0.00    -0.266 OA
ENDBRANCH  23  26
ENDBRANCH   8  22
TORSDOF 4
ENDMDL