MODEL 1
REMARK VINA RESULT: -8.057489862      0.000      0.000
REMARK  5 active torsions:
REMARK  status: ('A' for Active; 'I' for Inactive)
REMARK    1  A    between atoms: C6_10  and  N3_11
REMARK       I    between atoms: N3_11  and  C7_13
REMARK    2  A    between atoms: C7_13  and  C8_15
REMARK    3  A    between atoms: C10_17  and  O2_18
REMARK    4  A    between atoms: C12_20  and  O3_21
REMARK    5  A    between atoms: C14_23  and  O4_24
ROOT
HETATM    1  N3  UNL     1       9.503  55.877  -0.701  1.00  0.00    -0.303 N
ATOM      2  H3  UNL     1       9.003  55.030  -0.974  1.00  0.00     0.171 HD
HETATM    3  C7  UNL     1       9.088  56.611   0.411  1.00  0.00     0.257 C
HETATM    4  O1  UNL     1       9.899  57.038   1.267  1.00  0.00    -0.267 OA
ENDROOT
BRANCH   1   5
HETATM    5  C6  UNL     1      10.548  56.286  -1.396  1.00  0.00     0.153 A
HETATM    6  N2  UNL     1      11.073  57.507  -1.415  1.00  0.00    -0.321 N
HETATM    7  C5  UNL     1      12.120  57.725  -2.174  1.00  0.00     0.125 A
ATOM      8  H2  UNL     1      10.672  58.257  -0.851  1.00  0.00     0.169 HD
HETATM    9  N1  UNL     1      12.849  58.977  -2.344  1.00  0.00    -0.351 N
HETATM   10  C17 UNL     1      12.609  56.680  -2.903  1.00  0.00     0.062 A
HETATM   11  C4  UNL     1      13.950  59.069  -3.188  1.00  0.00     0.090 A
ATOM     12  H1  UNL     1      12.543  59.805  -1.832  1.00  0.00     0.166 HD
HETATM   13  C3  UNL     1      14.485  58.110  -3.926  1.00  0.00     0.029 A
HETATM   14  C2  UNL     1      13.786  56.810  -3.797  1.00  0.00    -0.023 A
HETATM   15  C1  UNL     1      14.175  55.749  -4.451  1.00  0.00     0.025 C
HETATM   16  S1  UNL     1      11.544  55.416  -2.472  1.00  0.00    -0.049 SA
ENDBRANCH   1   5
BRANCH   3  17
HETATM   17  C8  UNL     1       7.674  56.901   0.603  1.00  0.00     0.037 A
HETATM   18  C9  UNL     1       7.154  58.135   0.273  1.00  0.00     0.057 A
HETATM   19  C10 UNL     1       5.819  58.377   0.467  1.00  0.00     0.105 A
HETATM   20  C12 UNL     1       5.012  57.386   0.986  1.00  0.00     0.135 A
HETATM   21  C14 UNL     1       5.498  56.147   1.324  1.00  0.00     0.105 A
HETATM   22  C16 UNL     1       6.840  55.905   1.129  1.00  0.00     0.057 A
BRANCH  19  23
HETATM   23  O2  UNL     1       5.315  59.628   0.129  1.00  0.00    -0.353 OA
HETATM   24  C11 UNL     1       5.503  60.739   0.950  1.00  0.00     0.210 C
ENDBRANCH  19  23
BRANCH  20  25
HETATM   25  O3  UNL     1       3.669  57.669   1.165  1.00  0.00    -0.351 OA
HETATM   26  C13 UNL     1       3.302  58.268   2.407  1.00  0.00     0.210 C
ENDBRANCH  20  25
BRANCH  21  27
HETATM   27  O4  UNL     1       4.647  55.182   1.843  1.00  0.00    -0.353 OA
HETATM   28  C15 UNL     1       5.006  54.315   2.885  1.00  0.00     0.210 C
ENDBRANCH  21  27
ENDBRANCH   3  17
TORSDOF 5
ENDMDL