MODEL 5
REMARK VINA RESULT: -9.706165350      2.282      8.897
REMARK  6 active torsions:
REMARK  status: ('A' for Active; 'I' for Inactive)
REMARK    1  A    between atoms: C1_2  and  C2_3
REMARK       I    between atoms: C1_2  and  N2_18
REMARK    2  A    between atoms: C2_3  and  C3_4
REMARK    3  A    between atoms: N1_12  and  O2_13
REMARK    4  A    between atoms: C11_15  and  O3_16
REMARK    5  A    between atoms: N2_18  and  N3_19
REMARK    6  A    between atoms: C12_21  and  C13_22
ROOT
HETATM    1  O1  UNL     1       8.375  50.569   4.019  1.00  0.00    -0.255 OA
HETATM    2  C1  UNL     1       7.624  50.880   3.057  1.00  0.00     0.316 C
HETATM    3  N2  UNL     1       7.337  52.113   2.611  1.00  0.00    -0.287 NA
ENDROOT
BRANCH   2   4
HETATM    4  C2  UNL     1       6.974  49.680   2.339  1.00  0.00     0.164 C
BRANCH   4   5
HETATM    5  C3  UNL     1       5.731  49.330   3.050  1.00  0.00     0.006 A
HETATM    6  C4  UNL     1       5.652  48.456   4.106  1.00  0.00     0.026 A
HETATM    7  C5  UNL     1       4.446  48.185   4.738  1.00  0.00    -0.006 A
HETATM    8  C6  UNL     1       4.350  47.306   5.812  1.00  0.00     0.014 A
HETATM    9  C10 UNL     1       3.314  48.821   4.278  1.00  0.00     0.075 A
HETATM   10  C7  UNL     1       3.153  47.042   6.443  1.00  0.00     0.001 A
HETATM   11  C8  UNL     1       2.005  47.682   5.983  1.00  0.00     0.002 A
HETATM   12  C9  UNL     1       2.120  48.554   4.911  1.00  0.00     0.033 A
HETATM   13  N1  UNL     1       3.379  49.691   3.229  1.00  0.00    -0.201 N
HETATM   14  C11 UNL     1       4.560  49.933   2.639  1.00  0.00     0.174 A
BRANCH  13  15
HETATM   15  O2  UNL     1       2.241  50.319   2.781  1.00  0.00    -0.280 OA
ATOM     16  H2  UNL     1       2.168  51.265   2.827  1.00  0.00     0.245 HD
ENDBRANCH  13  15
BRANCH  14  17
HETATM   17  O3  UNL     1       4.602  50.822   1.576  1.00  0.00    -0.344 OA
ATOM     18  H3  UNL     1       3.927  51.487   1.506  1.00  0.00     0.219 HD
ENDBRANCH  14  17
ENDBRANCH   4   5
ENDBRANCH   2   4
BRANCH   3  19
HETATM   19  N3  UNL     1       7.054  53.324   2.174  1.00  0.00    -0.241 N
HETATM   20  C12 UNL     1       6.014  53.899   1.754  1.00  0.00     0.158 C
ATOM     21  H3  UNL     1       7.867  53.941   2.178  1.00  0.00     0.201 HD
BRANCH  20  22
HETATM   22  C13 UNL     1       6.156  55.309   1.349  1.00  0.00     0.094 A
HETATM   23  C14 UNL     1       5.147  56.248   1.370  1.00  0.00     0.053 A
HETATM   24  C15 UNL     1       5.657  57.450   0.927  1.00  0.00     0.000 A
HETATM   25  C16 UNL     1       5.144  58.710   0.736  1.00  0.00     0.014 A
HETATM   26  C20 UNL     1       6.994  57.159   0.653  1.00  0.00     0.086 A
HETATM   27  C17 UNL     1       5.925  59.739   0.270  1.00  0.00     0.001 A
HETATM   28  C18 UNL     1       7.262  59.478  -0.011  1.00  0.00     0.003 A
HETATM   29  C19 UNL     1       7.747  58.211   0.188  1.00  0.00     0.038 A
HETATM   30  O4  UNL     1       7.233  55.893   0.917  1.00  0.00    -0.308 OA
ENDBRANCH  20  22
ENDBRANCH   3  19
TORSDOF 6
ENDMDL