MODEL 2
REMARK VINA RESULT: -9.567207100      0.967      1.718
REMARK  6 active torsions:
REMARK  status: ('A' for Active; 'I' for Inactive)
REMARK    1  A    between atoms: O1_2  and  C2_3
REMARK    2  A    between atoms: C7_8  and  N1_9
REMARK    3  A    between atoms: N1_9  and  C8_11
REMARK    4  A    between atoms: C13_17  and  N2_18
REMARK    5  A    between atoms: N2_18  and  N3_20
REMARK    6  A    between atoms: C14_22  and  C15_23
ROOT
HETATM    1  C8  UNL     1       5.509  50.643   2.626  1.00  0.00     0.120 C
HETATM    2  C9  UNL     1       6.870  50.846   2.544  1.00  0.00     0.060 C
HETATM    3  C10 UNL     1       7.627  52.012   2.692  1.00  0.00    -0.004 C
HETATM    4  C11 UNL     1       9.077  51.842   2.871  1.00  0.00     0.052 C
HETATM    5  C12 UNL     1       7.089  53.286   2.677  1.00  0.00     0.224 C
HETATM    6  O2  UNL     1       7.941  54.188   2.517  1.00  0.00    -0.284 OA
HETATM    7  C13 UNL     1       5.748  53.668   2.817  1.00  0.00     0.186 C
HETATM    8  N4  UNL     1       4.659  52.886   2.897  1.00  0.00    -0.280 N
ATOM      9  H4  UNL     1       3.786  53.391   3.050  1.00  0.00     0.189 HD
HETATM   10  N5  UNL     1       4.527  51.574   2.811  1.00  0.00    -0.284 N
ATOM     11  H5  UNL     1       3.577  51.213   2.893  1.00  0.00     0.188 HD
ENDROOT
BRANCH   7  12
HETATM   12  N2  UNL     1       5.544  54.938   2.877  1.00  0.00    -0.281 N
ATOM     13  H2  UNL     1       6.322  55.507   3.209  1.00  0.00     0.188 HD
BRANCH  12  14
HETATM   14  N3  UNL     1       4.416  55.600   2.549  1.00  0.00    -0.309 N
HETATM   15  C14 UNL     1       4.222  56.639   1.894  1.00  0.00     0.118 C
ATOM     16  H3  UNL     1       3.563  55.169   2.906  1.00  0.00     0.186 HD
BRANCH  15  17
HETATM   17  C15 UNL     1       5.202  57.501   1.249  1.00  0.00    -0.019 A
HETATM   18  C16 UNL     1       6.451  57.135   0.847  1.00  0.00     0.013 A
HETATM   19  C17 UNL     1       7.362  58.004   0.227  1.00  0.00     0.001 A
HETATM   20  C18 UNL     1       6.946  59.293   0.025  1.00  0.00     0.000 A
HETATM   21  C19 UNL     1       5.700  59.736   0.403  1.00  0.00     0.001 A
HETATM   22  C20 UNL     1       4.860  58.839   1.003  1.00  0.00     0.013 A
ENDBRANCH  15  17
ENDBRANCH  12  14
ENDBRANCH   7  12
BRANCH   1  23
HETATM   23  N1  UNL     1       5.047  49.443   2.521  1.00  0.00    -0.339 N
ATOM     24  H1  UNL     1       4.895  49.060   1.588  1.00  0.00     0.167 HD
BRANCH  23  25
HETATM   25  C7  UNL     1       4.744  48.641   3.635  1.00  0.00     0.067 A
HETATM   26  C2  UNL     1       3.437  48.558   4.127  1.00  0.00     0.094 A
HETATM   27  C3  UNL     1       3.167  47.776   5.206  1.00  0.00     0.039 A
HETATM   28  C4  UNL     1       4.184  47.061   5.822  1.00  0.00     0.003 A
HETATM   29  C5  UNL     1       5.475  47.128   5.356  1.00  0.00     0.002 A
HETATM   30  C6  UNL     1       5.736  47.923   4.263  1.00  0.00     0.032 A
BRANCH  26  31
HETATM   31  O1  UNL     1       2.484  49.307   3.448  1.00  0.00    -0.354 OA
HETATM   32  C1  UNL     1       1.600  48.643   2.565  1.00  0.00     0.210 C
ENDBRANCH  26  31
ENDBRANCH  23  25
ENDBRANCH   1  23
TORSDOF 6
ENDMDL