MODEL 3
REMARK VINA RESULT: -6.246261812      2.085      3.933
REMARK  6 active torsions:
REMARK  status: ('A' for Active; 'I' for Inactive)
REMARK    1  A    between atoms: O1_2  and  C2_3
REMARK    2  A    between atoms: C3_4  and  O2_5
REMARK    3  A    between atoms: C5_8  and  O3_9
REMARK    4  A    between atoms: O3_9  and  C6_10
REMARK    5  A    between atoms: C6_10  and  C7_12
REMARK    6  A    between atoms: C16_21  and  O5_22
ROOT
HETATM    1  C7  UNL     1       5.765  51.639   2.092  1.00  0.00     0.091 C
HETATM    2  C8  UNL     1       6.996  51.451   2.897  1.00  0.00     0.024 C
HETATM    3  C9  UNL     1       8.156  52.059   2.199  1.00  0.00    -0.043 C
HETATM    4  C10 UNL     1       8.663  51.007   1.196  1.00  0.00     0.015 C
HETATM    5  C11 UNL     1       9.283  52.133   3.244  1.00  0.00     0.015 C
HETATM    6  C12 UNL     1       7.929  53.371   1.557  1.00  0.00     0.001 C
HETATM    7  C13 UNL     1       8.696  54.494   2.269  1.00  0.00     0.013 C
HETATM    8  C14 UNL     1       7.853  55.717   2.034  1.00  0.00     0.017 C
HETATM    9  C15 UNL     1       8.229  56.223   0.632  1.00  0.00     0.013 C
HETATM   10  C16 UNL     1       6.433  55.247   1.958  1.00  0.00     0.069 C
HETATM   11  C17 UNL     1       5.691  55.166   3.223  1.00  0.00     0.017 C
HETATM   12  C18 UNL     1       6.445  55.423   4.486  1.00  0.00     0.013 C
HETATM   13  C19 UNL     1       5.123  53.747   3.307  1.00  0.00     0.013 C
HETATM   14  C20 UNL     1       5.454  53.103   2.001  1.00  0.00     0.007 C
HETATM   15  C21 UNL     1       6.564  53.850   1.370  1.00  0.00     0.030 C
ENDROOT
BRANCH   1  16
HETATM   16  C6  UNL     1       4.616  50.849   2.622  1.00  0.00     0.263 C
HETATM   17  O4  UNL     1       3.598  50.729   1.893  1.00  0.00    -0.265 OA
BRANCH  16  18
HETATM   18  O3  UNL     1       4.602  50.249   3.849  1.00  0.00    -0.313 OA
BRANCH  18  19
HETATM   19  C5  UNL     1       4.249  48.902   4.080  1.00  0.00     0.165 C
HETATM   20  C2  UNL     1       5.373  47.913   4.028  1.00  0.00     0.179 C
HETATM   21  C3  UNL     1       4.841  47.314   5.331  1.00  0.00     0.152 C
HETATM   22  C4  UNL     1       4.108  48.619   5.558  1.00  0.00     0.069 C
BRANCH  20  23
HETATM   23  O1  UNL     1       6.642  48.409   4.196  1.00  0.00    -0.386 OA
HETATM   24  C1  UNL     1       7.478  47.796   3.257  1.00  0.00     0.202 C
ENDBRANCH  20  23
BRANCH  21  25
HETATM   25  O2  UNL     1       5.831  47.042   6.270  1.00  0.00    -0.393 OA
ATOM     26  H2  UNL     1       5.493  46.781   7.119  1.00  0.00     0.210 HD
ENDBRANCH  21  25
ENDBRANCH  18  19
ENDBRANCH  16  18
ENDBRANCH   1  16
BRANCH  10  27
HETATM   27  O5  UNL     1       5.783  56.125   1.055  1.00  0.00    -0.389 OA
ATOM     28  H5  UNL     1       5.331  55.568   0.432  1.00  0.00     0.210 HD
ENDBRANCH  10  27
TORSDOF 6
ENDMDL