MODEL 4
REMARK VINA RESULT: -7.908245264      0.877      1.409
REMARK  8 active torsions:
REMARK  status: ('A' for Active; 'I' for Inactive)
REMARK    1  A    between atoms: C2_2  and  O2_4
REMARK    2  A    between atoms: O2_4  and  C3_5
REMARK    3  A    between atoms: C5_7  and  C6_8
REMARK    4  A    between atoms: C6_8  and  O3_9
REMARK    5  A    between atoms: C13_18  and  C14_19
REMARK    6  A    between atoms: C16_21  and  C17_22
REMARK    7  A    between atoms: C17_22  and  O5_24
REMARK    8  A    between atoms: C17_22  and  C19_26
ROOT
HETATM    1  C3  UNL     1       8.642  55.869   0.944  1.00  0.00     0.164 C
HETATM    2  C4  UNL     1       8.663  57.183   0.236  1.00  0.00     0.012 C
HETATM    3  C5  UNL     1       7.753  58.137   0.348  1.00  0.00    -0.046 C
HETATM    4  C7  UNL     1       6.613  57.967   1.215  1.00  0.00     0.099 C
HETATM    5  C8  UNL     1       5.288  58.385   0.760  1.00  0.00     0.164 C
HETATM    6  O4  UNL     1       4.865  59.234  -0.041  1.00  0.00    -0.292 OA
HETATM    7  C9  UNL     1       4.397  57.484   1.540  1.00  0.00    -0.019 C
HETATM    8  C10 UNL     1       2.985  57.839   1.929  1.00  0.00     0.052 C
HETATM    9  C11 UNL     1       5.050  56.368   1.808  1.00  0.00    -0.010 C
HETATM   10  C12 UNL     1       6.364  56.444   1.247  1.00  0.00     0.035 C
HETATM   11  C13 UNL     1       7.534  55.912   1.994  1.00  0.00     0.056 C
ENDROOT
BRANCH  11  12
HETATM   12  C14 UNL     1       7.323  54.634   2.661  1.00  0.00    -0.077 C
HETATM   13  C15 UNL     1       6.956  54.561   4.123  1.00  0.00     0.044 C
HETATM   14  C16 UNL     1       7.458  53.503   1.976  1.00  0.00     0.013 C
BRANCH  14  15
HETATM   15  C17 UNL     1       7.272  52.160   2.537  1.00  0.00     0.075 C
HETATM   16  C18 UNL     1       8.205  51.846   3.677  1.00  0.00     0.051 C
BRANCH  15  17
HETATM   17  O5  UNL     1       7.372  51.131   1.591  1.00  0.00    -0.386 OA
ATOM     18  H5  UNL     1       6.842  51.270   0.815  1.00  0.00     0.211 HD
ENDBRANCH  15  17
BRANCH  15  19
HETATM   19  C19 UNL     1       5.862  52.060   3.083  1.00  0.00     0.015 C
HETATM   20  C20 UNL     1       4.840  52.253   1.979  1.00  0.00     0.013 C
HETATM   21  C21 UNL     1       5.647  50.777   3.838  1.00  0.00     0.013 C
ENDBRANCH  15  19
ENDBRANCH  14  15
ENDBRANCH  11  12
BRANCH   1  22
HETATM   22  O2  UNL     1       9.900  55.588   1.510  1.00  0.00    -0.312 OA
BRANCH  22  23
HETATM   23  C2  UNL     1      10.655  54.542   0.999  1.00  0.00     0.255 C
HETATM   24  C1  UNL     1      11.131  53.413   1.849  1.00  0.00     0.126 C
HETATM   25  O1  UNL     1      10.979  54.490  -0.216  1.00  0.00    -0.266 OA
ENDBRANCH  22  23
ENDBRANCH   1  22
BRANCH   3  26
HETATM   26  C6  UNL     1       7.935  59.380  -0.432  1.00  0.00     0.199 C
BRANCH  26  27
HETATM   27  O3  UNL     1       7.546  60.513   0.315  1.00  0.00    -0.397 OA
ATOM     28  H3  UNL     1       6.680  60.809   0.061  1.00  0.00     0.209 HD
ENDBRANCH  26  27
ENDBRANCH   3  26
TORSDOF 8
ENDMDL