MODEL 1
REMARK VINA RESULT: -7.172185716      0.000      0.000
REMARK  17 active torsions:
REMARK  status: ('A' for Active; 'I' for Inactive)
REMARK    1  A    between atoms: N1_5  and  C4_7
REMARK    2  A    between atoms: C4_7  and  C5_8
REMARK    3  A    between atoms: C5_8  and  N2_9
REMARK    4  A    between atoms: C6_13  and  C7_14
REMARK    5  A    between atoms: C7_14  and  N3_15
REMARK    6  A    between atoms: C8_16  and  C9_17
REMARK    7  A    between atoms: C9_17  and  O2_18
REMARK    8  A    between atoms: C9_17  and  C10_20
REMARK    9  A    between atoms: C10_20  and  O3_21
REMARK   10  A    between atoms: C10_20  and  O4_23
REMARK   11  A    between atoms: C11_25  and  O5_26
REMARK   12  A    between atoms: N4_28  and  N5_29
REMARK   13  A    between atoms: N5_29  and  C12_31
REMARK   14  A    between atoms: C13_38  and  C14_39
REMARK   15  A    between atoms: N10_43  and  O7_45
REMARK   16  A    between atoms: C16_47  and  O8_48
REMARK   17  A    between atoms: C17_50  and  O9_51
ROOT
HETATM    1  N3  UNL     1       1.529   4.913  11.781  1.00  0.00    -0.150 N
HETATM    2  C8  UNL     1       1.099   4.619  10.561  1.00  0.00     0.120 A
HETATM    3  C11 UNL     1       1.720   5.546   9.685  1.00  0.00     0.206 A
HETATM    4  N4  UNL     1       2.501   6.349  10.375  1.00  0.00    -0.061 N
HETATM    5  C15 UNL     1       2.379   5.955  11.672  1.00  0.00     0.732 A
HETATM    6  N10 UNL     1       3.047   6.567  12.604  1.00  0.00    -0.096 N
ATOM      7  H10 UNL     1       3.639   7.342  12.304  1.00  0.00     0.213 HD
ENDROOT
BRANCH   1   8
HETATM    8  C7  UNL     1       1.140   4.346  13.012  1.00  0.00     0.134 C
BRANCH   8   9
HETATM    9  C6  UNL     1       1.702   3.032  13.400  1.00  0.00     0.068 A
HETATM   10  C3  UNL     1       0.694   2.033  13.567  1.00  0.00     0.158 A
HETATM   11  O1  UNL     1       1.141   0.817  13.916  1.00  0.00    -0.295 OA
HETATM   12  N1  UNL     1      -0.509   2.182  13.430  1.00  0.00    -0.368 N
HETATM   13  C2  UNL     1       2.362   0.465  14.111  1.00  0.00     0.087 A
HETATM   14  C1  UNL     1       2.723  -0.954  14.506  1.00  0.00     0.080 C
HETATM   15  C17 UNL     1       3.352   1.404  13.958  1.00  0.00     0.129 A
HETATM   16  C16 UNL     1       2.984   2.688  13.600  1.00  0.00     0.117 A
ATOM     17  H1  UNL     1      -0.874   1.253  13.639  1.00  0.00     0.161 HD
BRANCH  15  18
HETATM   18  O9  UNL     1       4.702   1.110  14.145  1.00  0.00    -0.356 OA
ATOM     19  H9  UNL     1       5.253   1.593  14.750  1.00  0.00     0.218 HD
ENDBRANCH  15  18
BRANCH  16  20
HETATM   20  O8  UNL     1       3.982   3.653  13.455  1.00  0.00    -0.357 OA
ATOM     21  H8  UNL     1       3.982   4.412  14.027  1.00  0.00     0.217 HD
ENDBRANCH  16  20
BRANCH  12  22
HETATM   22  C4  UNL     1      -1.616   2.874  13.161  1.00  0.00     0.149 C
BRANCH  22  23
HETATM   23  C5  UNL     1      -2.840   1.991  12.778  1.00  0.00     0.249 C
BRANCH  23  24
HETATM   24  N2  UNL     1      -2.718   1.726  11.361  1.00  0.00    -0.078 N
ATOM     25  H23 UNL     1      -1.956   2.236  10.917  1.00  0.00     0.274 HD
ATOM     26  H22 UNL     1      -2.379   0.787  11.152  1.00  0.00     0.274 HD
ATOM     27  H21 UNL     1      -3.632   1.927  10.955  1.00  0.00     0.274 HD
ENDBRANCH  23  24
ENDBRANCH  22  23
ENDBRANCH  12  22
ENDBRANCH   8   9
ENDBRANCH   1   8
BRANCH   2  28
HETATM   28  C9  UNL     1       0.122   3.639  10.018  1.00  0.00     0.228 C
BRANCH  28  29
HETATM   29  O2  UNL     1       0.763   3.045   8.845  1.00  0.00    -0.384 OA
ATOM     30  H2  UNL     1       0.593   3.643   8.126  1.00  0.00     0.210 HD
ENDBRANCH  28  29
BRANCH  28  31
HETATM   31  C10 UNL     1      -1.085   4.301   9.440  1.00  0.00     0.288 C
BRANCH  31  32
HETATM   32  O3  UNL     1      -1.853   4.756  10.602  1.00  0.00    -0.368 OA
ATOM     33  H3  UNL     1      -1.818   4.029  11.213  1.00  0.00     0.212 HD
ENDBRANCH  31  32
BRANCH  31  34
HETATM   34  O4  UNL     1      -1.944   3.331   8.866  1.00  0.00    -0.368 OA
ATOM     35  H4  UNL     1      -1.924   3.397   7.919  1.00  0.00     0.212 HD
ENDBRANCH  31  34
ENDBRANCH  28  31
ENDBRANCH   2  28
BRANCH   3  36
HETATM   36  O5  UNL     1       1.520   5.580   8.309  1.00  0.00    -0.343 OA
ATOM     37  H5  UNL     1       1.899   6.231   7.729  1.00  0.00     0.219 HD
ENDBRANCH   3  36
BRANCH   4  38
HETATM   38  N5  UNL     1       3.442   7.312   9.939  1.00  0.00    -0.283 N
ATOM     39  H5  UNL     1       4.406   7.195  10.253  1.00  0.00     0.184 HD
BRANCH  38  40
HETATM   40  C12 UNL     1       3.167   8.418   9.110  1.00  0.00     0.272 A
HETATM   41  N6  UNL     1       2.170   9.332   9.523  1.00  0.00    -0.292 N
HETATM   42  N7  UNL     1       2.663  10.511   9.428  1.00  0.00    -0.244 N
ATOM     43  H6  UNL     1       1.230   9.096   9.841  1.00  0.00     0.184 HD
HETATM   44  N8  UNL     1       3.984  10.473   8.966  1.00  0.00    -0.282 N
ATOM     45  H7  UNL     1       2.158  11.367   9.658  1.00  0.00     0.208 HD
HETATM   46  C13 UNL     1       4.364   9.246   8.753  1.00  0.00     0.136 A
ATOM     47  H8  UNL     1       4.569  11.295   8.816  1.00  0.00     0.188 HD
BRANCH  46  48
HETATM   48  C14 UNL     1       5.648   8.753   8.286  1.00  0.00     0.282 C
HETATM   49  N9  UNL     1       6.718   9.646   7.994  1.00  0.00    -0.056 NA
HETATM   50  O6  UNL     1       5.833   7.528   8.134  1.00  0.00    -0.270 OA
ENDBRANCH  46  48
ENDBRANCH  38  40
ENDBRANCH   4  38
BRANCH   6  51
HETATM   51  O7  UNL     1       3.046   6.290  13.924  1.00  0.00    -0.276 OA
ATOM     52  H7  UNL     1       2.966   6.909  14.641  1.00  0.00     0.245 HD
ENDBRANCH   6  51
TORSDOF 17
ENDMDL