MODEL 2
REMARK VINA RESULT: -7.163222574      3.930      7.082
REMARK  14 active torsions:
REMARK  status: ('A' for Active; 'I' for Inactive)
REMARK    1  A    between atoms: N1_1  and  C1_4
REMARK    2  A    between atoms: C4_9  and  N3_10
REMARK    3  A    between atoms: C5_15  and  O1_16
REMARK    4  A    between atoms: O1_16  and  C6_17
REMARK    5  A    between atoms: C6_17  and  C7_18
REMARK    6  A    between atoms: C6_17  and  C12_36
REMARK    7  A    between atoms: C8_23  and  C9_24
REMARK    8  A    between atoms: N9_28  and  C10_29
REMARK    9  A    between atoms: C10_29  and  C11_30
REMARK   10  A    between atoms: C11_30  and  O2_31
REMARK   11  A    between atoms: C13_38  and  C14_39
REMARK   12  A    between atoms: C14_39  and  O5_40
REMARK   13  A    between atoms: C14_39  and  O6_42
REMARK   14  A    between atoms: C16_45  and  O7_46
ROOT
HETATM    1  C6  UNL     1       0.498   4.118  11.877  1.00  0.00     0.260 C
ENDROOT
BRANCH   1   2
HETATM    2  O1  UNL     1       1.399   3.510  12.721  1.00  0.00    -0.344 OA
BRANCH   2   3
HETATM    3  C5  UNL     1       1.734   2.260  12.211  1.00  0.00     0.274 C
HETATM    4  C3  UNL     1       1.697   1.197  13.247  1.00  0.00     0.077 A
HETATM    5  C2  UNL     1       2.772   1.123  14.107  1.00  0.00     0.147 A
HETATM    6  C4  UNL     1       0.657   0.300  13.381  1.00  0.00     0.128 A
HETATM    7  N2  UNL     1       2.782   0.173  15.063  1.00  0.00    -0.175 N
HETATM    8  N13 UNL     1       3.829   2.058  13.945  1.00  0.00    -0.272 N
HETATM    9  C1  UNL     1       1.772  -0.704  15.202  1.00  0.00     0.679 A
ATOM     10  H2  UNL     1       3.577   0.118  15.698  1.00  0.00     0.186 HD
HETATM   11  N4  UNL     1       0.713  -0.632  14.356  1.00  0.00    -0.177 N
ATOM     12  H4  UNL     1      -0.055  -1.295  14.459  1.00  0.00     0.186 HD
HETATM   13  N12 UNL     1       3.977   2.795  12.766  1.00  0.00    -0.027 NA
ATOM     14  H13 UNL     1       4.494   2.194  14.706  1.00  0.00     0.185 HD
HETATM   15  N11 UNL     1       3.121   2.358  11.760  1.00  0.00    -0.089 NA
BRANCH   9  16
HETATM   16  N1  UNL     1       1.868  -1.578  16.146  1.00  0.00    -0.234 N
ATOM     17  H12 UNL     1       1.892  -1.333  17.136  1.00  0.00     0.174 HD
ATOM     18  H11 UNL     1       1.921  -2.560  15.875  1.00  0.00     0.174 HD
ENDBRANCH   9  16
BRANCH   6  19
HETATM   19  N3  UNL     1      -0.360   0.377  12.561  1.00  0.00    -0.384 N
ATOM     20  H32 UNL     1      -1.079   1.094  12.663  1.00  0.00     0.157 HD
ATOM     21  H31 UNL     1      -0.435  -0.296  11.799  1.00  0.00     0.157 HD
ENDBRANCH   6  19
ENDBRANCH   2   3
ENDBRANCH   1   2
BRANCH   1  22
HETATM   22  C7  UNL     1      -0.386   5.107  12.585  1.00  0.00     0.176 A
HETATM   23  N5  UNL     1       0.029   6.130  13.373  1.00  0.00    -0.279 N
HETATM   24  N6  UNL     1      -1.046   6.779  13.817  1.00  0.00    -0.275 N
ATOM     25  H5  UNL     1       0.998   6.363  13.589  1.00  0.00     0.189 HD
HETATM   26  C8  UNL     1      -2.128   6.175  13.317  1.00  0.00     0.211 A
ATOM     27  H6  UNL     1      -1.044   7.593  14.430  1.00  0.00     0.189 HD
HETATM   28  O3  UNL     1      -1.694   5.178  12.585  1.00  0.00    -0.271 OA
BRANCH  26  29
HETATM   29  C9  UNL     1      -3.536   6.553  13.543  1.00  0.00     0.188 A
HETATM   30  N7  UNL     1      -4.214   6.357  14.690  1.00  0.00    -0.263 N
HETATM   31  N8  UNL     1      -5.450   6.835  14.488  1.00  0.00    -0.003 NA
ATOM     32  H7  UNL     1      -3.857   5.928  15.545  1.00  0.00     0.186 HD
HETATM   33  N9  UNL     1      -5.559   7.320  13.264  1.00  0.00    -0.214 N
HETATM   34  N10 UNL     1      -4.371   7.145  12.676  1.00  0.00    -0.266 N
ATOM     35  H10 UNL     1      -4.137   7.417  11.722  1.00  0.00     0.190 HD
BRANCH  33  36
HETATM   36  C10 UNL     1      -6.756   7.916  12.708  1.00  0.00     0.193 C
BRANCH  36  37
HETATM   37  C11 UNL     1      -6.946   9.336  13.218  1.00  0.00     0.187 C
BRANCH  37  38
HETATM   38  O2  UNL     1      -5.839   9.668  13.990  1.00  0.00    -0.399 OA
ATOM     39  H2  UNL     1      -6.150   9.987  14.829  1.00  0.00     0.209 HD
ENDBRANCH  37  38
ENDBRANCH  36  37
ENDBRANCH  33  36
ENDBRANCH  26  29
ENDBRANCH   1  22
BRANCH   1  40
HETATM   40  C12 UNL     1       1.153   4.826  10.754  1.00  0.00     0.123 A
HETATM   41  O4  UNL     1       1.843   5.955  10.832  1.00  0.00    -0.308 OA
HETATM   42  C13 UNL     1       2.289   6.317   9.668  1.00  0.00     0.110 A
HETATM   43  C15 UNL     1       1.891   5.398   8.725  1.00  0.00     0.077 A
HETATM   44  C16 UNL     1       1.162   4.445   9.444  1.00  0.00     0.101 A
BRANCH  42  45
HETATM   45  C14 UNL     1       3.110   7.536   9.349  1.00  0.00     0.312 C
BRANCH  45  46
HETATM   46  O5  UNL     1       2.411   8.694   9.688  1.00  0.00    -0.365 OA
ATOM     47  H5  UNL     1       1.475   8.544   9.627  1.00  0.00     0.213 HD
ENDBRANCH  45  46
BRANCH  45  48
HETATM   48  O6  UNL     1       4.311   7.412  10.045  1.00  0.00    -0.365 OA
ATOM     49  H6  UNL     1       4.322   8.096  10.705  1.00  0.00     0.213 HD
ENDBRANCH  45  48
ENDBRANCH  42  45
BRANCH  44  50
HETATM   50  O7  UNL     1       0.593   3.347   8.822  1.00  0.00    -0.358 OA
ATOM     51  H7  UNL     1       0.537   2.440   9.101  1.00  0.00     0.217 HD
ENDBRANCH  44  50
ENDBRANCH   1  40
TORSDOF 14
ENDMDL