MODEL 3
REMARK VINA RESULT: -7.788968749      3.315      6.434
REMARK  11 active torsions:
REMARK  status: ('A' for Active; 'I' for Inactive)
REMARK    1  A    between atoms: C2_7  and  N3_8
REMARK    2  A    between atoms: N4_10  and  N5_12
REMARK       I    between atoms: N5_12  and  C3_13
REMARK       I    between atoms: N5_12  and  C10_32
REMARK    3  A    between atoms: C3_13  and  O2_15
REMARK    4  A    between atoms: O2_15  and  C4_16
REMARK    5  A    between atoms: C4_16  and  C5_17
REMARK    6  A    between atoms: C5_17  and  O3_18
REMARK    7  A    between atoms: C5_17  and  N6_20
REMARK    8  A    between atoms: N6_20  and  C6_22
REMARK       I    between atoms: C10_32  and  N9_33
REMARK       I    between atoms: C10_32  and  N10_37
REMARK    9  A    between atoms: N12_43  and  N13_44
REMARK   10  A    between atoms: N14_46  and  C11_48
REMARK   11  A    between atoms: N17_54  and  N18_55
ROOT
HETATM    1  N5  UNL     1       1.629   5.533  12.507  1.00  0.00    -0.165 N
HETATM    2  C3  UNL     1       1.863   4.126  12.697  1.00  0.00     0.386 C
HETATM    3  O1  UNL     1       1.512   3.574  13.783  1.00  0.00    -0.236 OA
HETATM    4  C10 UNL     1       0.998   6.304  13.552  1.00  0.00     0.506 C
HETATM    5  N9  UNL     1       1.844   6.299  14.743  1.00  0.00    -0.031 N
ATOM      6  H91 UNL     1       1.398   6.843  15.481  1.00  0.00     0.279 HD
ATOM      7  H92 UNL     1       2.790   6.623  14.543  1.00  0.00     0.279 HD
ATOM      8  H93 UNL     1       2.074   5.354  15.047  1.00  0.00     0.279 HD
HETATM    9  N10 UNL     1      -0.304   5.783  13.897  1.00  0.00    -0.031 N
ATOM     10 1H10 UNL     1      -0.749   6.327  14.635  1.00  0.00     0.279 HD
ATOM     11 2H10 UNL     1      -0.253   4.795  14.145  1.00  0.00     0.279 HD
ATOM     12 3H10 UNL     1      -0.903   5.713  13.075  1.00  0.00     0.279 HD
ENDROOT
BRANCH   1  13
HETATM   13  N4  UNL     1       2.009   6.157  11.321  1.00  0.00    -0.218 N
HETATM   14  N3  UNL     1       3.131   6.644  11.064  1.00  0.00    -0.115 N
ATOM     15  H3  UNL     1       3.883   6.611  11.753  1.00  0.00     0.207 HD
ATOM     16  H4  UNL     1       1.301   6.223  10.590  1.00  0.00     0.209 HD
BRANCH  14  17
HETATM   17  C2  UNL     1       3.339   7.245   9.790  1.00  0.00     0.729 A
HETATM   18  N2  UNL     1       2.493   7.182   8.754  1.00  0.00    -0.017 N
HETATM   19  C1  UNL     1       3.030   7.859   7.728  1.00  0.00     0.728 A
ATOM     20  H2  UNL     1       1.594   6.700   8.747  1.00  0.00     0.203 HD
HETATM   21  N1  UNL     1       2.526   8.033   6.577  1.00  0.00    -0.231 N
HETATM   22  N12 UNL     1       4.235   8.363   8.119  1.00  0.00     0.009 N
ATOM     23  H12 UNL     1       1.624   7.657   6.284  1.00  0.00     0.174 HD
ATOM     24  H11 UNL     1       2.934   8.548   5.796  1.00  0.00     0.174 HD
HETATM   25  N11 UNL     1       4.390   7.972   9.374  1.00  0.00    -0.093 N
ATOM     26  H11 UNL     1       5.203   8.194   9.951  1.00  0.00     0.208 HD
BRANCH  22  27
HETATM   27  N13 UNL     1       5.104   9.129   7.339  1.00  0.00    -0.204 N
HETATM   28  N14 UNL     1       5.194  10.385   7.368  1.00  0.00    -0.266 N
ATOM     29  H14 UNL     1       5.858  10.866   6.760  1.00  0.00     0.190 HD
ATOM     30  H13 UNL     1       5.715   8.631   6.693  1.00  0.00     0.211 HD
BRANCH  28  31
HETATM   31  C11 UNL     1       4.360  11.136   8.259  1.00  0.00     0.160 A
HETATM   32  C12 UNL     1       4.724  11.579   9.534  1.00  0.00     0.142 A
HETATM   33  N15 UNL     1       3.676  12.239  10.037  1.00  0.00    -0.335 N
HETATM   34  C13 UNL     1       2.653  12.254   9.171  1.00  0.00     0.215 A
ATOM     35  H15 UNL     1       3.657  12.674  10.960  1.00  0.00     0.168 HD
HETATM   36  N16 UNL     1       1.376  12.852   9.338  1.00  0.00    -0.061 NA
HETATM   37  N17 UNL     1       3.101  11.563   8.078  1.00  0.00    -0.215 N
BRANCH  37  38
HETATM   38  N18 UNL     1       2.320  11.346   6.945  1.00  0.00    -0.334 N
ATOM     39 2H18 UNL     1       1.957  12.105   6.369  1.00  0.00     0.177 HD
ATOM     40 1H18 UNL     1       2.033  10.438   6.582  1.00  0.00     0.177 HD
ENDBRANCH  37  38
ENDBRANCH  28  31
ENDBRANCH  22  27
ENDBRANCH  14  17
ENDBRANCH   1  13
BRANCH   2  41
HETATM   41  O2  UNL     1       2.459   3.332  11.744  1.00  0.00    -0.298 OA
BRANCH  41  42
HETATM   42  C4  UNL     1       3.851   3.045  11.723  1.00  0.00     0.234 C
BRANCH  42  43
HETATM   43  C5  UNL     1       4.236   2.015  12.729  1.00  0.00     0.243 C
BRANCH  43  44
HETATM   44  O3  UNL     1       4.553   2.620  13.945  1.00  0.00    -0.375 OA
ATOM     45  H3  UNL     1       5.362   2.263  14.292  1.00  0.00     0.212 HD
ENDBRANCH  43  44
BRANCH  43  46
HETATM   46  N6  UNL     1       3.164   1.073  12.913  1.00  0.00    -0.348 N
ATOM     47  H6  UNL     1       2.443   1.028  12.194  1.00  0.00     0.163 HD
BRANCH  46  48
HETATM   48  C6  UNL     1       3.040   0.204  14.024  1.00  0.00     0.112 A
HETATM   49  C7  UNL     1       1.927  -0.592  14.213  1.00  0.00     0.122 A
HETATM   50  C8  UNL     1       1.752  -1.437  15.285  1.00  0.00     0.252 A
HETATM   51  O4  UNL     1       0.712  -2.136  15.397  1.00  0.00    -0.268 OA
HETATM   52  N7  UNL     1       2.742  -1.486  16.213  1.00  0.00    -0.275 N
HETATM   53  C9  UNL     1       3.828  -0.720  16.044  1.00  0.00     0.328 A
ATOM     54  H7  UNL     1       2.660  -2.096  17.027  1.00  0.00     0.173 HD
HETATM   55  O5  UNL     1       4.723  -0.810  16.946  1.00  0.00    -0.247 OA
HETATM   56  N8  UNL     1       3.995   0.110  14.988  1.00  0.00    -0.294 N
ATOM     57  H8  UNL     1       4.844   0.669  14.914  1.00  0.00     0.172 HD
ENDBRANCH  46  48
ENDBRANCH  43  46
ENDBRANCH  42  43
ENDBRANCH  41  42
ENDBRANCH   2  41
TORSDOF 11
ENDMDL