MODEL 3
REMARK VINA RESULT: -6.704210804      5.261      7.694
REMARK  14 active torsions:
REMARK  status: ('A' for Active; 'I' for Inactive)
REMARK    1  A    between atoms: N1_1  and  C1_4
REMARK    2  A    between atoms: C3_9  and  N4_10
REMARK    3  A    between atoms: N4_10  and  C4_12
REMARK    4  A    between atoms: C5_13  and  N5_14
REMARK    5  A    between atoms: N5_14  and  O1_16
REMARK    6  A    between atoms: N6_18  and  O2_19
REMARK    7  A    between atoms: C8_26  and  C9_27
REMARK    8  A    between atoms: C9_27  and  O3_28
REMARK    9  A    between atoms: C9_27  and  C10_30
REMARK   10  A    between atoms: C10_30  and  C11_31
REMARK   11  A    between atoms: C10_30  and  C12_34
REMARK   12  A    between atoms: N10_36  and  C14_37
REMARK   13  A    between atoms: C14_37  and  C15_38
REMARK   14  A    between atoms: C15_38  and  O6_39
ROOT
HETATM    1  C1  UNL     1       0.986   6.723   8.430  1.00  0.00     0.147 A
HETATM    2  N2  UNL     1      -0.181   7.274   8.143  1.00  0.00    -0.325 N
ATOM      3  H2  UNL     1      -1.024   6.701   8.116  1.00  0.00     0.169 HD
HETATM    4  C2  UNL     1      -0.256   8.597   7.885  1.00  0.00     0.163 A
HETATM    5  N3  UNL     1      -1.516   9.133   7.572  1.00  0.00    -0.079 NA
HETATM    6  C3  UNL     1       0.872   9.401   7.913  1.00  0.00     0.157 A
HETATM    7  N9  UNL     1       2.053   8.846   8.201  1.00  0.00    -0.261 N
HETATM    8  C8  UNL     1       3.288   9.352   8.299  1.00  0.00     0.136 A
HETATM    9  N13 UNL     1       4.092   8.287   8.627  1.00  0.00    -0.285 N
ATOM     10  H13 UNL     1       5.099   8.342   8.776  1.00  0.00     0.188 HD
HETATM   11  N14 UNL     1       3.382   7.191   8.721  1.00  0.00    -0.281 N
ATOM     12  H14 UNL     1       3.734   6.262   8.952  1.00  0.00     0.188 HD
HETATM   13  C16 UNL     1       2.115   7.512   8.460  1.00  0.00     0.174 A
ENDROOT
BRANCH   8  14
HETATM   14  C9  UNL     1       3.767  10.731   8.068  1.00  0.00     0.208 C
BRANCH  14  15
HETATM   15  O3  UNL     1       4.023  10.950   6.715  1.00  0.00    -0.387 OA
ATOM     16  H3  UNL     1       4.872  11.357   6.592  1.00  0.00     0.210 HD
ENDBRANCH  14  15
BRANCH  14  17
HETATM   17  C10 UNL     1       5.121  10.889   8.776  1.00  0.00     0.175 C
BRANCH  17  18
HETATM   18  C11 UNL     1       5.205  12.255   9.386  1.00  0.00     0.186 C
HETATM   19  O4  UNL     1       4.862  13.247   8.709  1.00  0.00    -0.647 OA
HETATM   20  O5  UNL     1       5.649  12.463  10.680  1.00  0.00    -0.647 OA
ENDBRANCH  17  18
BRANCH  17  21
HETATM   21  C12 UNL     1       6.245  10.762   7.815  1.00  0.00     0.058 A
HETATM   22  C13 UNL     1       6.834   9.577   7.429  1.00  0.00     0.135 A
HETATM   23  N10 UNL     1       7.831   9.845   6.537  1.00  0.00    -0.283 N
HETATM   24  N11 UNL     1       7.843  11.160   6.390  1.00  0.00    -0.020 NA
HETATM   25  N12 UNL     1       6.902  11.721   7.148  1.00  0.00    -0.286 N
ATOM     26  H12 UNL     1       6.712  12.722   7.210  1.00  0.00     0.184 HD
BRANCH  23  27
HETATM   27  C14 UNL     1       8.704   8.890   5.881  1.00  0.00     0.172 C
BRANCH  27  28
HETATM   28  C15 UNL     1       8.000   8.146   4.774  1.00  0.00     0.185 C
BRANCH  28  29
HETATM   29  O6  UNL     1       8.388   8.557   3.517  1.00  0.00    -0.399 OA
ATOM     30  H6  UNL     1       8.518   7.835   2.915  1.00  0.00     0.209 HD
ENDBRANCH  28  29
ENDBRANCH  27  28
ENDBRANCH  23  27
ENDBRANCH  17  21
ENDBRANCH  14  17
ENDBRANCH   8  14
BRANCH   6  31
HETATM   31  N4  UNL     1       0.756  10.783   7.677  1.00  0.00    -0.334 N
ATOM     32  H4  UNL     1       1.005  11.131   6.752  1.00  0.00     0.168 HD
BRANCH  31  33
HETATM   33  C4  UNL     1       0.358  11.632   8.551  1.00  0.00     0.110 A
HETATM   34  C5  UNL     1       0.696  11.839   9.940  1.00  0.00     0.183 A
HETATM   35  N6  UNL     1      -0.098  12.949  10.392  1.00  0.00    -0.188 N
HETATM   36  C6  UNL     1      -0.889  13.397   9.309  1.00  0.00     0.172 A
HETATM   37  N7  UNL     1      -1.799  14.491   9.413  1.00  0.00    -0.078 NA
HETATM   38  C7  UNL     1      -0.654  12.665   8.242  1.00  0.00     0.120 A
HETATM   39  N8  UNL     1      -1.296  12.868   6.992  1.00  0.00    -0.096 NA
BRANCH  34  40
HETATM   40  N5  UNL     1       1.544  11.165  10.618  1.00  0.00    -0.249 N
ATOM     41  H5  UNL     1       2.410  10.872  10.167  1.00  0.00     0.196 HD
BRANCH  40  42
HETATM   42  O1  UNL     1       1.334  10.819  11.930  1.00  0.00    -0.288 OA
ATOM     43  H1  UNL     1       2.010  10.895  12.593  1.00  0.00     0.244 HD
ENDBRANCH  40  42
ENDBRANCH  34  40
BRANCH  35  44
HETATM   44  O2  UNL     1      -0.035  13.425  11.667  1.00  0.00    -0.280 OA
ATOM     45  H2  UNL     1       0.784  13.520  12.137  1.00  0.00     0.245 HD
ENDBRANCH  35  44
ENDBRANCH  31  33
ENDBRANCH   6  31
BRANCH   1  46
HETATM   46  N1  UNL     1       1.060   5.463   8.677  1.00  0.00    -0.382 N
ATOM     47  H12 UNL     1       0.238   4.866   8.587  1.00  0.00     0.157 HD
ATOM     48  H11 UNL     1       1.947   5.050   8.967  1.00  0.00     0.157 HD
ENDBRANCH   1  46
TORSDOF 14
ENDMDL