MODEL 5
REMARK VINA RESULT: -7.080095882      1.773      2.692
REMARK  14 active torsions:
REMARK  status: ('A' for Active; 'I' for Inactive)
REMARK    1  A    between atoms: N1_1  and  C1_5
REMARK    2  A    between atoms: C1_5  and  O1_6
REMARK    3  A    between atoms: C1_5  and  N2_8
REMARK    4  A    between atoms: N2_8  and  C2_11
REMARK    5  A    between atoms: C2_11  and  C3_12
REMARK    6  A    between atoms: C2_11  and  C4_17
REMARK    7  A    between atoms: N3_13  and  O2_15
REMARK    8  A    between atoms: C4_17  and  N4_18
REMARK    9  A    between atoms: C6_20  and  C7_21
REMARK       I    between atoms: C7_21  and  N5_23
REMARK   10  A    between atoms: C10_29  and  C11_30
REMARK   11  A    between atoms: C11_30  and  O4_31
REMARK   12  A    between atoms: C14_38  and  C15_39
REMARK   13  A    between atoms: C16_42  and  N10_43
REMARK   14  A    between atoms: N12_49  and  O6_50
ROOT
HETATM    1  N4  UNL     1       4.981   9.090   8.259  1.00  0.00    -0.339 N
HETATM    2  C5  UNL     1       4.600   7.823   8.330  1.00  0.00     0.127 A
HETATM    3  C6  UNL     1       3.285   7.768   8.752  1.00  0.00     0.118 A
HETATM    4  N7  UNL     1       2.927   9.044   8.920  1.00  0.00    -0.338 N
ATOM      5  H7  UNL     1       2.005   9.353   9.229  1.00  0.00     0.167 HD
HETATM    6  C14 UNL     1       3.950   9.864   8.624  1.00  0.00     0.123 A
ENDROOT
BRANCH   1   7
HETATM    7  C4  UNL     1       6.307   9.534   7.850  1.00  0.00     0.168 C
BRANCH   7   8
HETATM    8  C2  UNL     1       6.357   9.775   6.350  1.00  0.00     0.249 C
BRANCH   8   9
HETATM    9  N2  UNL     1       6.580  11.193   6.152  1.00  0.00    -0.013 N
ATOM     10  H22 UNL     1       5.700  11.700   6.055  1.00  0.00     0.283 HD
ATOM     11  H21 UNL     1       6.975  11.384   5.230  1.00  0.00     0.283 HD
BRANCH   9  12
HETATM   12  C1  UNL     1       7.404  11.751   7.212  1.00  0.00     0.520 C
BRANCH  12  13
HETATM   13  N1  UNL     1       8.756  11.947   6.747  1.00  0.00    -0.027 N
ATOM     14  H13 UNL     1       9.358  12.369   7.453  1.00  0.00     0.279 HD
ATOM     15  H12 UNL     1       9.266  11.071   6.638  1.00  0.00     0.279 HD
ATOM     16  H11 UNL     1       8.720  12.490   5.885  1.00  0.00     0.279 HD
ENDBRANCH  12  13
BRANCH  12  17
HETATM   17  O1  UNL     1       6.914  12.981   7.650  1.00  0.00    -0.349 OA
ATOM     18  H1  UNL     1       6.045  12.842   8.009  1.00  0.00     0.213 HD
ENDBRANCH  12  17
ENDBRANCH   9  12
ENDBRANCH   8   9
BRANCH   8  19
HETATM   19  C3  UNL     1       7.376   8.935   5.679  1.00  0.00     0.121 C
HETATM   20  N3  UNL     1       7.545   9.012   4.407  1.00  0.00    -0.282 N
ATOM     21  H3  UNL     1       6.961   9.664   3.884  1.00  0.00     0.192 HD
BRANCH  20  22
HETATM   22  O2  UNL     1       8.460   8.274   3.719  1.00  0.00    -0.290 OA
ATOM     23  H2  UNL     1       8.662   8.407   2.800  1.00  0.00     0.244 HD
ENDBRANCH  20  22
ENDBRANCH   8  19
ENDBRANCH   7   8
ENDBRANCH   1   7
BRANCH   6  24
HETATM   24  C15 UNL     1       4.003  11.338   8.667  1.00  0.00     0.285 C
HETATM   25  N8  UNL     1       3.754  11.927   7.355  1.00  0.00    -0.112 NA
HETATM   26  N9  UNL     1       4.131  13.268   7.456  1.00  0.00    -0.091 NA
HETATM   27  C16 UNL     1       3.405  13.968   8.493  1.00  0.00     0.405 C
HETATM   28  N11 UNL     1       3.217  13.225   9.693  1.00  0.00    -0.286 N
HETATM   29  N12 UNL     1       2.947  11.882   9.535  1.00  0.00    -0.080 NA
ATOM     30  H11 UNL     1       3.279  13.660  10.613  1.00  0.00     0.180 HD
BRANCH  27  31
HETATM   31  N10 UNL     1       2.156  14.491   7.935  1.00  0.00    -0.042 N
ATOM     32 3H10 UNL     1       2.309  15.038   7.087  1.00  0.00     0.278 HD
ATOM     33 2H10 UNL     1       1.574  13.757   7.530  1.00  0.00     0.278 HD
ATOM     34 1H10 UNL     1       1.665  15.022   8.654  1.00  0.00     0.278 HD
ENDBRANCH  27  31
BRANCH  29  35
HETATM   35  O6  UNL     1       1.755  11.789   8.860  1.00  0.00    -0.292 OA
ATOM     36  H6  UNL     1       1.167  12.447   9.211  1.00  0.00     0.239 HD
ENDBRANCH  29  35
ENDBRANCH   6  24
BRANCH   3  37
HETATM   37  C7  UNL     1       2.470   6.593   8.966  1.00  0.00     0.279 C
HETATM   38  O3  UNL     1       1.712   6.204   8.022  1.00  0.00    -0.265 OA
HETATM   39  N5  UNL     1       2.499   5.871  10.190  1.00  0.00    -0.274 N
HETATM   40  C8  UNL     1       3.306   6.211  11.313  1.00  0.00     0.184 A
HETATM   41  C13 UNL     1       1.748   4.704  10.519  1.00  0.00     0.264 A
HETATM   42  C9  UNL     1       3.000   5.168  12.355  1.00  0.00     0.035 A
HETATM   43  S1  UNL     1       3.334   4.615  13.927  1.00  0.00    -0.016 SA
HETATM   44  C12 UNL     1       2.078   4.265  11.906  1.00  0.00     0.073 A
HETATM   45  N6  UNL     1       2.315   3.281  13.968  1.00  0.00    -0.327 N
HETATM   46  C10 UNL     1       1.734   3.283  12.771  1.00  0.00     0.056 A
ATOM     47  H6  UNL     1       2.174   2.622  14.734  1.00  0.00     0.174 HD
HETATM   48  O5  UNL     1       0.950   4.189   9.701  1.00  0.00    -0.267 OA
BRANCH  46  49
HETATM   49  C11 UNL     1       0.728   2.189  12.454  1.00  0.00     0.222 C
BRANCH  49  50
HETATM   50  O4  UNL     1       1.063   1.482  11.337  1.00  0.00    -0.395 OA
ATOM     51  H4  UNL     1       0.392   0.859  11.087  1.00  0.00     0.209 HD
ENDBRANCH  49  50
ENDBRANCH  46  49
ENDBRANCH   3  37
TORSDOF 14
ENDMDL