MODEL 1
REMARK VINA RESULT: -6.463923206      0.000      0.000
REMARK  18 active torsions:
REMARK  status: ('A' for Active; 'I' for Inactive)
REMARK    1  A    between atoms: C2_3  and  O1_4
REMARK    2  A    between atoms: C2_3  and  C12_34
REMARK    3  A    between atoms: C2_3  and  N8_39
REMARK    4  A    between atoms: O1_4  and  C3_5
REMARK    5  A    between atoms: C3_5  and  O2_6
REMARK    6  A    between atoms: C3_5  and  N2_8
REMARK    7  A    between atoms: N2_8  and  O3_9
REMARK    8  A    between atoms: N2_8  and  C4_11
REMARK    9  A    between atoms: C4_11  and  C5_12
REMARK   10  A    between atoms: C7_14  and  C8_15
REMARK   11  A    between atoms: C9_19  and  N3_20
REMARK   12  A    between atoms: C10_23  and  N5_24
REMARK   13  A    between atoms: N6_27  and  N7_28
REMARK   14  A    between atoms: C11_31  and  O7_32
REMARK   15  A    between atoms: C12_34  and  O8_35
REMARK   16  A    between atoms: C12_34  and  O9_37
REMARK   17  A    between atoms: C14_43  and  N10_44
REMARK   18  A    between atoms: C15_49  and  N12_50
ROOT
HETATM    1  N1  UNL     1      -0.325   3.395   9.438  1.00  0.00    -0.192 NA
HETATM    2  C1  UNL     1      -0.373   3.226  10.617  1.00  0.00     0.128 C
HETATM    3  C2  UNL     1      -0.387   3.077  12.122  1.00  0.00     0.301 C
ENDROOT
BRANCH   3   4
HETATM    4  O1  UNL     1      -1.040   4.071  12.672  1.00  0.00    -0.293 OA
BRANCH   4   5
HETATM    5  C3  UNL     1      -0.761   5.379  12.692  1.00  0.00     0.399 C
BRANCH   5   6
HETATM    6  O2  UNL     1      -2.001   5.731  13.700  1.00  0.00    -0.353 OA
ATOM      7  H2  UNL     1      -1.530   5.444  14.474  1.00  0.00     0.214 HD
ENDBRANCH   5   6
BRANCH   5   8
HETATM    8  N2  UNL     1       0.203   5.851  13.520  1.00  0.00    -0.217 N
BRANCH   8   9
HETATM    9  O3  UNL     1       0.207   5.267  14.793  1.00  0.00    -0.284 OA
ATOM     10  H3  UNL     1       1.030   5.354  15.262  1.00  0.00     0.245 HD
ENDBRANCH   8   9
BRANCH   8  11
HETATM   11  C4  UNL     1       1.296   6.698  13.419  1.00  0.00     0.138 C
BRANCH  11  12
HETATM   12  C5  UNL     1       2.547   6.067  13.075  1.00  0.00     0.038 A
HETATM   13  C6  UNL     1       3.487   5.566  13.996  1.00  0.00     0.062 A
HETATM   14  C7  UNL     1       4.616   5.155  13.314  1.00  0.00     0.155 A
HETATM   15  O6  UNL     1       4.354   5.412  12.032  1.00  0.00    -0.284 OA
HETATM   16  C9  UNL     1       3.158   5.939  11.856  1.00  0.00     0.185 A
BRANCH  14  17
HETATM   17  C8  UNL     1       5.893   4.559  13.753  1.00  0.00     0.234 C
HETATM   18  O4  UNL     1       6.956   4.875  13.272  1.00  0.00    -0.642 OA
HETATM   19  O5  UNL     1       5.785   3.605  14.764  1.00  0.00    -0.642 OA
ENDBRANCH  14  17
BRANCH  16  20
HETATM   20  N3  UNL     1       2.719   6.252  10.512  1.00  0.00    -0.179 N
HETATM   21  N4  UNL     1       1.598   5.912   9.915  1.00  0.00    -0.119 N
HETATM   22  C10 UNL     1       1.492   6.460   8.717  1.00  0.00     0.715 A
ATOM     23  H4  UNL     1       0.895   5.299  10.327  1.00  0.00     0.206 HD
HETATM   24  N6  UNL     1       2.569   7.187   8.508  1.00  0.00    -0.051 N
HETATM   25  C11 UNL     1       3.351   7.054   9.641  1.00  0.00     0.283 A
BRANCH  22  26
HETATM   26  N5  UNL     1       0.520   6.236   7.840  1.00  0.00    -0.231 N
ATOM     27  H52 UNL     1      -0.361   5.759   8.031  1.00  0.00     0.174 HD
ATOM     28  H51 UNL     1       0.490   6.576   6.879  1.00  0.00     0.174 HD
ENDBRANCH  22  26
BRANCH  24  29
HETATM   29  N7  UNL     1       2.838   8.009   7.401  1.00  0.00    -0.321 N
ATOM     30  H72 UNL     1       2.213   8.191   6.616  1.00  0.00     0.178 HD
ATOM     31  H71 UNL     1       3.713   8.488   7.187  1.00  0.00     0.178 HD
ENDBRANCH  24  29
BRANCH  25  32
HETATM   32  O7  UNL     1       4.576   7.670   9.795  1.00  0.00    -0.329 OA
ATOM     33  H7  UNL     1       4.801   8.573   9.603  1.00  0.00     0.221 HD
ENDBRANCH  25  32
ENDBRANCH  16  20
ENDBRANCH  11  12
ENDBRANCH   8  11
ENDBRANCH   5   8
ENDBRANCH   4   5
ENDBRANCH   3   4
BRANCH   3  34
HETATM   34  C12 UNL     1      -1.419   1.868  12.381  1.00  0.00     0.327 C
BRANCH  34  35
HETATM   35  O8  UNL     1      -2.433   2.505  13.188  1.00  0.00    -0.366 OA
ATOM     36  H8  UNL     1      -2.999   1.775  13.409  1.00  0.00     0.212 HD
ENDBRANCH  34  35
BRANCH  34  37
HETATM   37  O9  UNL     1      -1.948   1.461  11.197  1.00  0.00    -0.366 OA
ATOM     38  H9  UNL     1      -2.719   0.932  11.359  1.00  0.00     0.212 HD
ENDBRANCH  34  37
ENDBRANCH   3  34
BRANCH   3  39
HETATM   39  N8  UNL     1       0.856   2.603  12.487  1.00  0.00    -0.126 N
HETATM   40  C13 UNL     1       1.982   2.469  11.732  1.00  0.00     0.223 A
HETATM   41  N9  UNL     1       3.142   2.002  12.184  1.00  0.00    -0.187 N
HETATM   42  C14 UNL     1       3.304   1.615  13.436  1.00  0.00     0.691 A
ATOM     43  H9  UNL     1       3.932   1.941  11.543  1.00  0.00     0.185 HD
HETATM   44  N11 UNL     1       2.233   1.703  14.253  1.00  0.00    -0.022 N
HETATM   45  C15 UNL     1       1.070   2.178  13.786  1.00  0.00     0.697 A
ATOM     46  H11 UNL     1       2.309   1.407  15.226  1.00  0.00     0.203 HD
BRANCH  42  47
HETATM   47  N10 UNL     1       4.386   1.162  13.963  1.00  0.00    -0.234 N
ATOM     48 2H10 UNL     1       5.194   1.783  13.938  1.00  0.00     0.174 HD
ATOM     49 1H10 UNL     1       4.514   0.248  14.396  1.00  0.00     0.174 HD
ENDBRANCH  42  47
BRANCH  45  50
HETATM   50  N12 UNL     1       0.106   2.213  14.608  1.00  0.00    -0.234 N
ATOM     51 2H12 UNL     1      -0.193   3.139  14.917  1.00  0.00     0.174 HD
ATOM     52 1H12 UNL     1      -0.304   1.335  14.925  1.00  0.00     0.174 HD
ENDBRANCH  45  50
ENDBRANCH   3  39
TORSDOF 18
ENDMDL