MODEL 4
REMARK VINA RESULT: -6.966403570      2.554      5.379
REMARK  17 active torsions:
REMARK  status: ('A' for Active; 'I' for Inactive)
REMARK    1  A    between atoms: O1_2  and  C2_3
REMARK    2  A    between atoms: C2_3  and  C3_5
REMARK    3  A    between atoms: C3_5  and  C4_6
REMARK    4  A    between atoms: C3_5  and  N1_11
REMARK    5  A    between atoms: C4_6  and  O3_7
REMARK    6  A    between atoms: C4_6  and  O4_9
REMARK    7  A    between atoms: N1_11  and  C5_12
REMARK    8  A    between atoms: N1_11  and  S1_29
REMARK    9  A    between atoms: C6_14  and  C7_15
REMARK   10  A    between atoms: C7_15  and  O6_17
REMARK   11  A    between atoms: C9_19  and  O7_20
REMARK   12  A    between atoms: C11_24  and  N2_25
REMARK   13  A    between atoms: N2_25  and  O9_27
REMARK   14  A    between atoms: S1_29  and  C12_31
REMARK   15  A    between atoms: C13_34  and  N4_35
REMARK   16  A    between atoms: C14_40  and  N6_41
REMARK   17  A    between atoms: N7_44  and  N8_45
ROOT
HETATM    1  N1  UNL     1       1.308   3.518  12.607  1.00  0.00    -0.224 N
ENDROOT
BRANCH   1   2
HETATM    2  C3  UNL     1       1.588   4.816  13.090  1.00  0.00     0.157 C
BRANCH   2   3
HETATM    3  C2  UNL     1       2.264   5.718  12.088  1.00  0.00     0.311 C
HETATM    4  O2  UNL     1       2.069   6.936  12.136  1.00  0.00    -0.258 OA
BRANCH   3   5
HETATM    5  O1  UNL     1       3.091   5.189  11.128  1.00  0.00    -0.322 OA
HETATM    6  C1  UNL     1       3.000   5.396   9.742  1.00  0.00     0.213 C
ENDBRANCH   3   5
ENDBRANCH   2   3
BRANCH   2   7
HETATM    7  C4  UNL     1       2.157   4.961  14.465  1.00  0.00     0.312 C
BRANCH   7   8
HETATM    8  O3  UNL     1       1.601   6.052  15.077  1.00  0.00    -0.366 OA
ATOM      9  H3  UNL     1       2.290   6.635  15.373  1.00  0.00     0.213 HD
ENDBRANCH   7   8
BRANCH   7  10
HETATM   10  O4  UNL     1       3.544   5.185  14.331  1.00  0.00    -0.366 OA
ATOM     11  H4  UNL     1       3.847   5.598  15.131  1.00  0.00     0.213 HD
ENDBRANCH   7  10
ENDBRANCH   2   7
ENDBRANCH   1   2
BRANCH   1  12
HETATM   12  C5  UNL     1       1.859   2.381  13.261  1.00  0.00     0.196 A
HETATM   13  O5  UNL     1       1.090   1.673  14.097  1.00  0.00    -0.289 OA
HETATM   14  C6  UNL     1       1.454   0.630  14.756  1.00  0.00     0.121 A
HETATM   15  C9  UNL     1       2.766   0.181  14.597  1.00  0.00     0.151 A
HETATM   16  C10 UNL     1       3.605   0.875  13.747  1.00  0.00     0.240 A
HETATM   17  O8  UNL     1       4.790   0.483  13.594  1.00  0.00    -0.283 OA
HETATM   18  C11 UNL     1       3.159   1.997  13.058  1.00  0.00     0.159 A
BRANCH  14  19
HETATM   19  C7  UNL     1       0.517  -0.103  15.673  1.00  0.00     0.174 C
HETATM   20  C8  UNL     1       0.154  -1.466  15.101  1.00  0.00     0.046 C
BRANCH  19  21
HETATM   21  O6  UNL     1       1.087  -0.276  16.932  1.00  0.00    -0.389 OA
ATOM     22  H6  UNL     1       2.021  -0.436  16.862  1.00  0.00     0.210 HD
ENDBRANCH  19  21
ENDBRANCH  14  19
BRANCH  15  23
HETATM   23  O7  UNL     1       3.137  -0.930  15.308  1.00  0.00    -0.355 OA
ATOM     24  H7  UNL     1       3.983  -1.311  15.106  1.00  0.00     0.218 HD
ENDBRANCH  15  23
BRANCH  18  25
HETATM   25  N2  UNL     1       4.075   2.680  12.185  1.00  0.00    -0.261 N
ATOM     26  H2  UNL     1       3.961   2.594  11.175  1.00  0.00     0.194 HD
BRANCH  25  27
HETATM   27  O9  UNL     1       5.006   3.374  12.639  1.00  0.00    -0.289 OA
ATOM     28  H9  UNL     1       5.381   4.087  12.135  1.00  0.00     0.244 HD
ENDBRANCH  25  27
ENDBRANCH  18  25
ENDBRANCH   1  12
BRANCH   1  29
HETATM   29  S1  UNL     1       0.027   3.291  11.148  1.00  0.00     0.198 S
HETATM   30  O10 UNL     1       0.587   2.803   9.782  1.00  0.00    -0.226 OA
BRANCH  29  31
HETATM   31  C12 UNL     1      -1.673   2.698  11.825  1.00  0.00     0.249 A
HETATM   32  N3  UNL     1      -1.724   1.568  12.595  1.00  0.00    -0.164 N
HETATM   33  C13 UNL     1      -2.835   1.063  13.094  1.00  0.00     0.692 A
ATOM     34  H3  UNL     1      -0.848   1.087  12.795  1.00  0.00     0.186 HD
HETATM   35  N5  UNL     1      -3.992   1.696  12.833  1.00  0.00    -0.021 N
HETATM   36  C14 UNL     1      -4.017   2.808  12.088  1.00  0.00     0.713 A
ATOM     37  H5  UNL     1      -4.864   1.322  13.208  1.00  0.00     0.203 HD
HETATM   38  N7  UNL     1      -2.861   3.284  11.602  1.00  0.00    -0.065 N
BRANCH  33  39
HETATM   39  N4  UNL     1      -2.882  -0.011  13.825  1.00  0.00    -0.234 N
ATOM     40  H42 UNL     1      -2.004  -0.366  14.204  1.00  0.00     0.174 HD
ATOM     41  H41 UNL     1      -3.740  -0.518  14.040  1.00  0.00     0.174 HD
ENDBRANCH  33  39
BRANCH  36  42
HETATM   42  N6  UNL     1      -5.145   3.392  11.846  1.00  0.00    -0.232 N
ATOM     43  H62 UNL     1      -5.803   3.019  11.161  1.00  0.00     0.174 HD
ATOM     44  H61 UNL     1      -5.394   4.241  12.352  1.00  0.00     0.174 HD
ENDBRANCH  36  42
BRANCH  38  45
HETATM   45  N8  UNL     1      -2.869   4.450  10.819  1.00  0.00    -0.322 N
ATOM     46  H82 UNL     1      -1.984   4.876  10.544  1.00  0.00     0.178 HD
ATOM     47  H81 UNL     1      -3.778   4.830  10.552  1.00  0.00     0.178 HD
ENDBRANCH  38  45
ENDBRANCH  29  31
ENDBRANCH   1  29
TORSDOF 17
ENDMDL