MODEL 3
REMARK VINA RESULT: -7.778787733      2.236      3.352
REMARK  15 active torsions:
REMARK  status: ('A' for Active; 'I' for Inactive)
REMARK    1  A    between atoms: O1_2  and  C2_3
REMARK    2  A    between atoms: C2_3  and  O2_4
REMARK    3  A    between atoms: C2_3  and  C3_6
REMARK    4  A    between atoms: C3_6  and  C4_7
REMARK    5  A    between atoms: C3_6  and  N1_13
REMARK    6  A    between atoms: C4_7  and  O3_8
REMARK    7  A    between atoms: C4_7  and  C5_10
REMARK    8  A    between atoms: C5_10  and  O4_11
REMARK    9  A    between atoms: C6_18  and  C7_19
REMARK   10  A    between atoms: C7_19  and  N4_20
REMARK   11  A    between atoms: C9_28  and  C10_29
REMARK   12  A    between atoms: C11_30  and  O5_31
REMARK   13  A    between atoms: C12_35  and  N9_36
REMARK   14  A    between atoms: C13_41  and  N11_42
REMARK   15  A    between atoms: C14_45  and  O6_46
ROOT
HETATM    1  N4  UNL     1       1.775   6.447   9.138  1.00  0.00    -0.221 N
HETATM    2  N5  UNL     1       1.377   5.498   8.303  1.00  0.00    -0.222 N
ATOM      3  H5  UNL     1       1.125   5.746   7.346  1.00  0.00     0.209 HD
HETATM    4  N6  UNL     1       1.301   4.235   8.688  1.00  0.00    -0.116 N
ATOM      5  H6  UNL     1       0.991   3.540   8.010  1.00  0.00     0.207 HD
HETATM    6  C8  UNL     1       1.614   3.819   9.936  1.00  0.00     0.711 A
HETATM    7  N7  UNL     1       1.615   2.616  10.547  1.00  0.00    -0.184 N
ATOM      8  H7  UNL     1       1.351   1.727  10.123  1.00  0.00     0.184 HD
HETATM    9  C9  UNL     1       2.026   2.798  11.817  1.00  0.00     0.119 A
HETATM   10  C14 UNL     1       2.272   4.142  11.949  1.00  0.00     0.197 A
HETATM   11  N12 UNL     1       2.023   4.784  10.799  1.00  0.00    -0.069 N
HETATM   12  C15 UNL     1       2.090   6.058  10.376  1.00  0.00     0.365 A
HETATM   13  O7  UNL     1       2.471   6.949  11.186  1.00  0.00    -0.244 OA
ENDROOT
BRANCH   1  14
HETATM   14  C7  UNL     1       1.851   7.811   8.698  1.00  0.00     0.217 C
BRANCH  14  15
HETATM   15  C6  UNL     1       3.244   8.225   8.460  1.00  0.00     0.090 A
HETATM   16  N3  UNL     1       4.228   8.515   9.314  1.00  0.00    -0.285 N
HETATM   17  N2  UNL     1       5.323   8.839   8.683  1.00  0.00    -0.234 N
ATOM     18  H3  UNL     1       4.136   8.486  10.330  1.00  0.00     0.188 HD
HETATM   19  N1  UNL     1       5.103   8.775   7.347  1.00  0.00    -0.227 N
ATOM     20  H2  UNL     1       6.205   9.099   9.125  1.00  0.00     0.209 HD
HETATM   21  C16 UNL     1       3.826   8.398   7.199  1.00  0.00     0.165 A
HETATM   22  N13 UNL     1       3.106   8.189   6.006  1.00  0.00    -0.078 NA
BRANCH  19  23
HETATM   23  C3  UNL     1       6.078   9.062   6.332  1.00  0.00     0.100 C
BRANCH  23  24
HETATM   24  C2  UNL     1       6.518  10.473   6.198  1.00  0.00     0.308 C
BRANCH  24  25
HETATM   25  O1  UNL     1       5.599  11.252   5.561  1.00  0.00    -0.361 OA
HETATM   26  C1  UNL     1       5.219  10.662   4.365  1.00  0.00     0.205 C
ENDBRANCH  24  25
BRANCH  24  27
HETATM   27  O2  UNL     1       7.056  11.033   7.371  1.00  0.00    -0.366 OA
ATOM     28  H2  UNL     1       7.853  10.619   7.682  1.00  0.00     0.213 HD
ENDBRANCH  24  27
ENDBRANCH  23  24
BRANCH  23  29
HETATM   29  C4  UNL     1       7.220   8.063   6.276  1.00  0.00     0.194 C
BRANCH  29  30
HETATM   30  O3  UNL     1       7.453   7.470   7.500  1.00  0.00    -0.387 OA
ATOM     31  H3  UNL     1       8.020   6.711   7.429  1.00  0.00     0.210 HD
ENDBRANCH  29  30
BRANCH  29  32
HETATM   32  C5  UNL     1       8.456   8.751   5.729  1.00  0.00     0.202 C
BRANCH  32  33
HETATM   33  O4  UNL     1       9.399   8.841   6.725  1.00  0.00    -0.398 OA
ATOM     34  H4  UNL     1       8.963   9.016   7.551  1.00  0.00     0.209 HD
ENDBRANCH  32  33
ENDBRANCH  29  32
ENDBRANCH  23  29
ENDBRANCH  19  23
ENDBRANCH  14  15
ENDBRANCH   1  14
BRANCH  10  35
HETATM   35  O6  UNL     1       2.714   4.747  13.108  1.00  0.00    -0.344 OA
ATOM     36  H6  UNL     1       3.351   5.451  13.139  1.00  0.00     0.219 HD
ENDBRANCH  10  35
BRANCH   9  37
HETATM   37  C10 UNL     1       2.193   1.815  12.864  1.00  0.00     0.091 A
HETATM   38  C11 UNL     1       1.131   1.212  13.494  1.00  0.00     0.171 A
HETATM   39  N8  UNL     1       1.345   0.288  14.479  1.00  0.00    -0.170 N
HETATM   40  C12 UNL     1       2.590  -0.049  14.853  1.00  0.00     0.679 A
ATOM     41  H8  UNL     1       0.546  -0.152  14.938  1.00  0.00     0.186 HD
HETATM   42  N10 UNL     1       3.622   0.537  14.242  1.00  0.00    -0.176 N
HETATM   43  C13 UNL     1       3.454   1.450  13.268  1.00  0.00     0.131 A
ATOM     44  H10 UNL     1       4.570   0.284  14.522  1.00  0.00     0.186 HD
BRANCH  38  45
HETATM   45  O5  UNL     1      -0.151   1.563  13.105  1.00  0.00    -0.345 OA
ATOM     46  H5  UNL     1      -0.868   1.393  13.706  1.00  0.00     0.219 HD
ENDBRANCH  38  45
BRANCH  40  47
HETATM   47  N9  UNL     1       2.755  -0.934  15.797  1.00  0.00    -0.234 N
ATOM     48  H92 UNL     1       2.359  -0.813  16.729  1.00  0.00     0.174 HD
ATOM     49  H91 UNL     1       3.296  -1.777  15.602  1.00  0.00     0.174 HD
ENDBRANCH  40  47
BRANCH  43  50
HETATM   50  N11 UNL     1       4.474   2.008  12.687  1.00  0.00    -0.384 N
ATOM     51 2H11 UNL     1       4.535   2.064  11.671  1.00  0.00     0.157 HD
ATOM     52 1H11 UNL     1       5.216   2.390  13.273  1.00  0.00     0.157 HD
ENDBRANCH  43  50
ENDBRANCH   9  37
TORSDOF 15
ENDMDL