MODEL 3
REMARK VINA RESULT: -7.628284039      2.212      5.994
REMARK  15 active torsions:
REMARK  status: ('A' for Active; 'I' for Inactive)
REMARK       I    between atoms: C1_2  and  N1_3
REMARK    1  A    between atoms: C1_2  and  C3_14
REMARK    2  A    between atoms: N1_3  and  N2_5
REMARK    3  A    between atoms: N2_5  and  C2_7
REMARK    4  A    between atoms: N9_19  and  C4_20
REMARK    5  A    between atoms: C4_20  and  C5_21
REMARK    6  A    between atoms: C5_21  and  O2_22
REMARK    7  A    between atoms: C5_21  and  N10_24
REMARK    8  A    between atoms: N10_24  and  C6_26
REMARK    9  A    between atoms: C10_32  and  C11_33
REMARK   10  A    between atoms: C11_33  and  O3_34
REMARK   11  A    between atoms: C11_33  and  C12_36
REMARK   12  A    between atoms: C12_36  and  O4_37
REMARK   13  A    between atoms: C13_39  and  O5_40
REMARK   14  A    between atoms: C15_43  and  O6_44
REMARK   15  A    between atoms: C16_49  and  O8_50
ROOT
HETATM    1  C5  UNL     1      -4.414   3.969  10.614  1.00  0.00     0.240 C
ENDROOT
BRANCH   1   2
HETATM    2  C4  UNL     1      -4.242   5.464  10.795  1.00  0.00     0.206 C
BRANCH   2   3
HETATM    3  N9  UNL     1      -3.430   5.768  11.939  1.00  0.00    -0.250 N
HETATM    4  N8  UNL     1      -3.818   5.962  13.179  1.00  0.00    -0.238 N
HETATM    5  N7  UNL     1      -2.773   6.225  13.941  1.00  0.00    -0.277 N
ATOM      6  H8  UNL     1      -4.783   5.917  13.505  1.00  0.00     0.208 HD
HETATM    7  C3  UNL     1      -1.644   6.200  13.156  1.00  0.00     0.171 A
ATOM      8  H7  UNL     1      -2.799   6.415  14.943  1.00  0.00     0.189 HD
HETATM    9  C16 UNL     1      -2.075   5.907  11.886  1.00  0.00     0.193 A
BRANCH   7  10
HETATM   10  C1  UNL     1      -0.293   6.453  13.588  1.00  0.00     0.292 C
HETATM   11  O1  UNL     1       0.236   7.568  13.200  1.00  0.00    -0.264 OA
HETATM   12  N1  UNL     1       0.474   5.589  14.383  1.00  0.00    -0.262 N
ATOM     13  H1  UNL     1       0.067   4.709  14.700  1.00  0.00     0.190 HD
BRANCH  12  14
HETATM   14  N2  UNL     1       1.778   5.907  14.747  1.00  0.00    -0.266 N
ATOM     15  H2  UNL     1       1.931   6.352  15.652  1.00  0.00     0.190 HD
BRANCH  14  16
HETATM   16  C2  UNL     1       2.895   5.649  13.936  1.00  0.00     0.224 C
HETATM   17  N3  UNL     1       4.018   5.148  14.282  1.00  0.00    -0.255 N
HETATM   18  N4  UNL     1       4.867   5.053  13.183  1.00  0.00    -0.006 NA
ATOM     19  H3  UNL     1       4.258   4.858  15.230  1.00  0.00     0.187 HD
HETATM   20  N5  UNL     1       4.329   5.861  12.183  1.00  0.00    -0.006 NA
HETATM   21  N6  UNL     1       2.976   5.911  12.517  1.00  0.00    -0.255 N
ATOM     22  H6  UNL     1       2.197   6.095  11.885  1.00  0.00     0.187 HD
ENDBRANCH  14  16
ENDBRANCH  12  14
ENDBRANCH   7  10
BRANCH   9  23
HETATM   23  O8  UNL     1      -1.329   5.767  10.722  1.00  0.00    -0.343 OA
ATOM     24  H8  UNL     1      -1.574   5.355   9.903  1.00  0.00     0.219 HD
ENDBRANCH   9  23
ENDBRANCH   2   3
ENDBRANCH   1   2
BRANCH   1  25
HETATM   25  O2  UNL     1      -5.098   3.408  11.680  1.00  0.00    -0.375 OA
ATOM     26  H2  UNL     1      -4.838   2.505  11.821  1.00  0.00     0.212 HD
ENDBRANCH   1  25
BRANCH   1  27
HETATM   27  N10 UNL     1      -3.230   3.269  10.250  1.00  0.00    -0.327 N
ATOM     28  H10 UNL     1      -2.903   3.339   9.287  1.00  0.00     0.165 HD
BRANCH  27  29
HETATM   29  C6  UNL     1      -2.483   2.481  11.155  1.00  0.00     0.246 A
HETATM   30  N11 UNL     1      -1.181   2.578  11.403  1.00  0.00    -0.305 N
HETATM   31  C7  UNL     1      -0.760   1.694  12.307  1.00  0.00     0.142 A
ATOM     32  H11 UNL     1      -0.569   3.257  10.950  1.00  0.00     0.171 HD
HETATM   33  C8  UNL     1       0.536   1.414  12.885  1.00  0.00     0.044 A
HETATM   34  N12 UNL     1      -1.912   1.019  12.618  1.00  0.00    -0.240 N
HETATM   35  C9  UNL     1       0.645   0.331  13.774  1.00  0.00     0.030 A
HETATM   36  C15 UNL     1       1.671   2.136  12.617  1.00  0.00     0.082 A
HETATM   37  C10 UNL     1       1.860   0.022  14.344  1.00  0.00     0.007 A
HETATM   38  C13 UNL     1       3.003   0.749  14.073  1.00  0.00     0.077 A
HETATM   39  C14 UNL     1       2.903   1.789  13.222  1.00  0.00     0.074 A
HETATM   40  O7  UNL     1      -2.902   1.499  11.931  1.00  0.00    -0.199 OA
ATOM     41  H12 UNL     1      -1.981   0.254  13.290  1.00  0.00     0.196 HD
BRANCH  37  42
HETATM   42  C11 UNL     1       1.981  -1.135  15.291  1.00  0.00     0.177 C
BRANCH  42  43
HETATM   43  O3  UNL     1       2.111  -0.592  16.583  1.00  0.00    -0.389 OA
ATOM     44  H3  UNL     1       2.004  -1.310  17.196  1.00  0.00     0.210 HD
ENDBRANCH  42  43
BRANCH  42  45
HETATM   45  C12 UNL     1       0.758  -2.030  15.249  1.00  0.00     0.200 C
BRANCH  45  46
HETATM   46  O4  UNL     1       0.217  -2.245  16.502  1.00  0.00    -0.398 OA
ATOM     47  H4  UNL     1      -0.657  -1.885  16.587  1.00  0.00     0.209 HD
ENDBRANCH  45  46
ENDBRANCH  42  45
ENDBRANCH  37  42
BRANCH  38  48
HETATM   48  O5  UNL     1       4.189   0.359  14.699  1.00  0.00    -0.360 OA
ATOM     49  H5  UNL     1       4.526  -0.510  14.512  1.00  0.00     0.217 HD
ENDBRANCH  38  48
BRANCH  36  50
HETATM   50  O6  UNL     1       1.700   3.214  11.771  1.00  0.00    -0.360 OA
ATOM     51  H6  UNL     1       1.272   4.041  11.961  1.00  0.00     0.217 HD
ENDBRANCH  36  50
ENDBRANCH  27  29
ENDBRANCH   1  27
TORSDOF 15
ENDMDL