MODEL 4
REMARK VINA RESULT: -7.857117582      1.180      1.395
REMARK  16 active torsions:
REMARK  status: ('A' for Active; 'I' for Inactive)
REMARK    1  A    between atoms: N1_1  and  C1_4
REMARK    2  A    between atoms: C2_10  and  N4_11
REMARK    3  A    between atoms: C3_16  and  C4_17
REMARK       I    between atoms: C4_17  and  N7_19
REMARK    4  A    between atoms: N7_19  and  C5_21
REMARK    5  A    between atoms: C7_23  and  C8_24
REMARK    6  A    between atoms: C8_24  and  N8_25
REMARK    7  A    between atoms: N8_25  and  C9_26
REMARK    8  A    between atoms: N8_25  and  N14_44
REMARK    9  A    between atoms: C9_26  and  C10_27
REMARK   10  A    between atoms: C11_32  and  C12_33
REMARK   11  A    between atoms: C12_33  and  N11_34
REMARK   12  A    between atoms: C12_33  and  N12_38
REMARK   13  A    between atoms: N14_44  and  N15_45
REMARK   14  A    between atoms: C13_48  and  O3_49
REMARK   15  A    between atoms: C14_51  and  O4_52
REMARK   16  A    between atoms: C15_54  and  O5_55
ROOT
HETATM    1  C5  UNL     1       2.856   5.255  12.219  1.00  0.00     0.072 A
HETATM    2  C6  UNL     1       3.230   3.937  12.380  1.00  0.00     0.043 A
HETATM    3  C7  UNL     1       2.575   2.985  13.179  1.00  0.00    -0.005 A
HETATM    4  C13 UNL     1       1.465   3.384  13.879  1.00  0.00     0.109 A
HETATM    5  C14 UNL     1       1.046   4.697  13.762  1.00  0.00     0.135 A
HETATM    6  C15 UNL     1       1.719   5.614  12.953  1.00  0.00     0.128 A
ENDROOT
BRANCH   3   7
HETATM    7  C8  UNL     1       3.002   1.599  13.050  1.00  0.00     0.153 C
BRANCH   7   8
HETATM    8  N8  UNL     1       3.495   0.862  14.201  1.00  0.00    -0.203 NA
BRANCH   8   9
HETATM    9  C9  UNL     1       3.009  -0.508  13.945  1.00  0.00     0.189 C
BRANCH   9  10
HETATM   10  C10 UNL     1       1.795  -0.891  14.660  1.00  0.00     0.112 A
HETATM   11  N9  UNL     1       1.794  -1.589  15.840  1.00  0.00    -0.286 N
HETATM   12  N10 UNL     1       0.563  -1.845  16.201  1.00  0.00    -0.284 N
ATOM     13  H9  UNL     1       2.627  -1.866  16.359  1.00  0.00     0.188 HD
HETATM   14  C11 UNL     1      -0.255  -1.324  15.274  1.00  0.00     0.156 A
ATOM     15  H10 UNL     1       0.277  -2.351  17.039  1.00  0.00     0.188 HD
HETATM   16  N13 UNL     1       0.505  -0.743  14.339  1.00  0.00    -0.329 N
ATOM     17  H13 UNL     1       0.155  -0.262  13.511  1.00  0.00     0.168 HD
BRANCH  14  18
HETATM   18  C12 UNL     1      -1.740  -1.398  15.285  1.00  0.00     0.446 C
BRANCH  18  19
HETATM   19  N11 UNL     1      -2.164  -2.445  16.185  1.00  0.00    -0.043 N
ATOM     20 3H11 UNL     1      -1.628  -3.303  16.057  1.00  0.00     0.277 HD
ATOM     21 2H11 UNL     1      -1.902  -2.252  17.152  1.00  0.00     0.277 HD
ATOM     22 1H11 UNL     1      -3.167  -2.598  16.081  1.00  0.00     0.277 HD
ENDBRANCH  18  19
BRANCH  18  23
HETATM   23  N12 UNL     1      -2.202  -1.705  13.970  1.00  0.00    -0.043 N
ATOM     24 3H12 UNL     1      -2.208  -0.887  13.361  1.00  0.00     0.277 HD
ATOM     25 2H12 UNL     1      -1.533  -2.269  13.447  1.00  0.00     0.277 HD
ATOM     26 1H12 UNL     1      -3.119  -2.149  14.034  1.00  0.00     0.277 HD
ENDBRANCH  18  23
ENDBRANCH  14  18
ENDBRANCH   9  10
ENDBRANCH   8   9
BRANCH   8  27
HETATM   27  N14 UNL     1       4.844   0.889  14.306  1.00  0.00    -0.055 NA
BRANCH  27  28
HETATM   28  N15 UNL     1       5.275   0.283  15.506  1.00  0.00    -0.333 N
ATOM     29 2H15 UNL     1       5.161  -0.710  15.709  1.00  0.00     0.173 HD
ATOM     30 1H15 UNL     1       5.708   0.965  16.128  1.00  0.00     0.173 HD
ENDBRANCH  27  28
ENDBRANCH   8  27
ENDBRANCH   7   8
ENDBRANCH   3   7
BRANCH   4  31
HETATM   31  O3  UNL     1       0.788   2.469  14.676  1.00  0.00    -0.357 OA
ATOM     32  H3  UNL     1       1.243   2.045  15.395  1.00  0.00     0.217 HD
ENDBRANCH   4  31
BRANCH   1  33
HETATM   33  N7  UNL     1       3.508   6.208  11.425  1.00  0.00    -0.318 N
HETATM   34  C4  UNL     1       3.034   6.710  10.215  1.00  0.00     0.293 C
HETATM   35  O2  UNL     1       1.908   6.316   9.755  1.00  0.00    -0.264 OA
ATOM     36  H7  UNL     1       4.402   6.563  11.761  1.00  0.00     0.169 HD
BRANCH  34  37
HETATM   37  C3  UNL     1       3.739   7.693   9.364  1.00  0.00     0.207 A
HETATM   38  N6  UNL     1       3.240   8.947   9.196  1.00  0.00    -0.264 N
HETATM   39  N5  UNL     1       4.015   9.590   8.365  1.00  0.00    -0.218 N
ATOM     40  H6  UNL     1       2.402   9.322   9.642  1.00  0.00     0.190 HD
HETATM   41  N4  UNL     1       5.045   8.769   7.970  1.00  0.00    -0.158 N
ATOM     42  H5  UNL     1       3.878  10.552   8.057  1.00  0.00     0.210 HD
HETATM   43  N16 UNL     1       4.814   7.645   8.608  1.00  0.00    -0.255 N
ATOM     44  H16 UNL     1       5.407   6.820   8.525  1.00  0.00     0.191 HD
BRANCH  41  45
HETATM   45  C2  UNL     1       6.017   9.203   7.030  1.00  0.00     0.214 A
HETATM   46  C1  UNL     1       5.987   9.458   5.698  1.00  0.00     0.171 A
HETATM   47  N2  UNL     1       7.254   9.834   5.356  1.00  0.00    -0.222 N
HETATM   48  O1  UNL     1       8.001   9.802   6.434  1.00  0.00    -0.153 OA
ATOM     49  H2  UNL     1       7.567  10.095   4.421  1.00  0.00     0.198 HD
HETATM   50  N3  UNL     1       7.308   9.430   7.445  1.00  0.00    -0.219 N
ATOM     51  H3  UNL     1       7.655   9.321   8.398  1.00  0.00     0.198 HD
BRANCH  46  52
HETATM   52  N1  UNL     1       4.962   9.354   4.932  1.00  0.00    -0.381 N
ATOM     53  H12 UNL     1       4.948   9.509   3.924  1.00  0.00     0.157 HD
ATOM     54  H11 UNL     1       4.007   9.109   5.194  1.00  0.00     0.157 HD
ENDBRANCH  46  52
ENDBRANCH  41  45
ENDBRANCH  34  37
ENDBRANCH   1  33
BRANCH   5  55
HETATM   55  O4  UNL     1      -0.066   5.095  14.470  1.00  0.00    -0.356 OA
ATOM     56  H4  UNL     1       0.062   5.511  15.315  1.00  0.00     0.218 HD
ENDBRANCH   5  55
BRANCH   6  57
HETATM   57  O5  UNL     1       1.313   6.925  12.830  1.00  0.00    -0.356 OA
ATOM     58  H5  UNL     1       0.787   7.126  12.065  1.00  0.00     0.218 HD
ENDBRANCH   6  57
TORSDOF 16
ENDMDL