MODEL 1
REMARK VINA RESULT: -9.401529076      0.000      0.000
REMARK  18 active torsions:
REMARK  status: ('A' for Active; 'I' for Inactive)
REMARK    1  A    between atoms: C2_2  and  O1_4
REMARK    2  A    between atoms: C2_2  and  C4_6
REMARK    3  A    between atoms: C5_7  and  O2_8
REMARK    4  A    between atoms: C6_10  and  O3_11
REMARK    5  A    between atoms: C7_13  and  O4_14
REMARK    6  A    between atoms: N1_16  and  C8_17
REMARK    7  A    between atoms: N3_22  and  O5_23
REMARK    8  A    between atoms: N6_30  and  C12_31
REMARK    9  A    between atoms: C12_31  and  C13_32
REMARK   10  A    between atoms: C13_32  and  O6_33
REMARK   11  A    between atoms: C13_32  and  C14_35
REMARK   12  A    between atoms: C14_35  and  O7_36
REMARK   13  A    between atoms: C14_35  and  C15_38
REMARK   14  A    between atoms: C15_38  and  O8_39
REMARK   15  A    between atoms: C15_38  and  C16_41
REMARK   16  A    between atoms: C16_41  and  O9_42
REMARK   17  A    between atoms: C16_41  and  C17_44
REMARK   18  A    between atoms: C17_44  and  O10_45
ROOT
HETATM    1  C8  UNL     1     -24.307 -11.832  -5.322  1.00  0.00     0.721 A
HETATM    2  N2  UNL     1     -25.256 -11.848  -4.385  1.00  0.00    -0.167 N
ATOM      3  H2  UNL     1     -25.088 -11.917  -3.381  1.00  0.00     0.186 HD
HETATM    4  C9  UNL     1     -26.453 -11.759  -4.955  1.00  0.00     0.210 A
HETATM    5  C10 UNL     1     -26.208 -11.685  -6.312  1.00  0.00     0.214 A
HETATM    6  N3  UNL     1     -24.862 -11.731  -6.539  1.00  0.00    -0.029 N
HETATM    7  N4  UNL     1     -27.338 -11.581  -7.189  1.00  0.00    -0.266 N
ATOM      8  H4  UNL     1     -27.211 -11.522  -8.198  1.00  0.00     0.189 HD
HETATM    9  N5  UNL     1     -28.619 -11.562  -6.628  1.00  0.00    -0.127 N
ATOM     10  H5  UNL     1     -29.420 -11.489  -7.256  1.00  0.00     0.206 HD
HETATM   11  C11 UNL     1     -28.842 -11.631  -5.360  1.00  0.00     0.739 A
HETATM   12  N6  UNL     1     -30.058 -11.628  -4.565  1.00  0.00    -0.102 N
HETATM   13  N7  UNL     1     -29.615 -11.729  -3.271  1.00  0.00    -0.210 N
ATOM     14  H7  UNL     1     -30.243 -11.752  -2.468  1.00  0.00     0.210 HD
HETATM   15  N8  UNL     1     -28.351 -11.789  -3.167  1.00  0.00    -0.204 N
ATOM     16  H8  UNL     1     -27.836 -11.866  -2.290  1.00  0.00     0.211 HD
HETATM   17  N9  UNL     1     -27.774 -11.735  -4.436  1.00  0.00    -0.047 N
ENDROOT
BRANCH   1  18
HETATM   18  N1  UNL     1     -22.919 -11.937  -5.087  1.00  0.00    -0.119 N
HETATM   19  C4  UNL     1     -22.009 -10.971  -5.099  1.00  0.00     0.106 A
HETATM   20  C5  UNL     1     -20.761 -11.579  -4.812  1.00  0.00     0.130 A
HETATM   21  C6  UNL     1     -20.959 -12.899  -4.631  1.00  0.00     0.153 A
HETATM   22  C7  UNL     1     -22.296 -13.140  -4.798  1.00  0.00     0.200 A
BRANCH  19  23
HETATM   23  C2  UNL     1     -22.095  -9.525  -5.339  1.00  0.00     0.097 C
HETATM   24  C1  UNL     1     -23.424  -8.888  -5.279  1.00  0.00     0.052 C
HETATM   25  C3  UNL     1     -21.387  -9.127  -6.628  1.00  0.00     0.052 C
BRANCH  23  26
HETATM   26  O1  UNL     1     -21.320  -8.900  -4.311  1.00  0.00    -0.384 OA
ATOM     27  H1  UNL     1     -20.475  -9.334  -4.327  1.00  0.00     0.211 HD
ENDBRANCH  23  26
ENDBRANCH  19  23
BRANCH  20  28
HETATM   28  O2  UNL     1     -19.546 -10.892  -4.734  1.00  0.00    -0.356 OA
ATOM     29  H2  UNL     1     -18.696 -11.284  -4.896  1.00  0.00     0.218 HD
ENDBRANCH  20  28
BRANCH  21  30
HETATM   30  O3  UNL     1     -20.007 -13.858  -4.331  1.00  0.00    -0.354 OA
ATOM     31  H3  UNL     1     -20.138 -14.796  -4.252  1.00  0.00     0.218 HD
ENDBRANCH  21  30
BRANCH  22  32
HETATM   32  O4  UNL     1     -22.974 -14.333  -4.712  1.00  0.00    -0.343 OA
ATOM     33  H4  UNL     1     -23.792 -14.585  -5.125  1.00  0.00     0.219 HD
ENDBRANCH  22  32
ENDBRANCH   1  18
BRANCH   6  34
HETATM   34  O5  UNL     1     -24.314 -11.677  -7.783  1.00  0.00    -0.268 OA
ATOM     35  H5  UNL     1     -24.624 -11.295  -8.595  1.00  0.00     0.246 HD
ENDBRANCH   6  34
BRANCH  12  36
HETATM   36  C12 UNL     1     -31.345 -11.478  -5.163  1.00  0.00     0.204 C
BRANCH  36  37
HETATM   37  C13 UNL     1     -32.100 -10.223  -4.893  1.00  0.00     0.170 C
BRANCH  37  38
HETATM   38  O6  UNL     1     -31.172  -9.222  -4.445  1.00  0.00    -0.391 OA
ATOM     39  H6  UNL     1     -30.874  -9.457  -3.574  1.00  0.00     0.210 HD
ENDBRANCH  37  38
BRANCH  37  40
HETATM   40  C14 UNL     1     -32.555  -9.637  -6.245  1.00  0.00     0.179 C
BRANCH  40  41
HETATM   41  O7  UNL     1     -33.426 -10.626  -6.788  1.00  0.00    -0.390 OA
ATOM     42  H7  UNL     1     -34.056 -10.132  -7.300  1.00  0.00     0.210 HD
ENDBRANCH  40  41
BRANCH  40  43
HETATM   43  C15 UNL     1     -33.292  -8.360  -6.115  1.00  0.00     0.180 C
BRANCH  43  44
HETATM   44  O8  UNL     1     -34.665  -8.526  -5.969  1.00  0.00    -0.390 OA
ATOM     45  H8  UNL     1     -35.138  -7.706  -5.888  1.00  0.00     0.210 HD
ENDBRANCH  43  44
BRANCH  43  46
HETATM   46  C16 UNL     1     -32.804  -7.273  -5.259  1.00  0.00     0.173 C
BRANCH  46  47
HETATM   47  O9  UNL     1     -31.714  -6.563  -5.726  1.00  0.00    -0.391 OA
ATOM     48  H9  UNL     1     -31.860  -5.647  -5.928  1.00  0.00     0.210 HD
ENDBRANCH  46  47
BRANCH  46  49
HETATM   49  C17 UNL     1     -33.909  -6.330  -4.793  1.00  0.00     0.198 C
BRANCH  49  50
HETATM   50  O10 UNL     1     -34.562  -6.931  -3.747  1.00  0.00    -0.398 OA
ATOM     51  H10 UNL     1     -34.958  -7.731  -4.072  1.00  0.00     0.209 HD
ENDBRANCH  49  50
ENDBRANCH  46  49
ENDBRANCH  43  46
ENDBRANCH  40  43
ENDBRANCH  37  40
ENDBRANCH  36  37
ENDBRANCH  12  36
TORSDOF 18
ENDMDL