MODEL 1
REMARK VINA RESULT: -9.194264471      0.000      0.000
REMARK  15 active torsions:
REMARK  status: ('A' for Active; 'I' for Inactive)
REMARK    1  A    between atoms: N1_1  and  C1_4
REMARK    2  A    between atoms: C3_9  and  N4_10
REMARK    3  A    between atoms: C4_15  and  O1_16
REMARK    4  A    between atoms: C4_15  and  C5_18
REMARK    5  A    between atoms: C5_18  and  O2_19
REMARK    6  A    between atoms: C5_18  and  N6_21
REMARK    7  A    between atoms: N6_21  and  N7_22
REMARK    8  A    between atoms: N10_30  and  C7_31
REMARK    9  A    between atoms: C7_31  and  C8_32
REMARK   10  A    between atoms: C8_32  and  O3_33
REMARK   11  A    between atoms: C8_32  and  C9_35
REMARK   12  A    between atoms: C9_35  and  O4_36
REMARK   13  A    between atoms: O4_36  and  C10_37
REMARK   14  A    between atoms: C13_40  and  C14_41
REMARK   15  A    between atoms: C14_41  and  C15_42
ROOT
HETATM    1  C1  UNL     1     -19.753 -14.226  -5.218  1.00  0.00     0.705 A
HETATM    2  N2  UNL     1     -21.072 -14.400  -5.379  1.00  0.00    -0.021 N
ATOM      3  H2  UNL     1     -21.445 -15.324  -5.594  1.00  0.00     0.203 HD
HETATM    4  C2  UNL     1     -21.912 -13.333  -5.252  1.00  0.00     0.718 A
HETATM    5  N3  UNL     1     -21.429 -12.086  -4.968  1.00  0.00     0.031 N
HETATM    6  C3  UNL     1     -20.104 -11.919  -4.803  1.00  0.00     0.710 A
HETATM    7  N5  UNL     1     -19.282 -13.001  -4.933  1.00  0.00    -0.022 N
ATOM      8  H5  UNL     1     -18.277 -12.875  -4.810  1.00  0.00     0.203 HD
HETATM    9  C4  UNL     1     -22.296 -10.962  -4.923  1.00  0.00     0.264 C
HETATM   10  C6  UNL     1     -23.756 -11.379  -4.743  1.00  0.00     0.134 A
HETATM   11  N8  UNL     1     -24.830 -10.639  -4.421  1.00  0.00    -0.282 N
ATOM     12  H8  UNL     1     -24.822  -9.653  -4.159  1.00  0.00     0.188 HD
HETATM   13  N9  UNL     1     -25.919 -11.426  -4.503  1.00  0.00    -0.238 N
ATOM     14  H9  UNL     1     -26.871 -11.117  -4.310  1.00  0.00     0.208 HD
HETATM   15  N10 UNL     1     -25.587 -12.646  -4.865  1.00  0.00    -0.257 N
HETATM   16  C17 UNL     1     -24.226 -12.625  -5.017  1.00  0.00     0.168 A
HETATM   17  N16 UNL     1     -23.303 -13.639  -5.285  1.00  0.00    -0.172 N
ATOM     18  H16 UNL     1     -23.620 -14.584  -5.502  1.00  0.00     0.186 HD
ENDROOT
BRANCH  15  19
HETATM   19  C7  UNL     1     -26.399 -13.824  -5.085  1.00  0.00     0.186 C
BRANCH  19  20
HETATM   20  C8  UNL     1     -27.509 -13.573  -6.077  1.00  0.00     0.162 C
BRANCH  20  21
HETATM   21  O3  UNL     1     -27.280 -12.487  -6.882  1.00  0.00    -0.392 OA
ATOM     22  H3  UNL     1     -26.613 -12.643  -7.540  1.00  0.00     0.210 HD
ENDBRANCH  20  21
BRANCH  20  23
HETATM   23  C9  UNL     1     -28.822 -13.442  -5.302  1.00  0.00     0.210 C
BRANCH  23  24
HETATM   24  O4  UNL     1     -28.939 -12.094  -4.819  1.00  0.00    -0.333 OA
BRANCH  24  25
HETATM   25  C10 UNL     1     -29.947 -11.301  -5.345  1.00  0.00     0.141 A
HETATM   26  C11 UNL     1     -31.223 -11.434  -4.859  1.00  0.00     0.056 A
HETATM   27  C12 UNL     1     -32.279 -10.671  -5.341  1.00  0.00     0.013 A
HETATM   28  C13 UNL     1     -32.001  -9.765  -6.330  1.00  0.00    -0.035 A
HETATM   29  C16 UNL     1     -30.731  -9.627  -6.819  1.00  0.00     0.097 A
HETATM   30  N15 UNL     1     -29.731 -10.400  -6.312  1.00  0.00    -0.346 N
ATOM     31  H15 UNL     1     -28.787 -10.289  -6.681  1.00  0.00     0.167 HD
BRANCH  28  32
HETATM   32  C14 UNL     1     -33.094  -8.932  -6.872  1.00  0.00     0.118 C
BRANCH  32  33
HETATM   33  C15 UNL     1     -33.450  -7.935  -5.835  1.00  0.00     0.111 A
HETATM   34  N11 UNL     1     -34.478  -8.000  -4.992  1.00  0.00    -0.274 N
HETATM   35  N12 UNL     1     -34.491  -6.938  -4.205  1.00  0.00    -0.007 NA
ATOM     36  H11 UNL     1     -35.158  -8.760  -4.957  1.00  0.00     0.185 HD
HETATM   37  N13 UNL     1     -33.454  -6.199  -4.563  1.00  0.00    -0.007 NA
HETATM   38  N14 UNL     1     -32.796  -6.793  -5.567  1.00  0.00    -0.274 N
ATOM     39  H14 UNL     1     -31.960  -6.446  -6.036  1.00  0.00     0.185 HD
ENDBRANCH  32  33
ENDBRANCH  28  32
ENDBRANCH  24  25
ENDBRANCH  23  24
ENDBRANCH  20  23
ENDBRANCH  19  20
ENDBRANCH  15  19
BRANCH   9  40
HETATM   40  O1  UNL     1     -21.951 -10.082  -3.923  1.00  0.00    -0.361 OA
ATOM     41  H1  UNL     1     -22.353 -10.310  -3.092  1.00  0.00     0.213 HD
ENDBRANCH   9  40
BRANCH   9  42
HETATM   42  C5  UNL     1     -22.347 -10.161  -6.238  1.00  0.00     0.294 C
BRANCH  42  43
HETATM   43  O2  UNL     1     -23.358 -10.805  -6.990  1.00  0.00    -0.373 OA
ATOM     44  H2  UNL     1     -23.094 -10.668  -7.892  1.00  0.00     0.212 HD
ENDBRANCH  42  43
BRANCH  42  45
HETATM   45  N6  UNL     1     -22.694  -8.804  -6.133  1.00  0.00    -0.111 NA
BRANCH  45  46
HETATM   46  N7  UNL     1     -21.586  -7.997  -5.759  1.00  0.00    -0.346 N
ATOM     47  H72 UNL     1     -20.897  -7.651  -6.428  1.00  0.00     0.172 HD
ATOM     48  H71 UNL     1     -21.568  -7.812  -4.756  1.00  0.00     0.172 HD
ENDBRANCH  45  46
ENDBRANCH  42  45
ENDBRANCH   9  42
BRANCH   6  49
HETATM   49  N4  UNL     1     -19.590 -10.784  -4.471  1.00  0.00    -0.233 N
ATOM     50  H42 UNL     1     -19.542 -10.536  -3.482  1.00  0.00     0.174 HD
ATOM     51  H41 UNL     1     -19.270 -10.107  -5.164  1.00  0.00     0.174 HD
ENDBRANCH   6  49
BRANCH   1  52
HETATM   52  N1  UNL     1     -18.899 -15.213  -5.330  1.00  0.00    -0.234 N
ATOM     53  H12 UNL     1     -19.255 -16.168  -5.306  1.00  0.00     0.174 HD
ATOM     54  H11 UNL     1     -17.896 -15.055  -5.438  1.00  0.00     0.174 HD
ENDBRANCH   1  52
TORSDOF 15
ENDMDL