MODEL 1
REMARK VINA RESULT: -9.091816731      0.000      0.000
REMARK  10 active torsions:
REMARK  status: ('A' for Active; 'I' for Inactive)
REMARK    1  A    between atoms: C1_2  and  C2_4
REMARK    2  A    between atoms: C2_4  and  C3_5
REMARK    3  A    between atoms: C2_4  and  C8_25
REMARK       I    between atoms: C3_5  and  N2_7
REMARK    4  A    between atoms: N2_7  and  N3_9
REMARK    5  A    between atoms: N3_9  and  N4_11
REMARK       I    between atoms: N4_11  and  C4_13
REMARK       I    between atoms: C4_13  and  N5_15
REMARK    6  A    between atoms: C6_19  and  O4_20
REMARK    7  A    between atoms: C7_22  and  O5_23
REMARK    8  A    between atoms: C9_28  and  N8_29
REMARK    9  A    between atoms: N8_29  and  C10_31
REMARK   10  A    between atoms: C13_40  and  N12_41
REMARK       I    between atoms: N12_41  and  C14_43
REMARK       I    between atoms: C14_43  and  N13_44
REMARK       I    between atoms: C14_43  and  N14_48
ROOT
HETATM    1  C8  UNL     1     -29.594 -11.821  -5.887  1.00  0.00     0.135 A
HETATM    2  N7  UNL     1     -30.531 -12.792  -5.692  1.00  0.00    -0.178 N
ATOM      3  H7  UNL     1     -30.232 -13.741  -5.470  1.00  0.00     0.185 HD
HETATM    4  C9  UNL     1     -31.838 -12.520  -5.790  1.00  0.00     0.700 A
HETATM    5  N11 UNL     1     -32.233 -11.276  -6.078  1.00  0.00    -0.022 N
ATOM      6  H11 UNL     1     -33.231 -11.078  -6.149  1.00  0.00     0.203 HD
HETATM    7  C13 UNL     1     -31.344 -10.263  -6.281  1.00  0.00     0.697 A
HETATM    8  N15 UNL     1     -30.045 -10.590  -6.175  1.00  0.00    -0.178 N
ATOM      9  H15 UNL     1     -29.356  -9.853  -6.322  1.00  0.00     0.185 HD
ENDROOT
BRANCH   1  10
HETATM   10  C2  UNL     1     -28.184 -12.192  -5.788  1.00  0.00     0.237 C
BRANCH  10  11
HETATM   11  C1  UNL     1     -27.827 -12.479  -4.384  1.00  0.00     0.251 C
HETATM   12  N1  UNL     1     -28.571 -11.903  -3.330  1.00  0.00    -0.061 NA
HETATM   13  O1  UNL     1     -26.868 -13.235  -4.120  1.00  0.00    -0.275 OA
ENDBRANCH  10  11
BRANCH  10  14
HETATM   14  C3  UNL     1     -27.223 -11.311  -6.450  1.00  0.00     0.258 C
HETATM   15  O2  UNL     1     -27.056 -11.307  -7.664  1.00  0.00    -0.270 OA
HETATM   16  N2  UNL     1     -26.433 -10.406  -5.638  1.00  0.00    -0.240 N
ATOM     17  H2  UNL     1     -26.589 -10.401  -4.631  1.00  0.00     0.192 HD
BRANCH  16  18
HETATM   18  N3  UNL     1     -25.509  -9.576  -6.141  1.00  0.00    -0.149 N
HETATM   19  S1  UNL     1     -25.934  -7.866  -6.111  1.00  0.00     0.089 SA
BRANCH  18  20
HETATM   20  N4  UNL     1     -24.204  -9.808  -5.845  1.00  0.00    -0.222 N
HETATM   21  C4  UNL     1     -23.562 -11.052  -5.771  1.00  0.00     0.350 C
HETATM   22  O3  UNL     1     -24.081 -12.185  -5.973  1.00  0.00    -0.244 OA
HETATM   23  N5  UNL     1     -22.150 -11.052  -5.423  1.00  0.00    -0.235 N
HETATM   24  C5  UNL     1     -21.347 -10.020  -5.175  1.00  0.00     0.197 A
HETATM   25  C7  UNL     1     -21.406 -12.154  -5.255  1.00  0.00     0.204 A
HETATM   26  N6  UNL     1     -20.100 -10.453  -4.852  1.00  0.00    -0.329 N
HETATM   27  C6  UNL     1     -20.119 -11.796  -4.898  1.00  0.00     0.194 A
ATOM     28  H6  UNL     1     -19.299  -9.868  -4.617  1.00  0.00     0.168 HD
ATOM     29  H4  UNL     1     -23.628  -8.987  -5.655  1.00  0.00     0.194 HD
BRANCH  27  30
HETATM   30  O4  UNL     1     -19.054 -12.683  -4.635  1.00  0.00    -0.343 OA
ATOM     31  H4  UNL     1     -18.619 -13.266  -5.247  1.00  0.00     0.219 HD
ENDBRANCH  27  30
BRANCH  25  32
HETATM   32  O5  UNL     1     -21.828 -13.484  -5.410  1.00  0.00    -0.342 OA
ATOM     33  H5  UNL     1     -22.593 -13.887  -5.017  1.00  0.00     0.219 HD
ENDBRANCH  25  32
ENDBRANCH  18  20
ENDBRANCH  16  18
ENDBRANCH  10  14
ENDBRANCH   1  10
BRANCH   4  34
HETATM   34  N8  UNL     1     -32.780 -13.556  -5.595  1.00  0.00    -0.161 N
ATOM     35  H8  UNL     1     -33.323 -13.892  -6.391  1.00  0.00     0.187 HD
BRANCH  34  36
HETATM   36  C10 UNL     1     -32.992 -14.152  -4.290  1.00  0.00     0.190 A
HETATM   37  N9  UNL     1     -32.781 -13.585  -3.158  1.00  0.00    -0.360 N
HETATM   38  C11 UNL     1     -33.077 -14.413  -2.023  1.00  0.00     0.142 A
ATOM     39  H9  UNL     1     -32.433 -12.629  -3.072  1.00  0.00     0.162 HD
HETATM   40  C12 UNL     1     -33.498 -15.730  -2.607  1.00  0.00     0.142 A
HETATM   41  N10 UNL     1     -33.470 -15.461  -4.049  1.00  0.00    -0.360 N
ATOM     42  H10 UNL     1     -33.754 -16.122  -4.773  1.00  0.00     0.162 HD
ENDBRANCH  34  36
ENDBRANCH   4  34
BRANCH   7  43
HETATM   43  N12 UNL     1     -31.710  -9.058  -6.568  1.00  0.00    -0.173 N
HETATM   44  C14 UNL     1     -32.604  -8.300  -5.731  1.00  0.00     0.494 C
HETATM   45  N13 UNL     1     -33.986  -8.702  -5.954  1.00  0.00    -0.032 N
HETATM   46  N14 UNL     1     -32.318  -8.335  -4.334  1.00  0.00    -0.032 N
ATOM     47 3H13 UNL     1     -34.245  -8.637  -6.938  1.00  0.00     0.278 HD
ATOM     48 2H13 UNL     1     -34.112  -9.707  -5.828  1.00  0.00     0.278 HD
ATOM     49 1H13 UNL     1     -34.619  -8.165  -5.361  1.00  0.00     0.278 HD
ATOM     50 3H14 UNL     1     -32.274  -9.301  -4.011  1.00  0.00     0.278 HD
ATOM     51 2H14 UNL     1     -31.354  -8.045  -4.168  1.00  0.00     0.278 HD
ATOM     52 1H14 UNL     1     -32.951  -7.797  -3.741  1.00  0.00     0.278 HD
ATOM     53  H12 UNL     1     -31.353  -8.627  -7.420  1.00  0.00     0.181 HD
ENDBRANCH   7  43
TORSDOF 10
ENDMDL