MODEL 2
REMARK VINA RESULT: -7.878137291      4.463      8.983
REMARK  16 active torsions:
REMARK  status: ('A' for Active; 'I' for Inactive)
REMARK    1  A    between atoms: C2_2  and  O1_4
REMARK    2  A    between atoms: C2_2  and  C4_6
REMARK    3  A    between atoms: C4_6  and  O2_7
REMARK    4  A    between atoms: C4_6  and  N1_9
REMARK    5  A    between atoms: N1_9  and  C5_11
REMARK    6  A    between atoms: C6_14  and  C7_15
REMARK    7  A    between atoms: N3_17  and  O3_18
REMARK    8  A    between atoms: C11_26  and  O4_27
REMARK    9  A    between atoms: N8_35  and  C13_36
REMARK   10  A    between atoms: C13_36  and  N9_37
REMARK   11  A    between atoms: C13_36  and  C14_41
REMARK   12  A    between atoms: C14_41  and  O5_42
REMARK   13  A    between atoms: C14_41  and  O6_44
REMARK   14  A    between atoms: C15_49  and  C16_50
REMARK   15  A    between atoms: C16_50  and  N11_51
REMARK   16  A    between atoms: C16_50  and  O8_55
ROOT
HETATM    1  C7  UNL     1     -27.029 -11.468  -4.087  1.00  0.00     0.180 C
HETATM    2  C8  UNL     1     -27.588 -12.813  -3.730  1.00  0.00     0.211 C
HETATM    3  N3  UNL     1     -28.795 -12.626  -2.914  1.00  0.00    -0.185 N
HETATM    4  N4  UNL     1     -29.736 -11.566  -2.985  1.00  0.00    -0.219 N
ATOM      5  H4  UNL     1     -30.399 -11.524  -2.210  1.00  0.00     0.210 HD
HETATM    6  N5  UNL     1     -29.880 -10.664  -3.865  1.00  0.00    -0.268 N
ATOM      7  H5  UNL     1     -30.632  -9.990  -3.717  1.00  0.00     0.190 HD
HETATM    8  C9  UNL     1     -29.098 -10.502  -5.031  1.00  0.00     0.150 C
HETATM    9  C10 UNL     1     -29.622  -9.908  -6.238  1.00  0.00     0.150 A
HETATM   10  C11 UNL     1     -28.879  -9.713  -7.408  1.00  0.00     0.187 A
HETATM   11  N6  UNL     1     -29.667  -9.139  -8.310  1.00  0.00    -0.168 N
ATOM     12  H6  UNL     1     -29.394  -8.878  -9.257  1.00  0.00     0.186 HD
HETATM   13  C12 UNL     1     -30.916  -8.954  -7.753  1.00  0.00     0.682 A
HETATM   14  N7  UNL     1     -31.845  -8.409  -8.425  1.00  0.00    -0.234 N
ATOM     15  H71 UNL     1     -32.768  -8.272  -8.013  1.00  0.00     0.174 HD
ATOM     16  H72 UNL     1     -31.893  -8.046  -9.377  1.00  0.00     0.174 HD
HETATM   17  N8  UNL     1     -30.851  -9.440  -6.476  1.00  0.00    -0.140 N
HETATM   18  N10 UNL     1     -27.831 -10.869  -5.105  1.00  0.00    -0.359 N
ATOM     19  H10 UNL     1     -27.369 -10.704  -5.999  1.00  0.00     0.162 HD
ENDROOT
BRANCH   1  20
HETATM   20  C6  UNL     1     -25.604 -11.488  -4.456  1.00  0.00     0.150 A
HETATM   21  N2  UNL     1     -24.882 -12.539  -4.869  1.00  0.00    -0.322 N
HETATM   22  C5  UNL     1     -23.621 -12.209  -5.122  1.00  0.00     0.143 A
ATOM     23  H2  UNL     1     -25.257 -13.481  -4.977  1.00  0.00     0.169 HD
HETATM   24  C15 UNL     1     -23.564 -10.848  -4.841  1.00  0.00     0.154 A
HETATM   25  O7  UNL     1     -24.754 -10.490  -4.458  1.00  0.00    -0.291 OA
BRANCH  22  26
HETATM   26  N1  UNL     1     -22.521 -12.959  -5.566  1.00  0.00    -0.322 N
ATOM     27  H1  UNL     1     -22.239 -12.757  -6.526  1.00  0.00     0.169 HD
BRANCH  26  28
HETATM   28  C4  UNL     1     -21.750 -13.919  -4.942  1.00  0.00     0.151 C
BRANCH  28  29
HETATM   29  C2  UNL     1     -20.442 -13.918  -4.315  1.00  0.00     0.115 C
HETATM   30  C1  UNL     1     -19.473 -14.566  -5.328  1.00  0.00     0.054 C
HETATM   31  C3  UNL     1     -20.458 -14.899  -3.115  1.00  0.00     0.054 C
BRANCH  29  32
HETATM   32  O1  UNL     1     -19.957 -12.753  -3.834  1.00  0.00    -0.382 OA
ATOM     33  H1  UNL     1     -19.082 -12.857  -3.479  1.00  0.00     0.211 HD
ENDBRANCH  29  32
ENDBRANCH  28  29
BRANCH  28  34
HETATM   34  O2  UNL     1     -22.313 -15.111  -4.897  1.00  0.00    -0.347 OA
ATOM     35  H2  UNL     1     -23.238 -15.072  -5.109  1.00  0.00     0.219 HD
ENDBRANCH  28  34
ENDBRANCH  26  28
ENDBRANCH  22  26
BRANCH  24  36
HETATM   36  C16 UNL     1     -22.423  -9.909  -4.930  1.00  0.00     0.378 C
BRANCH  36  37
HETATM   37  N11 UNL     1     -22.061  -9.726  -6.342  1.00  0.00    -0.047 N
ATOM     38 3H11 UNL     1     -22.877  -9.708  -6.953  1.00  0.00     0.277 HD
ATOM     39 2H11 UNL     1     -21.716  -8.786  -6.536  1.00  0.00     0.277 HD
ATOM     40 1H11 UNL     1     -21.392 -10.448  -6.611  1.00  0.00     0.277 HD
ENDBRANCH  36  37
BRANCH  36  41
HETATM   41  O8  UNL     1     -21.301 -10.356  -4.263  1.00  0.00    -0.365 OA
ATOM     42  H8  UNL     1     -21.280 -10.093  -3.350  1.00  0.00     0.212 HD
ENDBRANCH  36  41
ENDBRANCH  24  36
ENDBRANCH   1  20
BRANCH   3  43
HETATM   43  O3  UNL     1     -29.000 -13.595  -1.999  1.00  0.00    -0.271 OA
ATOM     44  H3  UNL     1     -29.344 -13.282  -1.171  1.00  0.00     0.246 HD
ENDBRANCH   3  43
BRANCH  10  45
HETATM   45  O4  UNL     1     -27.548 -10.072  -7.559  1.00  0.00    -0.344 OA
ATOM     46  H4  UNL     1     -27.118 -10.760  -7.065  1.00  0.00     0.219 HD
ENDBRANCH  10  45
BRANCH  17  47
HETATM   47  C13 UNL     1     -31.978  -9.425  -5.594  1.00  0.00     0.359 C
BRANCH  47  48
HETATM   48  N9  UNL     1     -33.073 -10.261  -6.133  1.00  0.00    -0.052 N
ATOM     49  H93 UNL     1     -32.771 -10.805  -6.941  1.00  0.00     0.277 HD
ATOM     50  H92 UNL     1     -33.305 -11.032  -5.507  1.00  0.00     0.277 HD
ATOM     51  H91 UNL     1     -33.890  -9.688  -6.346  1.00  0.00     0.277 HD
ENDBRANCH  47  48
BRANCH  47  52
HETATM   52  C14 UNL     1     -32.549  -8.031  -5.405  1.00  0.00     0.304 C
BRANCH  52  53
HETATM   53  O5  UNL     1     -31.579  -7.054  -5.599  1.00  0.00    -0.368 OA
ATOM     54  H5  UNL     1     -31.891  -6.198  -5.330  1.00  0.00     0.212 HD
ENDBRANCH  52  53
BRANCH  52  55
HETATM   55  O6  UNL     1     -33.151  -7.848  -4.172  1.00  0.00    -0.368 OA
ATOM     56  H6  UNL     1     -33.969  -7.368  -4.220  1.00  0.00     0.212 HD
ENDBRANCH  52  55
ENDBRANCH  47  52
ENDBRANCH  17  47
TORSDOF 16
ENDMDL