MODEL 1
REMARK VINA RESULT: -8.506428315      0.000      0.000
REMARK  17 active torsions:
REMARK  status: ('A' for Active; 'I' for Inactive)
REMARK    1  A    between atoms: N1_1  and  C1_4
REMARK    2  A    between atoms: C3_11  and  S1_12
REMARK    3  A    between atoms: S1_12  and  C4_13
REMARK    4  A    between atoms: C4_13  and  C5_14
REMARK    5  A    between atoms: C5_14  and  O2_15
REMARK    6  A    between atoms: O2_15  and  N4_16
REMARK    7  A    between atoms: N4_16  and  C6_17
REMARK    8  A    between atoms: C8_19  and  O3_20
REMARK    9  A    between atoms: C10_24  and  N6_25
REMARK   10  A    between atoms: N6_25  and  C11_27
REMARK   11  A    between atoms: C11_27  and  O4_28
REMARK   12  A    between atoms: C11_27  and  C12_30
REMARK   13  A    between atoms: C12_30  and  O5_31
REMARK   14  A    between atoms: C12_30  and  O6_33
REMARK   15  A    between atoms: O6_33  and  N7_34
REMARK   16  A    between atoms: C13_37  and  O7_38
REMARK   17  A    between atoms: N10_46  and  N11_47
ROOT
HETATM    1  C6  UNL     1     -29.327 -13.011  -4.748  1.00  0.00     0.162 C
HETATM    2  C7  UNL     1     -29.975 -11.749  -5.321  1.00  0.00     0.072 A
HETATM    3  C8  UNL     1     -29.576 -10.769  -6.175  1.00  0.00     0.108 A
HETATM    4  C9  UNL     1     -30.482  -9.767  -6.543  1.00  0.00     0.109 A
HETATM    5  N5  UNL     1     -30.061  -8.753  -7.430  1.00  0.00    -0.097 NA
HETATM    6  C10 UNL     1     -31.792  -9.757  -6.047  1.00  0.00     0.093 A
HETATM    7  C13 UNL     1     -32.170 -10.754  -5.184  1.00  0.00     0.123 A
HETATM    8  C14 UNL     1     -31.286 -11.755  -4.808  1.00  0.00     0.103 A
HETATM    9  N8  UNL     1     -31.405 -12.899  -3.951  1.00  0.00    -0.272 N
HETATM   10  N9  UNL     1     -31.671 -14.000  -3.178  1.00  0.00    -0.309 N
ATOM     11  H9  UNL     1     -32.527 -14.532  -3.020  1.00  0.00     0.186 HD
HETATM   12  C15 UNL     1     -30.479 -14.136  -2.720  1.00  0.00     0.115 A
HETATM   13  C16 UNL     1     -30.004 -13.026  -3.417  1.00  0.00     0.216 A
ENDROOT
BRANCH   1  14
HETATM   14  N4  UNL     1     -28.561 -13.668  -5.362  1.00  0.00    -0.282 NA
BRANCH  14  15
HETATM   15  O2  UNL     1     -27.741 -14.361  -6.018  1.00  0.00    -0.208 OA
BRANCH  15  16
HETATM   16  C5  UNL     1     -26.332 -14.235  -5.853  1.00  0.00     0.228 C
BRANCH  16  17
HETATM   17  C4  UNL     1     -25.720 -12.982  -6.323  1.00  0.00     0.112 C
BRANCH  17  18
HETATM   18  S1  UNL     1     -25.006 -11.908  -5.115  1.00  0.00    -0.089 SA
BRANCH  18  19
HETATM   19  C3  UNL     1     -25.489 -10.218  -5.156  1.00  0.00     0.187 A
HETATM   20  N3  UNL     1     -24.917  -9.347  -6.000  1.00  0.00    -0.286 N
HETATM   21  C2  UNL     1     -25.306  -8.055  -5.985  1.00  0.00     0.340 A
ATOM     22  H3  UNL     1     -24.194  -9.658  -6.648  1.00  0.00     0.172 HD
HETATM   23  N2  UNL     1     -26.260  -7.646  -5.129  1.00  0.00    -0.140 N
HETATM   24  O1  UNL     1     -24.775  -7.227  -6.773  1.00  0.00    -0.246 OA
HETATM   25  C1  UNL     1     -26.851  -8.498  -4.276  1.00  0.00     0.703 A
ATOM     26  H2  UNL     1     -26.542  -6.666  -5.129  1.00  0.00     0.189 HD
HETATM   27  N10 UNL     1     -26.445  -9.790  -4.307  1.00  0.00    -0.070 N
BRANCH  25  28
HETATM   28  N1  UNL     1     -27.754  -8.058  -3.478  1.00  0.00    -0.233 N
ATOM     29  H12 UNL     1     -27.549  -7.659  -2.562  1.00  0.00     0.174 HD
ATOM     30  H11 UNL     1     -28.732  -8.101  -3.763  1.00  0.00     0.174 HD
ENDBRANCH  25  28
BRANCH  27  31
HETATM   31  N11 UNL     1     -27.037 -10.724  -3.449  1.00  0.00    -0.322 N
ATOM     32 2H11 UNL     1     -27.637 -10.379  -2.699  1.00  0.00     0.178 HD
ATOM     33 1H11 UNL     1     -26.853 -11.719  -3.579  1.00  0.00     0.178 HD
ENDBRANCH  27  31
ENDBRANCH  18  19
ENDBRANCH  17  18
ENDBRANCH  16  17
ENDBRANCH  15  16
ENDBRANCH  14  15
ENDBRANCH   1  14
BRANCH   3  34
HETATM   34  O3  UNL     1     -28.289 -10.770  -6.667  1.00  0.00    -0.358 OA
ATOM     35  H3  UNL     1     -28.127 -10.511  -7.566  1.00  0.00     0.217 HD
ENDBRANCH   3  34
BRANCH   7  36
HETATM   36  O7  UNL     1     -33.425 -10.810  -4.663  1.00  0.00    -0.356 OA
ATOM     37  H7  UNL     1     -33.578 -10.798  -3.725  1.00  0.00     0.218 HD
ENDBRANCH   7  36
BRANCH   6  38
HETATM   38  N6  UNL     1     -32.671  -8.767  -6.484  1.00  0.00    -0.356 N
ATOM     39  H6  UNL     1     -33.281  -9.038  -7.255  1.00  0.00     0.162 HD
BRANCH  38  40
HETATM   40  C11 UNL     1     -32.845  -7.432  -6.015  1.00  0.00     0.276 C
BRANCH  40  41
HETATM   41  O4  UNL     1     -31.563  -6.994  -5.528  1.00  0.00    -0.372 OA
ATOM     42  H4  UNL     1     -31.437  -6.108  -5.849  1.00  0.00     0.212 HD
ENDBRANCH  40  41
BRANCH  40  43
HETATM   43  C12 UNL     1     -33.720  -7.449  -4.787  1.00  0.00     0.334 C
BRANCH  43  44
HETATM   44  O5  UNL     1     -34.755  -8.393  -4.910  1.00  0.00    -0.365 OA
ATOM     45  H5  UNL     1     -35.442  -8.239  -4.271  1.00  0.00     0.212 HD
ENDBRANCH  43  44
BRANCH  43  46
HETATM   46  O6  UNL     1     -34.283  -6.159  -4.676  1.00  0.00    -0.250 OA
BRANCH  46  47
HETATM   47  N7  UNL     1     -33.432  -5.192  -5.088  1.00  0.00    -0.308 N
ATOM     48  H72 UNL     1     -32.485  -5.386  -5.413  1.00  0.00     0.184 HD
ATOM     49  H71 UNL     1     -33.848  -4.263  -5.034  1.00  0.00     0.184 HD
ENDBRANCH  46  47
ENDBRANCH  43  46
ENDBRANCH  40  43
ENDBRANCH  38  40
ENDBRANCH   6  38
TORSDOF 17
ENDMDL