MODEL 3
REMARK VINA RESULT: -8.576430578      1.406      2.486
REMARK  18 active torsions:
REMARK  status: ('A' for Active; 'I' for Inactive)
REMARK       I    between atoms: C2_2  and  N1_4
REMARK    1  A    between atoms: N2_6  and  C4_7
REMARK    2  A    between atoms: C4_7  and  N3_8
REMARK    3  A    between atoms: N3_8  and  N4_10
REMARK    4  A    between atoms: N5_12  and  C5_14
REMARK    5  A    between atoms: C5_14  and  O2_15
REMARK    6  A    between atoms: C5_14  and  N6_17
REMARK    7  A    between atoms: C5_14  and  C7_25
REMARK    8  A    between atoms: N6_17  and  O3_18
REMARK    9  A    between atoms: O3_18  and  C6_19
REMARK   10  A    between atoms: N8_21  and  O4_23
REMARK   11  A    between atoms: N10_28  and  C8_29
REMARK   12  A    between atoms: C8_29  and  O5_30
REMARK   13  A    between atoms: C8_29  and  C9_32
REMARK   14  A    between atoms: C9_32  and  O6_33
REMARK   15  A    between atoms: C9_32  and  O7_35
REMARK   16  A    between atoms: C10_37  and  O8_38
REMARK   17  A    between atoms: C11_40  and  O9_41
REMARK   18  A    between atoms: C13_44  and  C14_45
ROOT
HETATM    1  C5  UNL     1     -31.200 -12.617  -5.303  1.00  0.00     0.298 C
ENDROOT
BRANCH   1   2
HETATM    2  N5  UNL     1     -29.786 -12.842  -5.278  1.00  0.00    -0.266 N
HETATM    3  N4  UNL     1     -29.234 -13.802  -5.894  1.00  0.00    -0.246 N
ATOM      4  H4  UNL     1     -29.798 -14.456  -6.436  1.00  0.00     0.207 HD
ATOM      5  H5  UNL     1     -29.199 -12.202  -4.744  1.00  0.00     0.187 HD
BRANCH   3   6
HETATM    6  N3  UNL     1     -27.845 -13.962  -5.825  1.00  0.00    -0.294 N
ATOM      7  H3  UNL     1     -27.435 -14.892  -5.744  1.00  0.00     0.183 HD
BRANCH   6   8
HETATM    8  C4  UNL     1     -26.999 -12.788  -5.870  1.00  0.00     0.415 C
BRANCH   8   9
HETATM    9  N2  UNL     1     -26.164 -12.666  -4.711  1.00  0.00     0.127 N
HETATM   10  C3  UNL     1     -26.343 -11.310  -4.192  1.00  0.00     0.403 C
HETATM   11  N1  UNL     1     -25.535 -10.498  -5.117  1.00  0.00    -0.310 N
HETATM   12  C2  UNL     1     -25.770  -9.110  -5.300  1.00  0.00     0.218 C
HETATM   13  C13 UNL     1     -24.554 -11.342  -5.733  1.00  0.00     0.218 C
HETATM   14  C1  UNL     1     -26.840  -8.395  -4.569  1.00  0.00     0.117 C
HETATM   15  O1  UNL     1     -25.081  -8.409  -6.096  1.00  0.00    -0.274 OA
HETATM   16  C12 UNL     1     -24.781 -12.698  -5.137  1.00  0.00     0.312 C
BRANCH  13  17
HETATM   17  C14 UNL     1     -23.168 -10.872  -5.487  1.00  0.00     0.198 C
HETATM   18  O10 UNL     1     -22.745 -10.851  -4.313  1.00  0.00    -0.646 OA
HETATM   19  O11 UNL     1     -22.390 -10.473  -6.550  1.00  0.00    -0.646 OA
ENDBRANCH  13  17
ENDBRANCH   8   9
ENDBRANCH   6   8
ENDBRANCH   3   6
ENDBRANCH   1   2
BRANCH   1  20
HETATM   20  O2  UNL     1     -31.776 -13.422  -6.273  1.00  0.00    -0.350 OA
ATOM     21  H2  UNL     1     -31.291 -13.334  -7.084  1.00  0.00     0.214 HD
ENDBRANCH   1  20
BRANCH   1  22
HETATM   22  N6  UNL     1     -31.797 -13.007  -4.024  1.00  0.00    -0.022 NA
BRANCH  22  23
HETATM   23  O3  UNL     1     -31.242 -14.166  -3.545  1.00  0.00    -0.204 OA
BRANCH  23  24
HETATM   24  C6  UNL     1     -30.827 -14.317  -2.233  1.00  0.00     0.271 C
HETATM   25  N7  UNL     1     -31.697 -14.959  -1.322  1.00  0.00    -0.053 NA
HETATM   26  N8  UNL     1     -29.687 -13.882  -1.881  1.00  0.00    -0.234 N
ATOM     27  H8  UNL     1     -29.419 -14.014  -0.906  1.00  0.00     0.197 HD
BRANCH  26  28
HETATM   28  O4  UNL     1     -28.794 -13.256  -2.690  1.00  0.00    -0.287 OA
ATOM     29  H4  UNL     1     -27.874 -13.120  -2.498  1.00  0.00     0.244 HD
ENDBRANCH  26  28
ENDBRANCH  23  24
ENDBRANCH  22  23
ENDBRANCH   1  22
BRANCH   1  30
HETATM   30  C7  UNL     1     -31.545 -11.183  -5.589  1.00  0.00     0.140 A
HETATM   31  N9  UNL     1     -32.662 -10.549  -5.340  1.00  0.00    -0.285 N
HETATM   32  N10 UNL     1     -32.639  -9.260  -5.728  1.00  0.00    -0.208 N
ATOM     33  H9  UNL     1     -33.468 -10.987  -4.896  1.00  0.00     0.187 HD
HETATM   34  C10 UNL     1     -31.425  -9.099  -6.249  1.00  0.00     0.200 A
HETATM   35  C11 UNL     1     -30.690 -10.294  -6.185  1.00  0.00     0.149 A
BRANCH  32  36
HETATM   36  C8  UNL     1     -33.711  -8.351  -5.575  1.00  0.00     0.196 C
BRANCH  36  37
HETATM   37  O5  UNL     1     -34.880  -8.799  -5.983  1.00  0.00    -0.344 OA
ATOM     38  H5  UNL     1     -35.516  -8.126  -6.194  1.00  0.00     0.219 HD
ENDBRANCH  36  37
BRANCH  36  39
HETATM   39  C9  UNL     1     -33.769  -7.010  -5.053  1.00  0.00     0.332 C
BRANCH  39  40
HETATM   40  O6  UNL     1     -32.648  -6.269  -4.904  1.00  0.00    -0.364 OA
ATOM     41  H6  UNL     1     -32.695  -5.335  -4.736  1.00  0.00     0.213 HD
ENDBRANCH  39  40
BRANCH  39  42
HETATM   42  O7  UNL     1     -34.418  -7.009  -3.794  1.00  0.00    -0.364 OA
ATOM     43  H7  UNL     1     -35.313  -6.705  -3.891  1.00  0.00     0.213 HD
ENDBRANCH  39  42
ENDBRANCH  36  39
ENDBRANCH  32  36
BRANCH  34  44
HETATM   44  O8  UNL     1     -30.842  -7.976  -6.806  1.00  0.00    -0.343 OA
ATOM     45  H8  UNL     1     -30.799  -7.698  -7.714  1.00  0.00     0.219 HD
ENDBRANCH  34  44
BRANCH  35  46
HETATM   46  O9  UNL     1     -29.396 -10.498  -6.630  1.00  0.00    -0.355 OA
ATOM     47  H9  UNL     1     -29.040 -10.379  -7.502  1.00  0.00     0.218 HD
ENDBRANCH  35  46
ENDBRANCH   1  30
TORSDOF 18
ENDMDL