MODEL 5
REMARK VINA RESULT: -7.861413091      3.116      6.425
REMARK  14 active torsions:
REMARK  status: ('A' for Active; 'I' for Inactive)
REMARK    1  A    between atoms: O1_2  and  C2_3
REMARK    2  A    between atoms: C2_3  and  C3_5
REMARK    3  A    between atoms: N2_12  and  C7_13
REMARK    4  A    between atoms: C9_20  and  C10_21
REMARK    5  A    between atoms: C10_21  and  O4_22
REMARK    6  A    between atoms: C10_21  and  N5_24
REMARK       I    between atoms: N5_24  and  C11_27
REMARK       I    between atoms: C11_27  and  N6_28
REMARK       I    between atoms: C11_27  and  N7_32
REMARK    7  A    between atoms: C12_36  and  C13_37
REMARK    8  A    between atoms: C13_37  and  O5_38
REMARK    9  A    between atoms: C13_37  and  O6_40
REMARK   10  A    between atoms: C15_44  and  N8_45
REMARK   11  A    between atoms: C15_44  and  C16_49
REMARK   12  A    between atoms: C16_49  and  O8_50
REMARK   13  A    between atoms: C17_52  and  O9_53
REMARK   14  A    between atoms: O9_53  and  O10_54
ROOT
HETATM    1  C7  UNL     1     -27.994  -9.607  -5.793  1.00  0.00     0.229 A
HETATM    2  N3  UNL     1     -27.561  -8.348  -5.479  1.00  0.00    -0.308 N
ATOM      3  H3  UNL     1     -28.241  -7.598  -5.357  1.00  0.00     0.171 HD
HETATM    4  C8  UNL     1     -26.256  -8.085  -5.329  1.00  0.00     0.115 A
HETATM    5  N4  UNL     1     -25.867  -6.899  -5.035  1.00  0.00    -0.385 N
ATOM      6  H41 UNL     1     -24.873  -6.699  -4.921  1.00  0.00     0.157 HD
ATOM      7  H42 UNL     1     -26.534  -6.137  -4.909  1.00  0.00     0.157 HD
HETATM    8  C9  UNL     1     -25.353  -9.115  -5.500  1.00  0.00     0.076 A
HETATM    9  C12 UNL     1     -25.829 -10.345  -5.810  1.00  0.00     0.125 A
HETATM   10  O7  UNL     1     -27.111 -10.539  -5.942  1.00  0.00    -0.278 OA
ENDROOT
BRANCH   1  11
HETATM   11  N2  UNL     1     -29.356  -9.898  -5.952  1.00  0.00    -0.330 N
HETATM   12  C6  UNL     1     -30.317 -10.385  -4.991  1.00  0.00     0.189 C
HETATM   13  C5  UNL     1     -30.766 -11.754  -5.248  1.00  0.00     0.057 A
HETATM   14  C17 UNL     1     -31.549  -9.500  -5.281  1.00  0.00     0.231 C
HETATM   15  C3  UNL     1     -30.408 -13.062  -5.353  1.00  0.00     0.186 A
HETATM   16  C4  UNL     1     -32.143 -11.740  -5.490  1.00  0.00     0.135 A
HETATM   17  O3  UNL     1     -31.486 -13.747  -5.631  1.00  0.00    -0.229 OA
HETATM   18  N1  UNL     1     -32.502 -12.996  -5.715  1.00  0.00    -0.244 N
ATOM     19  H1  UNL     1     -33.450 -13.309  -5.924  1.00  0.00     0.196 HD
HETATM   20  N9  UNL     1     -32.650 -10.419  -5.409  1.00  0.00    -0.336 N
ATOM     21  H9  UNL     1     -33.636 -10.161  -5.436  1.00  0.00     0.164 HD
HETATM   22  C15 UNL     1     -31.270  -8.863  -6.603  1.00  0.00     0.215 C
HETATM   23  C14 UNL     1     -30.131  -9.715  -7.163  1.00  0.00     0.173 C
BRANCH  15  24
HETATM   24  C2  UNL     1     -29.113 -13.717  -5.207  1.00  0.00     0.319 C
HETATM   25  O2  UNL     1     -28.790 -14.770  -5.800  1.00  0.00    -0.257 OA
BRANCH  24  26
HETATM   26  O1  UNL     1     -28.120 -13.187  -4.365  1.00  0.00    -0.321 OA
HETATM   27  C1  UNL     1     -28.418 -12.667  -3.098  1.00  0.00     0.213 C
ENDBRANCH  24  26
ENDBRANCH  15  24
BRANCH  14  28
HETATM   28  O9  UNL     1     -31.713  -8.604  -4.250  1.00  0.00    -0.204 OA
BRANCH  28  29
HETATM   29  O10 UNL     1     -32.911  -8.090  -4.296  1.00  0.00    -0.248 OA
ATOM     30  H10 UNL     1     -33.077  -7.736  -5.162  1.00  0.00     0.253 HD
ENDBRANCH  28  29
ENDBRANCH  14  28
BRANCH  22  31
HETATM   31  N8  UNL     1     -30.780  -7.521  -6.332  1.00  0.00    -0.062 N
ATOM     32  H83 UNL     1     -30.432  -7.061  -7.173  1.00  0.00     0.275 HD
ATOM     33  H82 UNL     1     -31.535  -6.871  -6.112  1.00  0.00     0.275 HD
ATOM     34  H81 UNL     1     -30.078  -7.560  -5.593  1.00  0.00     0.275 HD
ENDBRANCH  22  31
BRANCH  22  35
HETATM   35  C16 UNL     1     -32.430  -8.765  -7.533  1.00  0.00     0.210 C
BRANCH  35  36
HETATM   36  O8  UNL     1     -32.099  -8.304  -8.800  1.00  0.00    -0.398 OA
ATOM     37  H8  UNL     1     -32.208  -8.952  -9.487  1.00  0.00     0.209 HD
ENDBRANCH  35  36
ENDBRANCH  22  35
ENDBRANCH   1  11
BRANCH   9  38
HETATM   38  C13 UNL     1     -24.951 -11.525  -6.014  1.00  0.00     0.313 C
BRANCH  38  39
HETATM   39  O5  UNL     1     -25.834 -12.635  -6.019  1.00  0.00    -0.365 OA
ATOM     40  H5  UNL     1     -25.408 -13.286  -5.473  1.00  0.00     0.213 HD
ENDBRANCH  38  39
BRANCH  38  41
HETATM   41  O6  UNL     1     -24.384 -11.496  -7.286  1.00  0.00    -0.365 OA
ATOM     42  H6  UNL     1     -23.709 -12.161  -7.364  1.00  0.00     0.213 HD
ENDBRANCH  38  41
ENDBRANCH   9  38
BRANCH   8  43
HETATM   43  C10 UNL     1     -23.936  -8.803  -5.338  1.00  0.00     0.364 C
BRANCH  43  44
HETATM   44  O4  UNL     1     -23.364  -8.751  -6.616  1.00  0.00    -0.366 OA
ATOM     45  H4  UNL     1     -23.659  -7.949  -7.032  1.00  0.00     0.212 HD
ENDBRANCH  43  44
BRANCH  43  46
HETATM   46  N5  UNL     1     -23.329  -9.983  -4.699  1.00  0.00     0.009 N
HETATM   47  C11 UNL     1     -21.915  -9.930  -4.936  1.00  0.00     0.578 C
HETATM   48  N6  UNL     1     -21.236 -11.066  -4.330  1.00  0.00    -0.026 N
HETATM   49  N7  UNL     1     -21.331  -8.691  -4.485  1.00  0.00    -0.026 N
ATOM     50  H63 UNL     1     -21.446 -11.140  -3.335  1.00  0.00     0.278 HD
ATOM     51  H62 UNL     1     -21.635 -11.952  -4.641  1.00  0.00     0.278 HD
ATOM     52  H61 UNL     1     -20.230 -11.028  -4.499  1.00  0.00     0.278 HD
ATOM     53  H73 UNL     1     -21.805  -7.888  -4.899  1.00  0.00     0.278 HD
ATOM     54  H72 UNL     1     -21.547  -8.519  -3.503  1.00  0.00     0.278 HD
ATOM     55  H71 UNL     1     -20.326  -8.654  -4.654  1.00  0.00     0.278 HD
ATOM     56  H52 UNL     1     -23.562 -10.061  -3.709  1.00  0.00     0.285 HD
ATOM     57  H51 UNL     1     -23.750 -10.860  -5.006  1.00  0.00     0.285 HD
ENDBRANCH  43  46
ENDBRANCH   8  43
TORSDOF 14
ENDMDL