MODEL 2
REMARK VINA RESULT: -8.248889965      2.334      3.250
REMARK  14 active torsions:
REMARK  status: ('A' for Active; 'I' for Inactive)
REMARK    1  A    between atoms: N1_1  and  C1_4
REMARK    2  A    between atoms: C2_7  and  C3_8
REMARK    3  A    between atoms: C3_8  and  O1_9
REMARK    4  A    between atoms: C4_13  and  N4_14
REMARK    5  A    between atoms: N4_14  and  N5_16
REMARK    6  A    between atoms: C5_18  and  C6_19
REMARK    7  A    between atoms: C6_19  and  S1_20
REMARK    8  A    between atoms: S1_20  and  S2_21
REMARK    9  A    between atoms: S2_21  and  C7_22
REMARK   10  A    between atoms: C9_32  and  N10_33
REMARK   11  A    between atoms: C10_36  and  O3_37
REMARK   12  A    between atoms: C10_36  and  C11_39
REMARK   13  A    between atoms: C11_39  and  O4_40
REMARK   14  A    between atoms: C12_43  and  O6_44
ROOT
HETATM    1  C3  UNL     1     -30.767 -10.133  -4.610  1.00  0.00     0.300 C
HETATM    2  N3  UNL     1     -29.834 -10.331  -5.730  1.00  0.00    -0.314 N
ATOM      3  H3  UNL     1     -29.686  -9.672  -6.495  1.00  0.00     0.166 HD
HETATM    4  C4  UNL     1     -29.235 -11.464  -5.597  1.00  0.00     0.162 C
HETATM    5  C10 UNL     1     -29.769 -12.110  -4.385  1.00  0.00     0.250 C
HETATM    6  O5  UNL     1     -30.927 -11.386  -4.112  1.00  0.00    -0.286 OA
ENDROOT
BRANCH   4   7
HETATM    7  N4  UNL     1     -28.244 -12.017  -6.490  1.00  0.00    -0.285 N
ATOM      8  H4  UNL     1     -28.229 -11.706  -7.461  1.00  0.00     0.188 HD
BRANCH   7   9
HETATM    9  N5  UNL     1     -27.311 -12.957  -6.072  1.00  0.00    -0.314 N
HETATM   10  C5  UNL     1     -26.067 -12.717  -6.200  1.00  0.00     0.091 C
ATOM     11  H5  UNL     1     -27.622 -13.838  -5.662  1.00  0.00     0.185 HD
BRANCH  10  12
HETATM   12  C6  UNL     1     -25.599 -11.450  -6.787  1.00  0.00     0.132 C
BRANCH  12  13
HETATM   13  S1  UNL     1     -25.177 -10.230  -5.509  1.00  0.00    -0.086 SA
BRANCH  13  14
HETATM   14  S2  UNL     1     -23.311  -9.289  -6.009  1.00  0.00    -0.034 SA
BRANCH  14  15
HETATM   15  C7  UNL     1     -22.023 -10.410  -5.484  1.00  0.00     0.142 A
HETATM   16  N6  UNL     1     -22.252 -11.728  -5.456  1.00  0.00    -0.246 N
HETATM   17  N7  UNL     1     -21.286 -12.534  -5.065  1.00  0.00     0.046 N
ATOM     18  H6  UNL     1     -23.160 -12.102  -5.732  1.00  0.00     0.191 HD
HETATM   19  O2  UNL     1     -20.898 -13.752  -4.837  1.00  0.00    -0.104 OA
HETATM   20  C8  UNL     1     -20.078 -12.096  -4.691  1.00  0.00     0.749 A
HETATM   21  N8  UNL     1     -19.696 -13.373  -4.460  1.00  0.00    -0.066 N
ATOM     22  H8  UNL     1     -18.848 -13.838  -4.137  1.00  0.00     0.216 HD
HETATM   23  N9  UNL     1     -19.816 -10.771  -4.707  1.00  0.00    -0.169 N
HETATM   24  C9  UNL     1     -20.776  -9.917  -5.100  1.00  0.00     0.151 A
ATOM     25  H9  UNL     1     -18.899 -10.423  -4.425  1.00  0.00     0.186 HD
BRANCH  24  26
HETATM   26  N10 UNL     1     -20.518  -8.657  -5.113  1.00  0.00    -0.383 N
ATOM     27 2H10 UNL     1     -19.659  -8.335  -5.558  1.00  0.00     0.157 HD
ATOM     28 1H10 UNL     1     -21.152  -7.978  -4.691  1.00  0.00     0.157 HD
ENDBRANCH  24  26
ENDBRANCH  14  15
ENDBRANCH  13  14
ENDBRANCH  12  13
ENDBRANCH  10  12
ENDBRANCH   7   9
ENDBRANCH   4   7
BRANCH   5  29
HETATM   29  O3  UNL     1     -30.142 -13.454  -4.728  1.00  0.00    -0.358 OA
ATOM     30  H3  UNL     1     -30.847 -13.720  -4.149  1.00  0.00     0.213 HD
ENDBRANCH   5  29
BRANCH   5  31
HETATM   31  C11 UNL     1     -28.821 -12.279  -3.266  1.00  0.00     0.241 C
BRANCH  31  32
HETATM   32  O4  UNL     1     -27.744 -11.464  -3.180  1.00  0.00    -0.395 OA
ATOM     33  H4  UNL     1     -27.201 -11.490  -2.401  1.00  0.00     0.209 HD
ENDBRANCH  31  32
ENDBRANCH   5  31
BRANCH   1  34
HETATM   34  C2  UNL     1     -31.926  -9.399  -5.084  1.00  0.00     0.149 A
HETATM   35  N2  UNL     1     -32.046  -8.070  -4.800  1.00  0.00    -0.185 N
HETATM   36  C1  UNL     1     -33.039  -7.277  -5.190  1.00  0.00     0.679 A
ATOM     37  H2  UNL     1     -31.308  -7.647  -4.238  1.00  0.00     0.184 HD
HETATM   38  N11 UNL     1     -34.028  -7.798  -5.931  1.00  0.00    -0.154 N
HETATM   39  C13 UNL     1     -33.991  -9.098  -6.257  1.00  0.00     0.295 A
ATOM     40  H11 UNL     1     -34.801  -7.211  -6.244  1.00  0.00     0.187 HD
HETATM   41  C12 UNL     1     -32.938  -9.916  -5.836  1.00  0.00     0.166 A
HETATM   42  O7  UNL     1     -34.911  -9.602  -6.952  1.00  0.00    -0.265 OA
BRANCH  36  43
HETATM   43  N1  UNL     1     -33.073  -6.003  -4.869  1.00  0.00    -0.234 N
ATOM     44  H12 UNL     1     -33.973  -5.532  -4.773  1.00  0.00     0.174 HD
ATOM     45  H11 UNL     1     -32.220  -5.466  -4.711  1.00  0.00     0.174 HD
ENDBRANCH  36  43
BRANCH  41  46
HETATM   46  O6  UNL     1     -32.983 -11.210  -6.205  1.00  0.00    -0.354 OA
ATOM     47  H6  UNL     1     -32.679 -11.916  -5.646  1.00  0.00     0.218 HD
ENDBRANCH  41  46
ENDBRANCH   1  34
BRANCH   1  48
HETATM   48  O1  UNL     1     -30.114  -9.293  -3.656  1.00  0.00    -0.343 OA
ATOM     49  H1  UNL     1     -30.378  -9.601  -2.797  1.00  0.00     0.215 HD
ENDBRANCH   1  48
TORSDOF 14
ENDMDL