MODEL 5
REMARK VINA RESULT: -7.840737409      3.279      7.493
REMARK  16 active torsions:
REMARK  status: ('A' for Active; 'I' for Inactive)
REMARK    1  A    between atoms: O1_2  and  C2_3
REMARK       I    between atoms: C2_3  and  N1_5
REMARK    2  A    between atoms: N1_5  and  N2_7
REMARK       I    between atoms: N2_7  and  C3_9
REMARK    3  A    between atoms: C3_9  and  C4_11
REMARK    4  A    between atoms: C4_11  and  O5_13
REMARK    5  A    between atoms: O5_13  and  C5_14
REMARK    6  A    between atoms: C5_14  and  C6_15
REMARK    7  A    between atoms: C6_15  and  C7_17
REMARK    8  A    between atoms: C8_18  and  N3_19
REMARK    9  A    between atoms: N3_19  and  N4_21
REMARK   10  A    between atoms: N4_21  and  N5_22
REMARK   11  A    between atoms: C11_31  and  N9_32
REMARK   12  A    between atoms: C12_35  and  N10_36
REMARK   13  A    between atoms: N10_36  and  C13_38
REMARK   14  A    between atoms: C15_40  and  O7_41
REMARK   15  A    between atoms: C15_40  and  C16_43
REMARK   16  A    between atoms: C16_43  and  O8_44
ROOT
HETATM    1  C7  UNL     1     -29.685 -11.041  -5.705  1.00  0.00     0.072 C
HETATM    2  C8  UNL     1     -28.998 -11.244  -4.519  1.00  0.00     0.090 C
HETATM    3  C9  UNL     1     -29.105 -12.294  -3.591  1.00  0.00     0.116 C
HETATM    4  N6  UNL     1     -28.092 -12.435  -2.626  1.00  0.00    -0.096 NA
HETATM    5  C10 UNL     1     -30.103 -13.227  -3.503  1.00  0.00     0.144 C
HETATM    6  N7  UNL     1     -30.117 -14.099  -2.358  1.00  0.00    -0.081 NA
HETATM    7  N8  UNL     1     -31.127 -13.467  -4.373  1.00  0.00    -0.328 N
ATOM      8  H8  UNL     1     -31.738 -14.246  -4.126  1.00  0.00     0.168 HD
HETATM    9  C11 UNL     1     -31.445 -12.824  -5.509  1.00  0.00     0.128 C
HETATM   10  C12 UNL     1     -30.935 -11.592  -5.926  1.00  0.00     0.089 C
ENDROOT
BRANCH   1  11
HETATM   11  C6  UNL     1     -29.042 -10.246  -6.702  1.00  0.00     0.188 C
HETATM   12  O6  UNL     1     -29.424  -9.021  -6.774  1.00  0.00    -0.290 OA
BRANCH  11  13
HETATM   13  C5  UNL     1     -28.003 -10.610  -7.665  1.00  0.00     0.263 C
BRANCH  13  14
HETATM   14  O5  UNL     1     -26.796 -11.042  -7.007  1.00  0.00    -0.306 OA
BRANCH  14  15
HETATM   15  C4  UNL     1     -25.793 -10.218  -6.600  1.00  0.00     0.353 C
HETATM   16  O4  UNL     1     -26.062  -9.067  -6.179  1.00  0.00    -0.254 OA
BRANCH  15  17
HETATM   17  C3  UNL     1     -24.373 -10.604  -6.622  1.00  0.00     0.335 C
HETATM   18  N2  UNL     1     -23.347  -9.696  -6.275  1.00  0.00    -0.257 N
ATOM     19  H2  UNL     1     -23.585  -8.743  -6.000  1.00  0.00     0.190 HD
HETATM   20  O3  UNL     1     -24.069 -11.781  -6.962  1.00  0.00    -0.260 OA
BRANCH  18  21
HETATM   21  N1  UNL     1     -22.013 -10.092  -6.306  1.00  0.00    -0.242 N
HETATM   22  C2  UNL     1     -21.354 -10.420  -5.099  1.00  0.00     0.379 C
HETATM   23  O2  UNL     1     -21.985 -10.346  -4.020  1.00  0.00    -0.237 OA
ATOM     24  H1  UNL     1     -21.514 -10.146  -7.195  1.00  0.00     0.192 HD
BRANCH  22  25
HETATM   25  O1  UNL     1     -20.032 -10.823  -5.035  1.00  0.00    -0.308 OA
HETATM   26  C1  UNL     1     -19.672 -12.158  -4.682  1.00  0.00     0.215 C
ENDBRANCH  22  25
ENDBRANCH  18  21
ENDBRANCH  15  17
ENDBRANCH  14  15
ENDBRANCH  13  14
ENDBRANCH  11  13
ENDBRANCH   1  11
BRANCH   2  27
HETATM   27  N3  UNL     1     -28.041 -10.308  -4.137  1.00  0.00    -0.282 N
ATOM     28  H3  UNL     1     -27.051 -10.551  -4.181  1.00  0.00     0.184 HD
BRANCH  27  29
HETATM   29  N4  UNL     1     -28.422  -9.044  -3.696  1.00  0.00    -0.029 NA
BRANCH  29  30
HETATM   30  N5  UNL     1     -27.359  -8.159  -3.659  1.00  0.00    -0.329 N
ATOM     31  H52 UNL     1     -26.957  -7.809  -2.789  1.00  0.00     0.174 HD
ATOM     32  H51 UNL     1     -27.035  -7.906  -4.593  1.00  0.00     0.174 HD
ENDBRANCH  29  30
ENDBRANCH  27  29
ENDBRANCH   2  27
BRANCH  10  33
HETATM   33  N10 UNL     1     -31.822 -10.818  -6.672  1.00  0.00    -0.372 N
ATOM     34  H10 UNL     1     -31.819 -10.943  -7.684  1.00  0.00     0.161 HD
BRANCH  33  35
HETATM   35  C13 UNL     1     -32.747  -9.852  -6.122  1.00  0.00     0.150 C
HETATM   36  C14 UNL     1     -32.269  -9.021  -4.973  1.00  0.00     0.087 C
HETATM   37  C15 UNL     1     -32.765  -7.631  -5.394  1.00  0.00     0.131 C
HETATM   38  S1  UNL     1     -32.937  -8.317  -7.068  1.00  0.00    -0.104 SA
BRANCH  37  39
HETATM   39  O7  UNL     1     -31.820  -6.628  -5.314  1.00  0.00    -0.377 OA
ATOM     40  H7  UNL     1     -32.001  -5.958  -4.666  1.00  0.00     0.211 HD
ENDBRANCH  37  39
BRANCH  37  41
HETATM   41  C16 UNL     1     -34.065  -7.245  -4.748  1.00  0.00     0.213 C
BRANCH  41  42
HETATM   42  O8  UNL     1     -34.133  -5.860  -4.607  1.00  0.00    -0.397 OA
ATOM     43  H8  UNL     1     -34.665  -5.637  -3.852  1.00  0.00     0.209 HD
ENDBRANCH  41  42
ENDBRANCH  37  41
ENDBRANCH  33  35
ENDBRANCH  10  33
BRANCH   9  44
HETATM   44  N9  UNL     1     -32.307 -13.386  -6.313  1.00  0.00    -0.384 N
ATOM     45  H92 UNL     1     -32.715 -14.262  -5.987  1.00  0.00     0.157 HD
ATOM     46  H91 UNL     1     -32.513 -12.921  -7.197  1.00  0.00     0.157 HD
ENDBRANCH   9  44
TORSDOF 16
ENDMDL