MODEL 4
REMARK VINA RESULT: -9.178631541      0.184      1.292
REMARK  13 active torsions:
REMARK  status: ('A' for Active; 'I' for Inactive)
REMARK    1  A    between atoms: O1_2  and  C2_3
REMARK    2  A    between atoms: C2_3  and  C3_4
REMARK    3  A    between atoms: C3_4  and  N1_5
REMARK    4  A    between atoms: C5_9  and  O2_10
REMARK    5  A    between atoms: O2_10  and  C6_11
REMARK    6  A    between atoms: C6_11  and  C7_12
REMARK    7  A    between atoms: C7_12  and  N3_13
REMARK    8  A    between atoms: N4_17  and  N5_18
REMARK    9  A    between atoms: C11_25  and  O4_26
REMARK   10  A    between atoms: O4_26  and  N6_27
REMARK   11  A    between atoms: C12_32  and  O5_33
REMARK   12  A    between atoms: C13_35  and  C14_36
REMARK   13  A    between atoms: C15_39  and  N12_40
ROOT
HETATM    1  N1  UNL     1     -25.869 -11.709  -5.116  1.00  0.00    -0.310 N
HETATM    2  C4  UNL     1     -25.713 -10.429  -5.473  1.00  0.00     0.129 A
HETATM    3  N2  UNL     1     -24.657  -9.579  -5.630  1.00  0.00    -0.305 N
ATOM      4  H2  UNL     1     -23.720  -9.935  -5.437  1.00  0.00     0.171 HD
HETATM    5  C5  UNL     1     -24.781  -8.302  -6.024  1.00  0.00     0.249 A
HETATM    6  N4  UNL     1     -26.051  -7.831  -6.285  1.00  0.00    -0.188 N
HETATM    7  C8  UNL     1     -27.111  -8.622  -6.144  1.00  0.00     0.284 A
HETATM    8  O3  UNL     1     -28.285  -8.205  -6.377  1.00  0.00    -0.265 OA
HETATM    9  C9  UNL     1     -26.979  -9.932  -5.737  1.00  0.00     0.096 A
HETATM   10  C10 UNL     1     -27.861 -10.959  -5.522  1.00  0.00     0.074 A
HETATM   11  C11 UNL     1     -29.228 -11.351  -5.537  1.00  0.00     0.153 A
HETATM   12  C13 UNL     1     -29.298 -12.652  -5.165  1.00  0.00     0.159 A
HETATM   13  O6  UNL     1     -28.026 -13.042  -4.937  1.00  0.00    -0.286 OA
HETATM   14  C17 UNL     1     -27.183 -12.082  -5.135  1.00  0.00     0.166 A
ENDROOT
BRANCH  12  15
HETATM   15  C14 UNL     1     -30.416 -13.587  -4.977  1.00  0.00     0.173 A
HETATM   16  N11 UNL     1     -30.551 -14.611  -5.900  1.00  0.00    -0.173 N
HETATM   17  C15 UNL     1     -31.579 -15.462  -5.864  1.00  0.00     0.692 A
ATOM     18  H11 UNL     1     -29.844 -14.719  -6.628  1.00  0.00     0.186 HD
HETATM   19  N13 UNL     1     -32.513 -15.316  -4.896  1.00  0.00    -0.023 N
HETATM   20  C16 UNL     1     -32.408 -14.337  -3.989  1.00  0.00     0.692 A
ATOM     21  H13 UNL     1     -33.304 -15.958  -4.857  1.00  0.00     0.203 HD
HETATM   22  N14 UNL     1     -33.299 -14.228  -3.088  1.00  0.00    -0.234 N
HETATM   23  N15 UNL     1     -31.343 -13.475  -4.046  1.00  0.00    -0.173 N
ATOM     24 2H14 UNL     1     -34.091 -14.869  -3.046  1.00  0.00     0.174 HD
ATOM     25 1H14 UNL     1     -33.220 -13.482  -2.397  1.00  0.00     0.174 HD
ATOM     26  H15 UNL     1     -31.267 -12.730  -3.353  1.00  0.00     0.186 HD
BRANCH  17  27
HETATM   27  N12 UNL     1     -31.740 -16.397  -6.742  1.00  0.00    -0.234 N
ATOM     28 2H12 UNL     1     -32.054 -17.314  -6.426  1.00  0.00     0.174 HD
ATOM     29 1H12 UNL     1     -31.597 -16.243  -7.740  1.00  0.00     0.174 HD
ENDBRANCH  17  27
ENDBRANCH  12  15
BRANCH  11  30
HETATM   30  O4  UNL     1     -30.147 -10.426  -5.896  1.00  0.00    -0.214 OA
BRANCH  30  31
HETATM   31  N6  UNL     1     -31.155  -9.780  -5.401  1.00  0.00    -0.131 N
HETATM   32  N7  UNL     1     -32.039 -10.648  -4.762  1.00  0.00     0.017 NA
HETATM   33  N8  UNL     1     -33.341 -10.460  -5.206  1.00  0.00     0.003 NA
HETATM   34  N9  UNL     1     -33.362 -10.377  -6.584  1.00  0.00    -0.015 NA
HETATM   35  N10 UNL     1     -32.784  -9.179  -7.045  1.00  0.00    -0.072 NA
HETATM   36  C12 UNL     1     -31.784  -8.721  -6.100  1.00  0.00     0.379 C
BRANCH  36  37
HETATM   37  O5  UNL     1     -30.929  -7.863  -6.770  1.00  0.00    -0.359 OA
ATOM     38  H5  UNL     1     -30.195  -8.280  -7.208  1.00  0.00     0.213 HD
ENDBRANCH  36  37
ENDBRANCH  30  31
ENDBRANCH  11  30
BRANCH   1  39
HETATM   39  C3  UNL     1     -24.811 -12.613  -4.719  1.00  0.00     0.159 C
BRANCH  39  40
HETATM   40  C2  UNL     1     -25.027 -13.995  -5.310  1.00  0.00     0.187 C
BRANCH  40  41
HETATM   41  O1  UNL     1     -25.186 -14.908  -4.276  1.00  0.00    -0.394 OA
HETATM   42  C1  UNL     1     -23.979 -15.627  -4.072  1.00  0.00     0.201 C
ENDBRANCH  40  41
ENDBRANCH  39  40
ENDBRANCH   1  39
BRANCH   6  43
HETATM   43  N5  UNL     1     -26.184  -6.537  -6.707  1.00  0.00    -0.332 N
ATOM     44  H52 UNL     1     -25.940  -5.755  -6.100  1.00  0.00     0.177 HD
ATOM     45  H51 UNL     1     -26.550  -6.373  -7.646  1.00  0.00     0.177 HD
ENDBRANCH   6  43
BRANCH   5  46
HETATM   46  O2  UNL     1     -23.786  -7.450  -6.188  1.00  0.00    -0.319 OA
BRANCH  46  47
HETATM   47  C6  UNL     1     -22.463  -7.265  -6.154  1.00  0.00     0.206 C
BRANCH  47  48
HETATM   48  C7  UNL     1     -21.579  -8.496  -5.961  1.00  0.00     0.256 C
BRANCH  48  49
HETATM   49  N3  UNL     1     -20.984  -8.503  -4.635  1.00  0.00    -0.077 N
ATOM     50  H33 UNL     1     -20.185  -9.135  -4.584  1.00  0.00     0.274 HD
ATOM     51  H32 UNL     1     -20.501  -7.628  -4.433  1.00  0.00     0.274 HD
ATOM     52  H31 UNL     1     -21.682  -8.722  -3.924  1.00  0.00     0.274 HD
ENDBRANCH  48  49
ENDBRANCH  47  48
ENDBRANCH  46  47
ENDBRANCH   5  46
TORSDOF 13
ENDMDL