MODEL 1
REMARK VINA RESULT: -8.072792942      0.000      0.000
REMARK  14 active torsions:
REMARK  status: ('A' for Active; 'I' for Inactive)
REMARK    1  A    between atoms: N1_1  and  C1_4
REMARK    2  A    between atoms: C2_7  and  N3_8
REMARK    3  A    between atoms: N4_11  and  C5_12
REMARK    4  A    between atoms: C10_17  and  O1_18
REMARK    5  A    between atoms: C14_23  and  N5_24
REMARK    6  A    between atoms: N5_24  and  C15_26
REMARK    7  A    between atoms: N8_31  and  C17_32
REMARK    8  A    between atoms: C17_32  and  O2_33
REMARK    9  A    between atoms: O2_33  and  C18_34
REMARK   10  A    between atoms: C18_34  and  C19_35
REMARK   11  A    between atoms: C18_34  and  C20_38
REMARK   12  A    between atoms: C19_35  and  O3_36
REMARK   13  A    between atoms: C20_38  and  O4_39
REMARK   14  A    between atoms: C21_41  and  N9_42
ROOT
HETATM    1  C1  UNL     1      10.163  -8.572  -5.091  1.00  0.00     0.679 A
HETATM    2  N2  UNL     1       8.838  -8.555  -5.316  1.00  0.00    -0.177 N
ATOM      3  H2  UNL     1       8.353  -7.659  -5.267  1.00  0.00     0.185 HD
HETATM    4  C2  UNL     1       8.115  -9.654  -5.604  1.00  0.00     0.122 A
HETATM    5  C13 UNL     1       8.835 -10.839  -5.658  1.00  0.00     0.098 A
HETATM    6  C14 UNL     1      10.215 -10.844  -5.422  1.00  0.00     0.140 A
HETATM    7  N11 UNL     1      10.878  -9.709  -5.139  1.00  0.00    -0.176 N
ATOM      8  H11 UNL     1      11.883  -9.711  -4.967  1.00  0.00     0.186 HD
ENDROOT
BRANCH   6   9
HETATM    9  N5  UNL     1      10.954 -12.051  -5.475  1.00  0.00    -0.175 N
ATOM     10  H5  UNL     1      11.801 -12.069  -6.043  1.00  0.00     0.186 HD
BRANCH   9  11
HETATM   11  C15 UNL     1      10.625 -13.127  -4.852  1.00  0.00     0.700 A
HETATM   12  N6  UNL     1       9.490 -13.813  -5.075  1.00  0.00    -0.162 N
HETATM   13  C16 UNL     1       9.194 -14.941  -4.387  1.00  0.00     0.226 A
ATOM     14  H6  UNL     1       8.835 -13.475  -5.781  1.00  0.00     0.187 HD
HETATM   15  N7  UNL     1       7.996 -15.673  -4.616  1.00  0.00    -0.062 NA
HETATM   16  N8  UNL     1      10.029 -15.417  -3.450  1.00  0.00    -0.132 N
HETATM   17  C21 UNL     1      11.169 -14.740  -3.217  1.00  0.00     0.696 A
HETATM   18  N10 UNL     1      11.453 -13.609  -3.915  1.00  0.00    -0.022 N
ATOM     19  H10 UNL     1      12.323 -13.113  -3.721  1.00  0.00     0.203 HD
BRANCH  16  20
HETATM   20  C17 UNL     1       9.714 -16.630  -2.712  1.00  0.00     0.320 C
BRANCH  20  21
HETATM   21  O2  UNL     1       9.035 -16.379  -1.547  1.00  0.00    -0.361 OA
BRANCH  21  22
HETATM   22  C18 UNL     1       9.413 -17.278  -0.581  1.00  0.00     0.170 C
BRANCH  22  23
HETATM   23  C19 UNL     1       9.018 -16.755   0.784  1.00  0.00     0.198 C
BRANCH  23  24
HETATM   24  O3  UNL     1       8.708 -15.412   0.785  1.00  0.00    -0.398 OA
ATOM     25  H3  UNL     1       8.043 -15.180   1.422  1.00  0.00     0.209 HD
ENDBRANCH  23  24
ENDBRANCH  22  23
BRANCH  22  26
HETATM   26  C20 UNL     1      10.891 -17.593  -0.614  1.00  0.00     0.198 C
BRANCH  26  27
HETATM   27  O4  UNL     1      11.608 -16.786   0.267  1.00  0.00    -0.398 OA
ATOM     28  H4  UNL     1      11.145 -15.980   0.459  1.00  0.00     0.209 HD
ENDBRANCH  26  27
ENDBRANCH  22  26
ENDBRANCH  21  22
ENDBRANCH  20  21
ENDBRANCH  16  20
BRANCH  17  29
HETATM   29  N9  UNL     1      11.977 -15.192  -2.319  1.00  0.00    -0.234 N
ATOM     30  H92 UNL     1      12.922 -15.491  -2.562  1.00  0.00     0.174 HD
ATOM     31  H91 UNL     1      11.648 -15.244  -1.355  1.00  0.00     0.174 HD
ENDBRANCH  17  29
ENDBRANCH   9  11
ENDBRANCH   6   9
BRANCH   4  32
HETATM   32  N3  UNL     1       6.712  -9.596  -5.836  1.00  0.00    -0.364 N
HETATM   33  C3  UNL     1       6.069 -10.799  -6.343  1.00  0.00     0.144 C
HETATM   34  C4  UNL     1       5.053 -11.202  -5.266  1.00  0.00     0.143 C
HETATM   35  N4  UNL     1       4.147 -10.077  -5.144  1.00  0.00    -0.376 N
HETATM   36  C11 UNL     1       4.724  -8.826  -4.687  1.00  0.00     0.143 C
HETATM   37  C12 UNL     1       5.885  -8.456  -5.613  1.00  0.00     0.144 C
BRANCH  35  38
HETATM   38  C5  UNL     1       2.773 -10.191  -5.454  1.00  0.00     0.063 A
HETATM   39  C6  UNL     1       1.943 -10.741  -4.470  1.00  0.00     0.032 A
HETATM   40  C7  UNL     1       0.585 -10.863  -4.732  1.00  0.00     0.002 A
HETATM   41  C8  UNL     1       0.051 -10.447  -5.947  1.00  0.00     0.003 A
HETATM   42  C9  UNL     1       0.893  -9.913  -6.889  1.00  0.00     0.039 A
HETATM   43  C10 UNL     1       2.244  -9.783  -6.649  1.00  0.00     0.092 A
BRANCH  43  44
HETATM   44  O1  UNL     1       3.074  -9.244  -7.610  1.00  0.00    -0.358 OA
ATOM     45  H1  UNL     1       3.754  -8.632  -7.351  1.00  0.00     0.217 HD
ENDBRANCH  43  44
ENDBRANCH  35  38
ENDBRANCH   4  32
BRANCH   1  46
HETATM   46  N1  UNL     1      10.756  -7.465  -4.824  1.00  0.00    -0.234 N
ATOM     47  H12 UNL     1      10.688  -6.689  -5.483  1.00  0.00     0.174 HD
ATOM     48  H11 UNL     1      11.282  -7.389  -3.953  1.00  0.00     0.174 HD
ENDBRANCH   1  46
TORSDOF 14
ENDMDL