MODEL 4
REMARK VINA RESULT: -7.648189263      2.104      3.789
REMARK  13 active torsions:
REMARK  status: ('A' for Active; 'I' for Inactive)
REMARK    1  A    between atoms: C3_4  and  N2_5
REMARK    2  A    between atoms: C4_8  and  N3_9
REMARK    3  A    between atoms: C5_11  and  N4_12
REMARK    4  A    between atoms: C5_11  and  O4_22
REMARK    5  A    between atoms: N4_12  and  C6_14
REMARK    6  A    between atoms: C6_14  and  C7_15
REMARK    7  A    between atoms: C7_15  and  N5_16
REMARK    8  A    between atoms: C7_15  and  O3_20
REMARK    9  A    between atoms: O4_22  and  N6_23
REMARK       I    between atoms: N6_23  and  C8_25
REMARK   10  A    between atoms: C8_25  and  C9_27
REMARK   11  A    between atoms: C9_27  and  C10_28
REMARK   12  A    between atoms: C13_31  and  S1_32
REMARK   13  A    between atoms: S1_32  and  N7_33
ROOT
HETATM    1  N1  UNL     1       9.151  -5.549  -5.480  1.00  0.00    -0.191 NA
HETATM    2  C1  UNL     1       9.076  -6.693  -5.546  1.00  0.00     0.106 C
HETATM    3  C2  UNL     1       9.010  -8.131  -5.630  1.00  0.00     0.123 A
HETATM    4  C3  UNL     1       7.851  -8.791  -5.960  1.00  0.00     0.157 A
HETATM    5  C4  UNL     1       7.812 -10.183  -6.033  1.00  0.00     0.112 A
HETATM    6  C16 UNL     1       8.981 -10.846  -5.761  1.00  0.00     0.147 A
HETATM    7  N8  UNL     1       9.000 -12.258  -5.826  1.00  0.00    -0.080 NA
HETATM    8  N9  UNL     1      10.085 -10.178  -5.446  1.00  0.00    -0.328 N
ATOM      9  H9  UNL     1      10.929 -10.716  -5.253  1.00  0.00     0.168 HD
HETATM   10  C17 UNL     1      10.160  -8.834  -5.365  1.00  0.00     0.123 A
HETATM   11  N10 UNL     1      11.287  -8.241  -5.044  1.00  0.00    -0.384 N
ATOM     12 1H10 UNL     1      12.140  -8.763  -4.847  1.00  0.00     0.157 HD
ATOM     13 2H10 UNL     1      11.345  -7.224  -4.983  1.00  0.00     0.157 HD
ENDROOT
BRANCH   4  14
HETATM   14  N2  UNL     1       6.695  -8.005  -6.222  1.00  0.00    -0.111 N
HETATM   15  O1  UNL     1       6.638  -7.302  -7.223  1.00  0.00    -0.532 OA
HETATM   16  O2  UNL     1       5.662  -8.054  -5.334  1.00  0.00    -0.532 OA
ENDBRANCH   4  14
BRANCH   5  17
HETATM   17  N3  UNL     1       6.617 -10.747  -6.357  1.00  0.00    -0.316 N
HETATM   18  C5  UNL     1       5.691 -11.435  -6.025  1.00  0.00     0.244 C
ATOM     19  H3  UNL     1       6.418 -10.452  -7.313  1.00  0.00     0.169 HD
BRANCH  18  20
HETATM   20  N4  UNL     1       4.602 -11.673  -6.957  1.00  0.00    -0.350 N
ATOM     21  H4  UNL     1       4.091 -12.555  -6.931  1.00  0.00     0.163 HD
BRANCH  20  22
HETATM   22  C6  UNL     1       4.245 -10.651  -7.926  1.00  0.00     0.184 C
BRANCH  22  23
HETATM   23  C7  UNL     1       2.950 -10.025  -7.486  1.00  0.00     0.334 C
BRANCH  23  24
HETATM   24  N5  UNL     1       3.284  -8.905  -6.623  1.00  0.00    -0.051 N
ATOM     25  H53 UNL     1       4.283  -8.831  -6.434  1.00  0.00     0.277 HD
ATOM     26  H52 UNL     1       3.170  -8.000  -7.080  1.00  0.00     0.277 HD
ATOM     27  H51 UNL     1       2.723  -8.997  -5.775  1.00  0.00     0.277 HD
ENDBRANCH  23  24
BRANCH  23  28
HETATM   28  O3  UNL     1       2.165  -9.626  -8.568  1.00  0.00    -0.369 OA
ATOM     29  H3  UNL     1       1.514  -8.981  -8.320  1.00  0.00     0.212 HD
ENDBRANCH  23  28
ENDBRANCH  22  23
ENDBRANCH  20  22
ENDBRANCH  18  20
BRANCH  18  30
HETATM   30  O4  UNL     1       5.607 -12.019  -4.790  1.00  0.00    -0.198 OA
BRANCH  30  31
HETATM   31  N6  UNL     1       4.547 -11.751  -3.980  1.00  0.00    -0.225 N
HETATM   32  C8  UNL     1       3.449 -12.621  -4.100  1.00  0.00     0.245 C
HETATM   33  O5  UNL     1       3.425 -13.587  -4.893  1.00  0.00    -0.271 OA
ATOM     34  H6  UNL     1       4.549 -10.968  -3.326  1.00  0.00     0.198 HD
BRANCH  32  35
HETATM   35  C9  UNL     1       2.263 -12.386  -3.250  1.00  0.00     0.143 C
BRANCH  35  36
HETATM   36  C10 UNL     1       1.081 -11.888  -3.950  1.00  0.00    -0.049 A
HETATM   37  C11 UNL     1       0.070 -12.746  -4.327  1.00  0.00     0.009 A
HETATM   38  C12 UNL     1      -1.054 -12.287  -4.988  1.00  0.00     0.026 A
HETATM   39  C13 UNL     1      -1.166 -10.948  -5.278  1.00  0.00     0.079 A
HETATM   40  C14 UNL     1      -0.149 -10.067  -4.903  1.00  0.00     0.026 A
HETATM   41  C15 UNL     1       0.968 -10.524  -4.244  1.00  0.00     0.009 A
BRANCH  39  42
HETATM   42  S1  UNL     1      -2.595 -10.397  -6.110  1.00  0.00     0.256 S
HETATM   43  O6  UNL     1      -3.722 -10.129  -5.153  1.00  0.00    -0.201 OA
HETATM   44  O7  UNL     1      -3.036 -11.416  -7.146  1.00  0.00    -0.201 OA
BRANCH  42  45
HETATM   45  N7  UNL     1      -2.197  -8.901  -6.884  1.00  0.00    -0.324 N
ATOM     46  H72 UNL     1      -1.265  -8.490  -6.936  1.00  0.00     0.169 HD
ATOM     47  H71 UNL     1      -3.060  -8.520  -7.271  1.00  0.00     0.169 HD
ENDBRANCH  42  45
ENDBRANCH  39  42
ENDBRANCH  35  36
ENDBRANCH  32  35
ENDBRANCH  30  31
ENDBRANCH  18  30
ENDBRANCH   5  17
TORSDOF 13
ENDMDL