MODEL 4
REMARK VINA RESULT: -7.846061984      1.546      1.831
REMARK  14 active torsions:
REMARK  status: ('A' for Active; 'I' for Inactive)
REMARK    1  A    between atoms: C2_2  and  C3_4
REMARK    2  A    between atoms: C6_11  and  N3_12
REMARK    3  A    between atoms: N3_12  and  S1_14
REMARK    4  A    between atoms: S1_14  and  C7_17
REMARK    5  A    between atoms: C9_21  and  N5_22
REMARK    6  A    between atoms: C10_27  and  N7_28
REMARK    7  A    between atoms: N9_34  and  C12_35
REMARK    8  A    between atoms: C12_35  and  C13_36
REMARK    9  A    between atoms: C13_36  and  C14_38
REMARK   10  A    between atoms: C14_38  and  C15_39
REMARK   11  A    between atoms: C15_39  and  C16_40
REMARK   12  A    between atoms: C16_40  and  O5_41
REMARK   13  A    between atoms: N10_43  and  O6_45
REMARK   14  A    between atoms: C17_47  and  O7_48
ROOT
HETATM    1  C7  UNL     1       5.277 -12.438  -5.244  1.00  0.00     0.229 A
HETATM    2  N4  UNL     1       6.309 -13.286  -5.403  1.00  0.00    -0.325 N
ATOM      3  H4  UNL     1       6.240 -14.258  -5.703  1.00  0.00     0.168 HD
HETATM    4  C8  UNL     1       7.447 -12.636  -5.100  1.00  0.00     0.124 A
HETATM    5  C9  UNL     1       8.769 -13.019  -5.090  1.00  0.00     0.145 A
HETATM    6  N6  UNL     1       9.698 -12.123  -4.731  1.00  0.00    -0.175 N
ATOM      7  H6  UNL     1      10.682 -12.394  -4.719  1.00  0.00     0.186 HD
HETATM    8  C10 UNL     1       9.343 -10.852  -4.381  1.00  0.00     0.679 A
HETATM    9  N8  UNL     1       8.048 -10.500  -4.399  1.00  0.00    -0.174 N
ATOM     10  H8  UNL     1       7.801  -9.546  -4.136  1.00  0.00     0.186 HD
HETATM   11  C11 UNL     1       7.054 -11.348  -4.749  1.00  0.00     0.156 A
HETATM   12  N9  UNL     1       5.714 -11.237  -4.841  1.00  0.00    -0.299 N
ENDROOT
BRANCH   1  13
HETATM   13  S1  UNL     1       3.609 -12.885  -5.531  1.00  0.00     0.296 S
HETATM   14  O2  UNL     1       2.921 -12.962  -4.200  1.00  0.00    -0.197 OA
HETATM   15  O3  UNL     1       3.519 -14.253  -6.150  1.00  0.00    -0.197 OA
BRANCH  13  16
HETATM   16  N3  UNL     1       2.819 -11.742  -6.520  1.00  0.00    -0.260 N
ATOM     17  H3  UNL     1       3.357 -11.328  -7.281  1.00  0.00     0.180 HD
BRANCH  16  18
HETATM   18  C6  UNL     1       1.593 -11.360  -6.380  1.00  0.00     0.164 A
HETATM   19  N2  UNL     1       0.672 -12.130  -5.783  1.00  0.00    -0.282 N
HETATM   20  N1  UNL     1      -0.565 -11.704  -5.664  1.00  0.00    -0.303 N
ATOM     21  H2  UNL     1       0.931 -13.048  -5.421  1.00  0.00     0.188 HD
HETATM   22  C4  UNL     1      -0.972 -10.496  -6.125  1.00  0.00     0.038 A
ATOM     23  H1  UNL     1      -1.248 -12.307  -5.206  1.00  0.00     0.186 HD
HETATM   24  C3  UNL     1      -0.074  -9.662  -6.746  1.00  0.00     0.070 A
HETATM   25  C5  UNL     1      -2.381 -10.106  -5.947  1.00  0.00     0.071 C
HETATM   26  C17 UNL     1       1.232 -10.105  -6.875  1.00  0.00     0.128 A
BRANCH  24  27
HETATM   27  C2  UNL     1      -0.503  -8.378  -7.237  1.00  0.00     0.160 C
HETATM   28  C1  UNL     1      -0.732  -7.181  -6.351  1.00  0.00     0.097 C
HETATM   29  O1  UNL     1      -0.724  -8.150  -8.462  1.00  0.00    -0.293 OA
ENDBRANCH  24  27
BRANCH  26  30
HETATM   30  O7  UNL     1       2.165  -9.291  -7.495  1.00  0.00    -0.356 OA
ATOM     31  H7  UNL     1       3.081  -9.544  -7.485  1.00  0.00     0.218 HD
ENDBRANCH  26  30
ENDBRANCH  16  18
ENDBRANCH  13  16
ENDBRANCH   1  13
BRANCH  12  32
HETATM   32  C12 UNL     1       4.946 -10.057  -4.559  1.00  0.00     0.211 C
BRANCH  32  33
HETATM   33  C13 UNL     1       5.044  -9.014  -5.599  1.00  0.00     0.145 C
HETATM   34  O4  UNL     1       4.773  -9.188  -6.784  1.00  0.00    -0.296 OA
BRANCH  33  35
HETATM   35  C14 UNL     1       5.500  -7.661  -5.174  1.00  0.00     0.088 C
BRANCH  35  36
HETATM   36  C15 UNL     1       6.311  -6.980  -6.253  1.00  0.00     0.093 C
BRANCH  36  37
HETATM   37  C16 UNL     1       7.690  -7.490  -6.263  1.00  0.00     0.135 C
HETATM   38  N10 UNL     1       8.732  -6.826  -5.922  1.00  0.00    -0.251 N
ATOM     39  H10 UNL     1       9.643  -7.283  -5.968  1.00  0.00     0.196 HD
BRANCH  37  40
HETATM   40  O5  UNL     1       7.882  -8.818  -6.680  1.00  0.00    -0.348 OA
ATOM     41  H5  UNL     1       8.776  -9.103  -6.827  1.00  0.00     0.219 HD
ENDBRANCH  37  40
BRANCH  38  42
HETATM   42  O6  UNL     1       8.666  -5.522  -5.499  1.00  0.00    -0.288 OA
ATOM     43  H6  UNL     1       8.592  -5.289  -4.581  1.00  0.00     0.244 HD
ENDBRANCH  38  42
ENDBRANCH  36  37
ENDBRANCH  35  36
ENDBRANCH  33  35
ENDBRANCH  32  33
ENDBRANCH  12  32
BRANCH   5  44
HETATM   44  N5  UNL     1       9.145 -14.200  -5.412  1.00  0.00    -0.383 N
ATOM     45  H52 UNL     1       8.604 -14.996  -5.073  1.00  0.00     0.157 HD
ATOM     46  H51 UNL     1       9.965 -14.374  -5.993  1.00  0.00     0.157 HD
ENDBRANCH   5  44
BRANCH   8  47
HETATM   47  N7  UNL     1      10.256 -10.008  -4.038  1.00  0.00    -0.234 N
ATOM     48  H72 UNL     1      11.225 -10.303  -3.917  1.00  0.00     0.174 HD
ATOM     49  H71 UNL     1      10.006  -9.031  -3.886  1.00  0.00     0.174 HD
ENDBRANCH   8  47
TORSDOF 14
ENDMDL