MODEL 4
REMARK VINA RESULT: -7.108760812      4.100      6.631
REMARK  13 active torsions:
REMARK  status: ('A' for Active; 'I' for Inactive)
REMARK    1  A    between atoms: C2_2  and  O1_3
REMARK    2  A    between atoms: C6_10  and  C7_11
REMARK    3  A    between atoms: C8_14  and  S1_15
REMARK    4  A    between atoms: S1_15  and  C9_16
REMARK    5  A    between atoms: C10_20  and  O5_21
REMARK    6  A    between atoms: O5_21  and  C11_22
REMARK    7  A    between atoms: C11_22  and  C12_26
REMARK    8  A    between atoms: C12_26  and  C13_27
REMARK    9  A    between atoms: C13_27  and  N6_28
REMARK   10  A    between atoms: C17_32  and  C18_33
REMARK   11  A    between atoms: C18_33  and  C19_34
REMARK   12  A    between atoms: C19_34  and  O6_35
REMARK   13  A    between atoms: C20_37  and  N7_38
ROOT
HETATM    1  C9  UNL     1       7.646  -9.376  -5.476  1.00  0.00     0.209 C
HETATM    2  N2  UNL     1       8.384  -8.300  -6.042  1.00  0.00    -0.110 NA
HETATM    3  N3  UNL     1       9.642  -8.266  -5.511  1.00  0.00    -0.036 NA
HETATM    4  N4  UNL     1       9.796  -9.311  -4.628  1.00  0.00    -0.095 NA
HETATM    5  C10 UNL     1       8.705 -10.233  -4.832  1.00  0.00     0.271 C
ENDROOT
BRANCH   1   6
HETATM    6  S1  UNL     1       6.598 -10.263  -6.601  1.00  0.00    -0.102 SA
BRANCH   6   7
HETATM    7  C8  UNL     1       5.356 -11.195  -5.754  1.00  0.00     0.046 C
HETATM    8  C6  UNL     1       4.058 -10.716  -5.862  1.00  0.00     0.125 C
HETATM    9  N1  UNL     1       3.124 -11.477  -5.173  1.00  0.00    -0.339 N
HETATM   10  C2  UNL     1       3.536 -11.959  -3.869  1.00  0.00     0.159 C
HETATM   11  C5  UNL     1       1.936 -12.013  -5.728  1.00  0.00     0.152 C
HETATM   12  C1  UNL     1       2.497 -12.431  -2.955  1.00  0.00     0.074 C
HETATM   13  C3  UNL     1       4.390 -13.154  -4.474  1.00  0.00     0.212 C
HETATM   14  O2  UNL     1       3.718 -13.677  -5.543  1.00  0.00    -0.377 OA
HETATM   15  C20 UNL     1       5.617 -12.435  -4.998  1.00  0.00     0.259 C
HETATM   16  C4  UNL     1       2.359 -13.556  -5.664  1.00  0.00     0.188 C
BRANCH   8  17
HETATM   17  C7  UNL     1       3.693  -9.592  -6.687  1.00  0.00     0.228 C
HETATM   18  O3  UNL     1       3.702  -8.430  -6.207  1.00  0.00    -0.643 OA
HETATM   19  O4  UNL     1       3.320  -9.715  -8.016  1.00  0.00    -0.643 OA
ENDBRANCH   8  17
BRANCH  10  20
HETATM   20  O1  UNL     1       4.405 -11.070  -3.282  1.00  0.00    -0.368 OA
ATOM     21  H1  UNL     1       5.196 -10.932  -3.791  1.00  0.00     0.212 HD
ENDBRANCH  10  20
BRANCH  15  22
HETATM   22  N7  UNL     1       6.349 -13.423  -5.794  1.00  0.00    -0.068 N
ATOM     23  H73 UNL     1       5.757 -13.949  -6.437  1.00  0.00     0.275 HD
ATOM     24  H72 UNL     1       6.957 -13.007  -6.501  1.00  0.00     0.275 HD
ATOM     25  H71 UNL     1       6.845 -14.009  -5.123  1.00  0.00     0.275 HD
ENDBRANCH  15  22
ENDBRANCH   6   7
ENDBRANCH   1   6
BRANCH   5  26
HETATM   26  O5  UNL     1       9.039 -11.416  -5.417  1.00  0.00    -0.314 OA
BRANCH  26  27
HETATM   27  C11 UNL     1       9.999 -12.341  -5.109  1.00  0.00     0.115 C
HETATM   28  N5  UNL     1      11.139 -11.881  -4.725  1.00  0.00    -0.383 N
ATOM     29  H52 UNL     1      11.283 -10.872  -4.668  1.00  0.00     0.157 HD
ATOM     30  H51 UNL     1      11.854 -12.570  -4.495  1.00  0.00     0.157 HD
BRANCH  27  31
HETATM   31  C12 UNL     1       9.789 -13.811  -5.193  1.00  0.00     0.114 C
BRANCH  31  32
HETATM   32  C13 UNL     1       9.180 -14.349  -3.916  1.00  0.00     0.281 C
BRANCH  32  33
HETATM   33  N6  UNL     1       9.681 -15.672  -3.571  1.00  0.00     0.093 N
HETATM   34  C14 UNL     1      10.952 -15.936  -4.151  1.00  0.00     0.273 C
HETATM   35  C15 UNL     1      11.919 -16.393  -3.092  1.00  0.00     0.032 C
HETATM   36  C16 UNL     1      11.098 -16.503  -1.850  1.00  0.00     0.037 C
HETATM   37  C17 UNL     1       9.853 -15.739  -2.159  1.00  0.00     0.225 C
BRANCH  37  38
HETATM   38  C18 UNL     1       8.646 -16.310  -1.442  1.00  0.00     0.062 C
BRANCH  38  39
HETATM   39  C19 UNL     1       8.890 -16.556   0.014  1.00  0.00     0.166 C
BRANCH  39  40
HETATM   40  O6  UNL     1       8.524 -15.451   0.751  1.00  0.00    -0.401 OA
ATOM     41  H6  UNL     1       9.159 -15.290   1.440  1.00  0.00     0.209 HD
ENDBRANCH  39  40
ENDBRANCH  38  39
ENDBRANCH  37  38
ENDBRANCH  32  33
ENDBRANCH  31  32
ENDBRANCH  27  31
ENDBRANCH  26  27
ENDBRANCH   5  26
TORSDOF 13
ENDMDL