MODEL 3
REMARK VINA RESULT: -8.037778892      2.716     10.494
REMARK  14 active torsions:
REMARK  status: ('A' for Active; 'I' for Inactive)
REMARK    1  A    between atoms: C3_5  and  N2_6
REMARK    2  A    between atoms: N2_6  and  C4_8
REMARK    3  A    between atoms: C4_8  and  C5_9
REMARK    4  A    between atoms: C4_8  and  C6_12
REMARK    5  A    between atoms: C5_9  and  O1_10
REMARK    6  A    between atoms: C6_12  and  O2_13
REMARK    7  A    between atoms: C7_17  and  N4_18
REMARK    8  A    between atoms: N4_18  and  C8_20
REMARK    9  A    between atoms: C11_23  and  N5_24
REMARK       I    between atoms: N5_24  and  C12_26
REMARK   10  A    between atoms: C12_26  and  C13_28
REMARK   11  A    between atoms: C13_28  and  C14_29
REMARK   12  A    between atoms: C13_28  and  N9_39
REMARK   13  A    between atoms: C15_32  and  N7_33
REMARK   14  A    between atoms: C18_45  and  O5_46
ROOT
HETATM    1  C8  UNL     1       5.617 -11.261  -7.053  1.00  0.00     0.052 A
HETATM    2  C9  UNL     1       4.776 -12.339  -6.919  1.00  0.00     0.032 A
HETATM    3  C10 UNL     1       3.444 -12.103  -6.619  1.00  0.00     0.035 A
HETATM    4  C11 UNL     1       2.946 -10.838  -6.453  1.00  0.00     0.068 A
HETATM    5  C18 UNL     1       3.835  -9.763  -6.598  1.00  0.00     0.094 A
HETATM    6  C19 UNL     1       5.166  -9.965  -6.897  1.00  0.00     0.069 A
ENDROOT
BRANCH   1   7
HETATM    7  N4  UNL     1       6.966 -11.479  -7.357  1.00  0.00    -0.191 N
ATOM      8  H4  UNL     1       7.213 -11.619  -8.336  1.00  0.00     0.184 HD
BRANCH   7   9
HETATM    9  C7  UNL     1       7.913 -11.517  -6.493  1.00  0.00     0.698 A
HETATM   10  N3  UNL     1       8.233 -12.658  -5.861  1.00  0.00    -0.022 N
HETATM   11  C3  UNL     1       9.218 -12.735  -4.951  1.00  0.00     0.694 A
ATOM     12  H3  UNL     1       7.706 -13.503  -6.082  1.00  0.00     0.203 HD
HETATM   13  N1  UNL     1       9.896 -11.570  -4.689  1.00  0.00    -0.180 N
HETATM   14  C2  UNL     1       9.600 -10.420  -5.302  1.00  0.00     0.109 A
ATOM     15  H1  UNL     1      10.652 -11.583  -4.005  1.00  0.00     0.185 HD
HETATM   16  C1  UNL     1      10.344  -9.151  -5.012  1.00  0.00     0.090 C
HETATM   17  N12 UNL     1       8.600 -10.409  -6.205  1.00  0.00    -0.180 N
ATOM     18  H12 UNL     1       8.363  -9.538  -6.680  1.00  0.00     0.185 HD
BRANCH  11  19
HETATM   19  N2  UNL     1       9.545 -13.807  -4.336  1.00  0.00    -0.217 N
ATOM     20  H2  UNL     1       8.816 -14.489  -4.129  1.00  0.00     0.178 HD
BRANCH  19  21
HETATM   21  C4  UNL     1      10.875 -14.091  -3.926  1.00  0.00     0.146 C
BRANCH  21  22
HETATM   22  C5  UNL     1      10.927 -15.239  -2.918  1.00  0.00     0.192 C
BRANCH  22  23
HETATM   23  O1  UNL     1      12.143 -15.126  -2.249  1.00  0.00    -0.399 OA
ATOM     24  H1  UNL     1      12.722 -15.778  -2.627  1.00  0.00     0.209 HD
ENDBRANCH  22  23
ENDBRANCH  21  22
BRANCH  21  25
HETATM   25  C6  UNL     1      11.699 -14.432  -5.150  1.00  0.00     0.192 C
BRANCH  25  26
HETATM   26  O2  UNL     1      13.012 -14.110  -4.896  1.00  0.00    -0.399 OA
ATOM     27  H2  UNL     1      13.468 -14.897  -4.621  1.00  0.00     0.209 HD
ENDBRANCH  25  26
ENDBRANCH  21  25
ENDBRANCH  19  21
ENDBRANCH  11  19
ENDBRANCH   7   9
ENDBRANCH   1   7
BRANCH   5  28
HETATM   28  O5  UNL     1       3.340  -8.492  -6.433  1.00  0.00    -0.358 OA
ATOM     29  H5  UNL     1       3.961  -7.774  -6.396  1.00  0.00     0.217 HD
ENDBRANCH   5  28
BRANCH   4  30
HETATM   30  N5  UNL     1       1.598 -10.559  -6.148  1.00  0.00    -0.323 N
HETATM   31  C12 UNL     1       0.978 -10.560  -4.902  1.00  0.00     0.255 C
HETATM   32  O3  UNL     1       1.527 -10.816  -3.820  1.00  0.00    -0.270 OA
ATOM     33  H5  UNL     1       1.001 -10.326  -6.941  1.00  0.00     0.169 HD
BRANCH  31  34
HETATM   34  C13 UNL     1      -0.496 -10.224  -4.828  1.00  0.00     0.275 C
BRANCH  34  35
HETATM   35  C14 UNL     1      -0.673  -8.852  -5.338  1.00  0.00     0.196 A
HETATM   36  N6  UNL     1      -1.362  -7.842  -4.767  1.00  0.00    -0.168 N
HETATM   37  C15 UNL     1      -1.282  -6.759  -5.541  1.00  0.00     0.698 A
ATOM     38  H6  UNL     1      -1.865  -7.897  -3.882  1.00  0.00     0.186 HD
HETATM   39  N8  UNL     1      -0.530  -7.118  -6.600  1.00  0.00    -0.090 N
HETATM   40  O4  UNL     1      -0.182  -8.357  -6.458  1.00  0.00    -0.206 OA
ATOM     41  H8  UNL     1      -0.278  -6.515  -7.383  1.00  0.00     0.213 HD
BRANCH  37  42
HETATM   42  N7  UNL     1      -1.813  -5.591  -5.333  1.00  0.00    -0.233 N
ATOM     43  H72 UNL     1      -1.983  -5.156  -4.425  1.00  0.00     0.174 HD
ATOM     44  H71 UNL     1      -2.143  -4.922  -6.028  1.00  0.00     0.174 HD
ENDBRANCH  37  42
ENDBRANCH  34  35
BRANCH  34  45
HETATM   45  N9  UNL     1      -1.264 -11.196  -5.539  1.00  0.00    -0.264 N
HETATM   46  C16 UNL     1      -2.486 -11.090  -6.110  1.00  0.00     0.127 A
HETATM   47  C17 UNL     1      -2.802 -12.292  -6.675  1.00  0.00     0.123 A
HETATM   48  N10 UNL     1      -1.762 -13.111  -6.436  1.00  0.00    -0.294 N
HETATM   49  N11 UNL     1      -0.852 -12.438  -5.756  1.00  0.00    -0.020 NA
ATOM     50  H10 UNL     1      -1.689 -14.085  -6.730  1.00  0.00     0.183 HD
ENDBRANCH  34  45
ENDBRANCH  31  34
ENDBRANCH   4  30
TORSDOF 14
ENDMDL