MODEL 2
REMARK VINA RESULT: -8.893050529      2.651      5.196
REMARK  13 active torsions:
REMARK  status: ('A' for Active; 'I' for Inactive)
REMARK    1  A    between atoms: N1_2  and  C2_4
REMARK    2  A    between atoms: C5_10  and  C6_11
REMARK    3  A    between atoms: C6_11  and  N3_12
REMARK    4  A    between atoms: C8_14  and  C9_15
REMARK    5  A    between atoms: C9_15  and  N4_16
REMARK    6  A    between atoms: C11_18  and  C12_19
REMARK    7  A    between atoms: C12_19  and  N5_20
REMARK       I    between atoms: N5_20  and  C13_22
REMARK    8  A    between atoms: C16_40  and  O2_41
REMARK    9  A    between atoms: C17_43  and  N13_44
REMARK   10  A    between atoms: N13_44  and  C18_45
REMARK   11  A    between atoms: C18_45  and  O3_46
REMARK   12  A    between atoms: C18_45  and  C19_48
REMARK   13  A    between atoms: C19_48  and  N14_50
ROOT
HETATM    1  C2  UNL     1      -1.727  -8.929  -6.183  1.00  0.00     0.147 A
HETATM    2  N2  UNL     1      -0.537  -8.485  -6.572  1.00  0.00    -0.319 N
ATOM      3  H2  UNL     1      -0.442  -7.503  -6.830  1.00  0.00     0.169 HD
HETATM    4  C3  UNL     1       0.531  -9.266  -6.637  1.00  0.00     0.164 A
HETATM    5  O1  UNL     1       1.683  -8.817  -7.016  1.00  0.00    -0.304 OA
HETATM    6  C4  UNL     1       2.786  -9.447  -7.123  1.00  0.00     0.155 A
HETATM    7  C5  UNL     1       2.730 -10.797  -6.787  1.00  0.00     0.011 A
HETATM    8  C14 UNL     1       1.570 -11.403  -6.368  1.00  0.00     0.053 A
HETATM    9  N12 UNL     1       1.525 -12.631  -6.077  1.00  0.00    -0.398 N
ATOM     10 1H12 UNL     1       0.664 -13.080  -5.766  1.00  0.00     0.156 HD
ATOM     11 2H12 UNL     1       2.358 -13.215  -6.134  1.00  0.00     0.156 HD
HETATM   12  C15 UNL     1       0.426 -10.600  -6.291  1.00  0.00     0.079 A
HETATM   13  C16 UNL     1      -0.788 -11.131  -5.875  1.00  0.00     0.127 A
HETATM   14  C17 UNL     1      -1.900 -10.258  -5.821  1.00  0.00     0.187 A
ENDROOT
BRANCH   7  15
HETATM   15  C6  UNL     1       3.940 -11.656  -6.912  1.00  0.00     0.192 C
BRANCH  15  16
HETATM   16  N3  UNL     1       5.003 -11.111  -6.099  1.00  0.00    -0.282 N
HETATM   17  C7  UNL     1       6.144 -10.581  -6.519  1.00  0.00     0.144 A
HETATM   18  C8  UNL     1       6.936 -10.213  -5.462  1.00  0.00     0.084 A
HETATM   19  N10 UNL     1       6.219 -10.543  -4.351  1.00  0.00    -0.283 N
HETATM   20  N11 UNL     1       5.057 -11.083  -4.806  1.00  0.00    -0.240 N
ATOM     21  H10 UNL     1       6.496 -10.413  -3.378  1.00  0.00     0.188 HD
ATOM     22  H11 UNL     1       4.314 -11.427  -4.199  1.00  0.00     0.208 HD
BRANCH  18  23
HETATM   23  C9  UNL     1       8.214  -9.576  -5.608  1.00  0.00     0.149 C
BRANCH  23  24
HETATM   24  N4  UNL     1       9.404 -10.294  -5.289  1.00  0.00    -0.260 N
HETATM   25  C10 UNL     1       9.571 -11.619  -5.236  1.00  0.00     0.145 A
HETATM   26  C11 UNL     1      10.886 -11.891  -4.844  1.00  0.00     0.062 A
HETATM   27  N8  UNL     1      11.445 -10.701  -4.684  1.00  0.00    -0.287 N
HETATM   28  N9  UNL     1      10.597  -9.762  -4.939  1.00  0.00    -0.237 N
ATOM     29  H8  UNL     1      12.413 -10.547  -4.398  1.00  0.00     0.188 HD
ATOM     30  H9  UNL     1      10.798  -8.763  -4.885  1.00  0.00     0.209 HD
BRANCH  26  31
HETATM   31  C12 UNL     1      11.406 -13.248  -4.644  1.00  0.00     0.182 C
BRANCH  31  32
HETATM   32  N5  UNL     1      10.417 -14.140  -4.062  1.00  0.00    -0.359 N
HETATM   33  C13 UNL     1      11.019 -15.263  -3.368  1.00  0.00     0.182 C
HETATM   34  N6  UNL     1      11.751 -15.177  -2.354  1.00  0.00    -0.374 N
HETATM   35  N7  UNL     1      10.796 -16.613  -3.838  1.00  0.00    -0.064 NA
ATOM     36  H62 UNL     1      11.908 -14.226  -2.023  1.00  0.00     0.158 HD
ATOM     37  H61 UNL     1      12.174 -15.966  -1.866  1.00  0.00     0.158 HD
ATOM     38  H5  UNL     1       9.409 -13.992  -4.134  1.00  0.00     0.162 HD
ENDBRANCH  31  32
ENDBRANCH  26  31
ENDBRANCH  23  24
ENDBRANCH  18  23
ENDBRANCH  15  16
ENDBRANCH   7  15
BRANCH  13  39
HETATM   39  O2  UNL     1      -0.951 -12.424  -5.522  1.00  0.00    -0.356 OA
ATOM     40  H2  UNL     1      -1.302 -12.696  -4.683  1.00  0.00     0.218 HD
ENDBRANCH  13  39
BRANCH  14  41
HETATM   41  N13 UNL     1      -3.123 -10.703  -5.263  1.00  0.00    -0.376 NA
BRANCH  41  42
HETATM   42  C18 UNL     1      -4.231 -11.126  -4.734  1.00  0.00     0.212 C
BRANCH  42  43
HETATM   43  O3  UNL     1      -5.252 -10.309  -4.508  1.00  0.00    -0.337 OA
ATOM     44  H3  UNL     1      -5.531 -10.091  -3.626  1.00  0.00     0.220 HD
ENDBRANCH  42  43
BRANCH  42  45
HETATM   45  C19 UNL     1      -4.623 -12.506  -4.284  1.00  0.00     0.160 C
HETATM   46  C20 UNL     1      -5.418 -12.319  -2.980  1.00  0.00     0.041 C
BRANCH  45  47
HETATM   47  N14 UNL     1      -3.627 -13.429  -4.056  1.00  0.00    -0.419 N
ATOM     48 2H14 UNL     1      -2.733 -12.939  -4.037  1.00  0.00     0.150 HD
ATOM     49 1H14 UNL     1      -3.515 -14.197  -4.718  1.00  0.00     0.150 HD
ENDBRANCH  45  47
ENDBRANCH  42  45
ENDBRANCH  41  42
ENDBRANCH  14  41
BRANCH   1  50
HETATM   50  N1  UNL     1      -2.760  -8.175  -6.161  1.00  0.00    -0.378 N
HETATM   51  C1  UNL     1      -2.946  -7.141  -5.160  1.00  0.00     0.147 C
ATOM     52  H1  UNL     1      -3.478  -8.305  -6.873  1.00  0.00     0.160 HD
ENDBRANCH   1  50
TORSDOF 13
ENDMDL