MODEL 3
REMARK VINA RESULT: -7.527690095      2.141      3.415
REMARK  13 active torsions:
REMARK  status: ('A' for Active; 'I' for Inactive)
REMARK    1  A    between atoms: N1_2  and  C3_4
REMARK    2  A    between atoms: C4_7  and  N3_8
REMARK    3  A    between atoms: N5_17  and  N6_18
REMARK    4  A    between atoms: N7_21  and  C8_22
REMARK    5  A    between atoms: N8_25  and  C11_26
REMARK    6  A    between atoms: C11_26  and  C12_27
REMARK    7  A    between atoms: C12_27  and  C13_28
REMARK    8  A    between atoms: C13_28  and  N9_29
REMARK    9  A    between atoms: N9_29  and  C14_31
REMARK   10  A    between atoms: C14_31  and  C15_35
REMARK   11  A    between atoms: C15_35  and  C16_36
REMARK   12  A    between atoms: C18_39  and  N11_40
REMARK   13  A    between atoms: C20_46  and  O2_47
ROOT
HETATM    1  C8  UNL     1       2.975 -10.672  -5.654  1.00  0.00     0.144 C
HETATM    2  C9  UNL     1       3.753 -10.828  -4.379  1.00  0.00     0.049 C
HETATM    3  C10 UNL     1       4.780  -9.681  -4.427  1.00  0.00     0.119 C
HETATM    4  N8  UNL     1       5.760 -10.054  -5.412  1.00  0.00    -0.410 N
HETATM    5  C19 UNL     1       5.360 -11.025  -6.362  1.00  0.00     0.150 C
HETATM    6  C20 UNL     1       3.912 -10.950  -6.794  1.00  0.00     0.160 C
ENDROOT
BRANCH   1   7
HETATM    7  N7  UNL     1       1.737 -11.381  -5.697  1.00  0.00    -0.243 N
HETATM    8  C5  UNL     1       0.556 -10.763  -5.934  1.00  0.00     0.159 A
HETATM    9  N4  UNL     1       0.200  -9.465  -6.176  1.00  0.00    -0.174 N
HETATM   10  C6  UNL     1      -0.453 -11.684  -5.914  1.00  0.00     0.126 A
HETATM   11  C4  UNL     1      -1.069  -9.098  -6.385  1.00  0.00     0.679 A
ATOM     12  H4  UNL     1       0.929  -8.751  -6.198  1.00  0.00     0.186 HD
HETATM   13  N2  UNL     1      -2.061  -9.992  -6.369  1.00  0.00    -0.176 N
HETATM   14  C3  UNL     1      -1.741 -11.292  -6.131  1.00  0.00     0.138 A
ATOM     15  H2  UNL     1      -3.028  -9.709  -6.530  1.00  0.00     0.186 HD
HETATM   16  C7  UNL     1       0.125 -12.893  -5.660  1.00  0.00     0.299 A
HETATM   17  O1  UNL     1      -0.473 -14.000  -5.564  1.00  0.00    -0.264 OA
HETATM   18  N5  UNL     1       1.464 -12.650  -5.535  1.00  0.00    -0.159 N
BRANCH  11  19
HETATM   19  N3  UNL     1      -1.332  -7.859  -6.607  1.00  0.00    -0.234 N
ATOM     20  H32 UNL     1      -2.077  -7.408  -6.077  1.00  0.00     0.174 HD
ATOM     21  H31 UNL     1      -0.794  -7.346  -7.304  1.00  0.00     0.174 HD
ENDBRANCH  11  19
BRANCH  14  22
HETATM   22  N1  UNL     1      -2.803 -12.233  -6.117  1.00  0.00    -0.375 N
HETATM   23  C1  UNL     1      -3.525 -12.408  -4.873  1.00  0.00     0.150 C
HETATM   24  C2  UNL     1      -3.190 -13.013  -7.273  1.00  0.00     0.150 C
ENDBRANCH  14  22
BRANCH  18  25
HETATM   25  N6  UNL     1       2.370 -13.649  -5.272  1.00  0.00    -0.321 N
ATOM     26  H62 UNL     1       2.327 -14.608  -5.618  1.00  0.00     0.179 HD
ATOM     27  H61 UNL     1       3.191 -13.500  -4.686  1.00  0.00     0.179 HD
ENDBRANCH  18  25
ENDBRANCH   1   7
BRANCH   6  28
HETATM   28  O2  UNL     1       3.598 -12.138  -7.455  1.00  0.00    -0.392 OA
ATOM     29  H2  UNL     1       3.070 -11.987  -8.230  1.00  0.00     0.210 HD
ENDBRANCH   6  28
BRANCH   4  30
HETATM   30  C11 UNL     1       6.605  -9.007  -5.873  1.00  0.00     0.118 C
BRANCH  30  31
HETATM   31  C12 UNL     1       8.037  -9.486  -5.996  1.00  0.00     0.039 C
BRANCH  31  32
HETATM   32  C13 UNL     1       8.512 -10.017  -4.649  1.00  0.00     0.122 C
BRANCH  32  33
HETATM   33  N9  UNL     1       8.853 -11.413  -4.751  1.00  0.00    -0.380 N
ATOM     34  H9  UNL     1       8.098 -12.098  -4.781  1.00  0.00     0.160 HD
BRANCH  33  35
HETATM   35  C14 UNL     1      10.194 -11.880  -4.811  1.00  0.00     0.076 C
HETATM   36  N10 UNL     1      11.111 -11.116  -4.386  1.00  0.00    -0.389 N
ATOM     37 2H10 UNL     1      10.868 -10.195  -4.019  1.00  0.00     0.157 HD
ATOM     38 1H10 UNL     1      12.073 -11.451  -4.430  1.00  0.00     0.157 HD
BRANCH  35  39
HETATM   39  C15 UNL     1      10.547 -13.217  -5.345  1.00  0.00     0.133 C
BRANCH  39  40
HETATM   40  C16 UNL     1      10.580 -14.206  -4.193  1.00  0.00     0.025 A
HETATM   41  C17 UNL     1       9.434 -14.863  -3.838  1.00  0.00     0.078 A
HETATM   42  S1  UNL     1       9.968 -15.836  -2.541  1.00  0.00    -0.064 SA
HETATM   43  C18 UNL     1      11.601 -15.354  -2.527  1.00  0.00     0.142 A
HETATM   44  N12 UNL     1      11.665 -14.467  -3.520  1.00  0.00    -0.340 N
ATOM     45  H12 UNL     1      12.545 -14.002  -3.748  1.00  0.00     0.168 HD
BRANCH  43  46
HETATM   46  N11 UNL     1      12.588 -15.742  -1.741  1.00  0.00    -0.380 N
ATOM     47 2H11 UNL     1      12.519 -16.341  -0.918  1.00  0.00     0.158 HD
ATOM     48 1H11 UNL     1      13.585 -15.531  -1.793  1.00  0.00     0.158 HD
ENDBRANCH  43  46
ENDBRANCH  39  40
ENDBRANCH  35  39
ENDBRANCH  33  35
ENDBRANCH  32  33
ENDBRANCH  31  32
ENDBRANCH  30  31
ENDBRANCH   4  30
TORSDOF 13
ENDMDL