MODEL 3
REMARK VINA RESULT: -8.357650820      1.244      1.925
REMARK  12 active torsions:
REMARK  status: ('A' for Active; 'I' for Inactive)
REMARK    1  A    between atoms: O1_2  and  C2_3
REMARK    2  A    between atoms: C2_3  and  C3_5
REMARK    3  A    between atoms: C3_5  and  O3_6
REMARK    4  A    between atoms: C5_9  and  C6_10
REMARK    5  A    between atoms: C9_13  and  O4_14
REMARK    6  A    between atoms: O4_14  and  C10_15
REMARK    7  A    between atoms: C10_15  and  C11_16
REMARK    8  A    between atoms: C11_16  and  C12_17
REMARK    9  A    between atoms: C12_17  and  N1_18
REMARK   10  A    between atoms: N1_18  and  N2_20
REMARK   11  A    between atoms: N2_20  and  C13_22
REMARK   12  A    between atoms: C22_47  and  N10_48
ROOT
HETATM    1  C10 UNL     1       9.405  -6.223  -5.545  1.00  0.00     0.177 C
ENDROOT
BRANCH   1   2
HETATM    2  O4  UNL     1       8.711  -7.047  -6.384  1.00  0.00    -0.351 OA
BRANCH   2   3
HETATM    3  C9  UNL     1       7.445  -7.556  -6.271  1.00  0.00     0.068 A
HETATM    4  C8  UNL     1       6.279  -6.886  -6.499  1.00  0.00     0.037 A
HETATM    5  C7  UNL     1       5.065  -7.546  -6.337  1.00  0.00     0.016 A
HETATM    6  C6  UNL     1       4.985  -8.862  -5.953  1.00  0.00    -0.012 A
HETATM    7  C21 UNL     1       6.168  -9.516  -5.731  1.00  0.00     0.016 A
HETATM    8  C20 UNL     1       7.388  -8.906  -5.878  1.00  0.00     0.037 A
BRANCH   6   9
HETATM    9  C5  UNL     1       3.708  -9.568  -5.780  1.00  0.00     0.039 C
HETATM   10  C4  UNL     1       3.239 -10.024  -4.474  1.00  0.00     0.112 C
HETATM   11  C3  UNL     1       2.542 -11.358  -4.621  1.00  0.00     0.197 C
HETATM   12  C22 UNL     1       1.439 -11.265  -5.637  1.00  0.00     0.341 C
HETATM   13  N9  UNL     1       1.765 -10.442  -6.759  1.00  0.00    -0.303 N
HETATM   14  N8  UNL     1       2.980  -9.788  -6.824  1.00  0.00    -0.306 N
ATOM     15  H9  UNL     1       1.094 -10.336  -7.520  1.00  0.00     0.182 HD
ATOM     16  H8  UNL     1       3.315  -9.466  -7.732  1.00  0.00     0.186 HD
BRANCH  11  17
HETATM   17  C2  UNL     1       3.512 -12.441  -4.965  1.00  0.00     0.297 C
HETATM   18  O2  UNL     1       4.089 -13.108  -4.078  1.00  0.00    -0.262 OA
BRANCH  17  19
HETATM   19  O1  UNL     1       3.792 -12.728  -6.291  1.00  0.00    -0.324 OA
HETATM   20  C1  UNL     1       4.368 -13.966  -6.624  1.00  0.00     0.213 C
ENDBRANCH  17  19
ENDBRANCH  11  17
BRANCH  11  21
HETATM   21  O3  UNL     1       1.904 -11.696  -3.394  1.00  0.00    -0.376 OA
ATOM     22  H3  UNL     1       1.027 -11.332  -3.400  1.00  0.00     0.211 HD
ENDBRANCH  11  21
BRANCH  12  23
HETATM   23  N10 UNL     1       1.070 -12.596  -6.117  1.00  0.00    -0.054 N
ATOM     24 3H10 UNL     1       0.835 -12.589  -7.109  1.00  0.00     0.277 HD
ATOM     25 2H10 UNL     1       1.876 -13.221  -6.156  1.00  0.00     0.277 HD
ATOM     26 1H10 UNL     1       0.316 -12.984  -5.551  1.00  0.00     0.277 HD
ENDBRANCH  12  23
ENDBRANCH   6   9
ENDBRANCH   2   3
ENDBRANCH   1   2
BRANCH   1  27
HETATM   27  C11 UNL     1      10.498  -6.838  -4.727  1.00  0.00     0.048 C
BRANCH  27  28
HETATM   28  C12 UNL     1      11.015  -8.122  -5.377  1.00  0.00     0.142 C
BRANCH  28  29
HETATM   29  N1  UNL     1      10.535  -9.251  -4.596  1.00  0.00    -0.322 N
ATOM     30  H1  UNL     1       9.765  -9.139  -3.937  1.00  0.00     0.180 HD
BRANCH  29  31
HETATM   31  N2  UNL     1      11.148 -10.482  -4.767  1.00  0.00    -0.136 N
ATOM     32  H2  UNL     1      12.152 -10.502  -4.948  1.00  0.00     0.205 HD
BRANCH  31  33
HETATM   33  C13 UNL     1      10.518 -11.598  -4.710  1.00  0.00     0.698 A
HETATM   34  N3  UNL     1       9.189 -11.695  -4.783  1.00  0.00    -0.175 N
HETATM   35  C14 UNL     1       8.550 -12.887  -4.720  1.00  0.00     0.129 A
ATOM     36  H3  UNL     1       8.637 -10.845  -4.890  1.00  0.00     0.186 HD
HETATM   37  N4  UNL     1       7.263 -12.945  -4.794  1.00  0.00    -0.384 N
HETATM   38  C15 UNL     1       9.267 -14.032  -4.578  1.00  0.00     0.065 A
ATOM     39  H42 UNL     1       6.725 -12.085  -4.901  1.00  0.00     0.157 HD
ATOM     40  H41 UNL     1       6.782 -13.843  -4.747  1.00  0.00     0.157 HD
HETATM   41  C16 UNL     1       8.645 -15.262  -4.511  1.00  0.00     0.038 A
HETATM   42  C19 UNL     1      10.662 -13.931  -4.501  1.00  0.00     0.134 A
HETATM   43  C17 UNL     1       7.200 -15.419  -4.588  1.00  0.00     0.071 C
HETATM   44  N5  UNL     1       9.487 -16.340  -4.367  1.00  0.00    -0.301 N
HETATM   45  N6  UNL     1      10.787 -16.235  -4.296  1.00  0.00    -0.264 N
ATOM     46  H5  UNL     1       9.075 -17.271  -4.312  1.00  0.00     0.186 HD
HETATM   47  C18 UNL     1      11.441 -15.071  -4.356  1.00  0.00     0.288 A
ATOM     48  H6  UNL     1      11.334 -17.089  -4.188  1.00  0.00     0.190 HD
HETATM   49  O5  UNL     1      12.672 -14.963  -4.289  1.00  0.00    -0.264 OA
HETATM   50  N7  UNL     1      11.244 -12.726  -4.568  1.00  0.00    -0.184 N
ATOM     51  H7  UNL     1      12.260 -12.660  -4.511  1.00  0.00     0.184 HD
ENDBRANCH  31  33
ENDBRANCH  29  31
ENDBRANCH  28  29
ENDBRANCH  27  28
ENDBRANCH   1  27
TORSDOF 12
ENDMDL