MODEL 2
REMARK VINA RESULT: -7.016990656      2.549      6.540
REMARK  14 active torsions:
REMARK  status: ('A' for Active; 'I' for Inactive)
REMARK    1  A    between atoms: N1_1  and  C1_4
REMARK    2  A    between atoms: C2_7  and  C3_8
REMARK    3  A    between atoms: C3_8  and  O1_9
REMARK    4  A    between atoms: C3_8  and  C4_11
REMARK    5  A    between atoms: C4_11  and  C5_12
REMARK    6  A    between atoms: C4_11  and  C11_28
REMARK    7  A    between atoms: C5_12  and  C8_19
REMARK    8  A    between atoms: N3_13  and  O2_15
REMARK    9  A    between atoms: O2_15  and  C6_16
REMARK   10  A    between atoms: C6_16  and  C7_17
REMARK   11  A    between atoms: C10_22  and  N4_23
REMARK   12  A    between atoms: C16_35  and  N7_36
REMARK   13  A    between atoms: N7_36  and  O4_37
REMARK   14  A    between atoms: C19_45  and  N10_46
ROOT
HETATM    1  C4  UNL     1       2.964 -11.991  -5.980  1.00  0.00     0.020 C
ENDROOT
BRANCH   1   2
HETATM    2  C3  UNL     1       4.053 -12.486  -6.818  1.00  0.00     0.223 C
BRANCH   2   3
HETATM    3  C2  UNL     1       5.438 -12.600  -6.448  1.00  0.00     0.146 A
HETATM    4  N2  UNL     1       6.350 -11.612  -6.667  1.00  0.00    -0.177 N
HETATM    5  C1  UNL     1       7.623 -11.696  -6.281  1.00  0.00     0.691 A
ATOM      6  H2  UNL     1       6.044 -10.767  -7.150  1.00  0.00     0.185 HD
HETATM    7  N11 UNL     1       8.068 -12.788  -5.642  1.00  0.00    -0.023 N
HETATM    8  C19 UNL     1       7.206 -13.806  -5.395  1.00  0.00     0.691 A
ATOM      9  H11 UNL     1       9.042 -12.853  -5.345  1.00  0.00     0.203 HD
HETATM   10  N9  UNL     1       5.923 -13.700  -5.796  1.00  0.00    -0.177 N
ATOM     11  H9  UNL     1       5.287 -14.473  -5.604  1.00  0.00     0.185 HD
BRANCH   5  12
HETATM   12  N1  UNL     1       8.473 -10.717  -6.515  1.00  0.00    -0.234 N
ATOM     13  H12 UNL     1       8.116  -9.764  -6.554  1.00  0.00     0.174 HD
ATOM     14  H11 UNL     1       9.467 -10.902  -6.654  1.00  0.00     0.174 HD
ENDBRANCH   5  12
BRANCH   8  15
HETATM   15  N10 UNL     1       7.668 -14.839  -4.781  1.00  0.00    -0.234 N
ATOM     16 2H10 UNL     1       7.161 -15.716  -4.891  1.00  0.00     0.174 HD
ATOM     17 1H10 UNL     1       8.504 -14.813  -4.198  1.00  0.00     0.174 HD
ENDBRANCH   8  15
ENDBRANCH   2   3
BRANCH   2  18
HETATM   18  O1  UNL     1       3.673 -13.869  -7.138  1.00  0.00    -0.383 OA
ATOM     19  H1  UNL     1       3.250 -13.790  -7.985  1.00  0.00     0.211 HD
ENDBRANCH   2  18
ENDBRANCH   1   2
BRANCH   1  20
HETATM   20  C5  UNL     1       2.708 -10.529  -6.251  1.00  0.00     0.091 C
HETATM   21  N3  UNL     1       1.558 -10.178  -6.666  1.00  0.00    -0.264 N
ATOM     22  H3  UNL     1       0.860 -10.910  -6.795  1.00  0.00     0.194 HD
BRANCH  21  23
HETATM   23  O2  UNL     1       1.190  -8.908  -6.948  1.00  0.00    -0.273 OA
BRANCH  23  24
HETATM   24  C6  UNL     1      -0.198  -8.582  -6.913  1.00  0.00     0.270 C
BRANCH  24  25
HETATM   25  C7  UNL     1      -0.902  -9.285  -5.832  1.00  0.00     0.259 C
HETATM   26  O3  UNL     1      -0.516  -9.112  -4.673  1.00  0.00    -0.304 OA
ENDBRANCH  24  25
ENDBRANCH  23  24
ENDBRANCH  21  23
BRANCH  20  27
HETATM   27  C8  UNL     1       3.684  -9.447  -5.955  1.00  0.00     0.070 A
HETATM   28  C9  UNL     1       4.263  -9.469  -4.674  1.00  0.00     0.085 A
HETATM   29  S1  UNL     1       5.154  -8.018  -4.650  1.00  0.00    -0.064 SA
HETATM   30  C10 UNL     1       4.777  -7.454  -6.199  1.00  0.00     0.142 A
HETATM   31  N5  UNL     1       3.970  -8.415  -6.682  1.00  0.00    -0.335 N
ATOM     32  H5  UNL     1       3.584  -8.332  -7.622  1.00  0.00     0.168 HD
BRANCH  30  33
HETATM   33  N4  UNL     1       5.178  -6.350  -6.787  1.00  0.00    -0.380 N
ATOM     34  H42 UNL     1       6.130  -6.010  -6.918  1.00  0.00     0.158 HD
ATOM     35  H41 UNL     1       4.612  -5.621  -7.221  1.00  0.00     0.158 HD
ENDBRANCH  30  33
ENDBRANCH  20  27
ENDBRANCH   1  20
BRANCH   1  36
HETATM   36  C11 UNL     1       2.343 -12.548  -4.982  1.00  0.00    -0.008 A
HETATM   37  C12 UNL     1       2.833 -12.628  -3.710  1.00  0.00     0.101 A
HETATM   38  N6  UNL     1       2.224 -13.288  -2.667  1.00  0.00    -0.351 N
HETATM   39  C13 UNL     1       1.057 -13.921  -2.842  1.00  0.00     0.114 A
ATOM     40  H6  UNL     1       2.668 -13.295  -1.749  1.00  0.00     0.166 HD
HETATM   41  C14 UNL     1       0.506 -13.882  -4.086  1.00  0.00     0.048 A
HETATM   42  N8  UNL     1       0.482 -14.536  -1.877  1.00  0.00    -0.375 N
HETATM   43  C15 UNL     1       1.126 -13.207  -5.153  1.00  0.00     0.032 A
HETATM   44  C16 UNL     1      -0.769 -14.611  -4.304  1.00  0.00     0.132 C
HETATM   45  C17 UNL     1      -1.089 -15.731  -3.317  1.00  0.00     0.096 C
HETATM   46  C18 UNL     1      -0.754 -15.248  -1.912  1.00  0.00     0.128 C
ATOM     47  H8  UNL     1       0.963 -14.514  -0.978  1.00  0.00     0.161 HD
BRANCH  44  48
HETATM   48  N7  UNL     1      -1.512 -14.372  -5.186  1.00  0.00    -0.287 NA
BRANCH  48  49
HETATM   49  O4  UNL     1      -2.305 -13.816  -5.978  1.00  0.00    -0.218 OA
ATOM     50  H4  UNL     1      -3.080 -13.489  -6.419  1.00  0.00     0.261 HD
ENDBRANCH  48  49
ENDBRANCH  44  48
ENDBRANCH   1  36
TORSDOF 14
ENDMDL