MODEL 4
REMARK VINA RESULT: -8.385228725      3.327      4.908
REMARK  3 active torsions:
REMARK  status: ('A' for Active; 'I' for Inactive)
REMARK    1  A    between atoms: C6_11  and  C7_12
REMARK    2  A    between atoms: N3_21  and  C15_22
REMARK    3  A    between atoms: C20_28  and  C21_29
ROOT
HETATM    1  N1  UNL     1       5.004   3.327 -24.786  1.00  0.00    -0.196 NA
HETATM    2  C1  UNL     1       5.970   2.913 -25.247  1.00  0.00     0.076 C
HETATM    3  C2  UNL     1       7.180   2.416 -25.843  1.00  0.00     0.216 C
HETATM    4  C3  UNL     1       8.318   2.291 -24.872  1.00  0.00     0.267 C
HETATM    5  O1  UNL     1       8.473   2.884 -23.790  1.00  0.00    -0.269 OA
HETATM    6  N2  UNL     1       9.202   1.328 -25.465  1.00  0.00    -0.159 N
HETATM    7  C4  UNL     1      10.547   0.911 -25.512  1.00  0.00     0.396 A
HETATM    8  O2  UNL     1      11.537   1.393 -24.890  1.00  0.00    -0.235 OA
HETATM    9  O3  UNL     1      10.590  -0.147 -26.385  1.00  0.00    -0.241 OA
HETATM   10  C5  UNL     1       9.324  -0.444 -26.915  1.00  0.00     0.172 A
HETATM   11  C6  UNL     1       9.077  -1.423 -27.787  1.00  0.00     0.070 C
HETATM   12  N4  UNL     1       8.444   0.493 -26.329  1.00  0.00    -0.245 N
HETATM   13  C20 UNL     1       7.074   0.939 -26.261  1.00  0.00     0.178 C
ENDROOT
BRANCH  13  14
HETATM   14  C21 UNL     1       6.442   0.240 -25.080  1.00  0.00     0.009 A
HETATM   15  C22 UNL     1       7.073  -0.347 -24.015  1.00  0.00     0.017 A
HETATM   16  C23 UNL     1       6.305  -0.922 -23.085  1.00  0.00     0.008 A
HETATM   17  C24 UNL     1       4.951  -0.878 -23.267  1.00  0.00     0.050 A
HETATM   18  S1  UNL     1       4.794  -0.031 -24.741  1.00  0.00    -0.104 SA
ENDBRANCH  13  14
BRANCH  11  19
HETATM   19  C7  UNL     1      10.191  -2.267 -28.242  1.00  0.00    -0.017 A
HETATM   20  C8  UNL     1      11.344  -1.726 -28.767  1.00  0.00     0.054 A
HETATM   21  C9  UNL     1      12.368  -2.551 -29.214  1.00  0.00     0.119 A
HETATM   22  F1  UNL     1      13.497  -2.020 -29.731  1.00  0.00    -0.206 F
HETATM   23  C10 UNL     1      12.273  -3.924 -29.153  1.00  0.00     0.072 A
HETATM   24  C11 UNL     1      11.127  -4.471 -28.632  1.00  0.00     0.048 A
HETATM   25  C12 UNL     1      10.112  -3.646 -28.188  1.00  0.00     0.003 A
HETATM   26  N3  UNL     1      10.803  -5.779 -28.472  1.00  0.00    -0.351 N
HETATM   27  C13 UNL     1       9.129  -4.484 -27.736  1.00  0.00     0.032 A
HETATM   28  C14 UNL     1       9.566  -5.750 -27.918  1.00  0.00     0.092 A
BRANCH  26  29
HETATM   29  C15 UNL     1      11.495  -6.983 -28.784  1.00  0.00     0.089 C
HETATM   30  C16 UNL     1      10.452  -8.053 -29.108  1.00  0.00     0.026 C
HETATM   31  C17 UNL     1      11.104  -9.387 -28.872  1.00  0.00     0.002 C
HETATM   32  C18 UNL     1      12.299  -9.132 -28.015  1.00  0.00     0.002 C
HETATM   33  C19 UNL     1      12.283  -7.629 -27.719  1.00  0.00     0.026 C
ENDBRANCH  26  29
ENDBRANCH  11  19
TORSDOF 3
ENDMDL