MODEL 3
REMARK VINA RESULT: -7.178193911      3.168      4.838
REMARK  4 active torsions:
REMARK  status: ('A' for Active; 'I' for Inactive)
REMARK    1  A    between atoms: O1_2  and  C2_3
REMARK    2  A    between atoms: N1_12  and  N2_13
REMARK    3  A    between atoms: N2_13  and  C8_15
REMARK    4  A    between atoms: C18_26  and  O4_27
ROOT
HETATM    1  C2  UNL     1       7.808   0.196 -24.545  1.00  0.00     0.121 A
HETATM    2  C3  UNL     1       9.036   0.143 -25.173  1.00  0.00     0.049 A
HETATM    3 BR1  UNL     1      10.492   1.077 -24.360  1.00  0.00    -0.048 Br
HETATM    4  C4  UNL     1       9.222  -0.555 -26.346  1.00  0.00     0.056 A
HETATM    5  C5  UNL     1       8.144  -1.221 -26.908  1.00  0.00     0.098 A
HETATM    6  C6  UNL     1       6.905  -1.189 -26.308  1.00  0.00     0.143 A
HETATM    7  O2  UNL     1       6.083  -1.899 -27.052  1.00  0.00    -0.278 OA
HETATM    8  C7  UNL     1       6.700  -2.390 -28.094  1.00  0.00     0.242 A
HETATM    9  S1  UNL     1       6.050  -3.339 -29.286  1.00  0.00    -0.031 SA
HETATM   10  N1  UNL     1       7.974  -1.976 -28.009  1.00  0.00    -0.221 N
HETATM   11  C18 UNL     1       6.760  -0.476 -25.129  1.00  0.00     0.139 A
ENDROOT
BRANCH  10  12
HETATM   12  N2  UNL     1       8.971  -2.277 -28.922  1.00  0.00    -0.296 N
ATOM     13  H2  UNL     1       9.033  -1.712 -29.769  1.00  0.00     0.187 HD
BRANCH  12  14
HETATM   14  C8  UNL     1       9.824  -3.226 -28.766  1.00  0.00     0.041 C
HETATM   15  C9  UNL     1       9.492  -4.574 -28.241  1.00  0.00     0.095 C
HETATM   16  C10 UNL     1      10.788  -5.355 -28.401  1.00  0.00     0.067 C
HETATM   17  C11 UNL     1      10.457  -6.679 -29.080  1.00  0.00     0.038 C
HETATM   18  C14 UNL     1      11.380  -5.763 -27.083  1.00  0.00     0.038 C
HETATM   19  O3  UNL     1      11.627  -4.593 -29.183  1.00  0.00    -0.364 OA
HETATM   20  C12 UNL     1      11.177  -7.747 -28.319  1.00  0.00     0.003 C
HETATM   21  C13 UNL     1      12.190  -6.994 -27.460  1.00  0.00     0.003 C
HETATM   22  C15 UNL     1      11.280  -3.260 -29.041  1.00  0.00     0.094 C
HETATM   23  C16 UNL     1      11.628  -2.468 -30.292  1.00  0.00     0.052 C
HETATM   24  C17 UNL     1      12.090  -2.674 -27.913  1.00  0.00     0.052 C
ENDBRANCH  12  14
ENDBRANCH  10  12
BRANCH  11  25
HETATM   25  O4  UNL     1       5.510  -0.447 -24.532  1.00  0.00    -0.351 OA
HETATM   26  C19 UNL     1       4.594   0.530 -25.044  1.00  0.00     0.210 C
ENDBRANCH  11  25
BRANCH   1  27
HETATM   27  O1  UNL     1       7.628   0.910 -23.352  1.00  0.00    -0.352 OA
HETATM   28  C1  UNL     1       7.313   2.293 -23.412  1.00  0.00     0.210 C
ENDBRANCH   1  27
TORSDOF 4
ENDMDL