MODEL 4
REMARK VINA RESULT: -8.577602230      2.979      6.624
REMARK  3 active torsions:
REMARK  status: ('A' for Active; 'I' for Inactive)
REMARK    1  A    between atoms: C2_2  and  O1_3
REMARK    2  A    between atoms: O1_3  and  C3_4
REMARK    3  A    between atoms: C7_10  and  C8_11
ROOT
HETATM    1  C8  UNL     1       7.754  -3.103 -29.084  1.00  0.00     0.180 C
HETATM    2  N2  UNL     1       7.786  -3.373 -27.807  1.00  0.00    -0.240 N
ATOM      3  H2  UNL     1       7.432  -4.232 -27.385  1.00  0.00     0.196 HD
HETATM    4  O2  UNL     1       8.366  -2.330 -27.107  1.00  0.00    -0.231 OA
HETATM    5  C9  UNL     1       9.022  -1.565 -28.064  1.00  0.00     0.269 C
HETATM    6  O3  UNL     1       8.325  -1.850 -29.257  1.00  0.00    -0.287 OA
HETATM    7  C10 UNL     1      10.459  -1.897 -28.271  1.00  0.00     0.158 C
HETATM    8  C11 UNL     1      10.979  -2.722 -27.115  1.00  0.00     0.047 C
HETATM    9  C12 UNL     1      11.591  -4.032 -27.570  1.00  0.00     0.003 C
HETATM   10  C13 UNL     1      12.632  -3.844 -28.641  1.00  0.00     0.000 C
HETATM   11  C14 UNL     1      12.237  -2.818 -29.651  1.00  0.00     0.003 C
HETATM   12  C15 UNL     1      10.712  -2.669 -29.561  1.00  0.00     0.047 C
HETATM   13  O4  UNL     1      11.092  -0.688 -28.394  1.00  0.00    -0.222 OA
HETATM   14  O5  UNL     1      10.204   0.260 -28.519  1.00  0.00    -0.218 OA
HETATM   15  C16 UNL     1       9.059  -0.094 -27.812  1.00  0.00     0.185 C
HETATM   16  C17 UNL     1       7.890   0.632 -28.450  1.00  0.00     0.053 C
HETATM   17  C18 UNL     1       6.581   0.330 -27.815  1.00  0.00     0.008 C
HETATM   18  C19 UNL     1       6.584   0.175 -26.335  1.00  0.00     0.039 C
HETATM   19  C20 UNL     1       7.912   0.408 -25.710  1.00  0.00    -0.046 A
HETATM   20  C21 UNL     1       7.970   0.766 -24.380  1.00  0.00     0.050 A
HETATM   21  C22 UNL     1       9.160   1.002 -23.730  1.00  0.00     0.117 A
HETATM   22  F1  UNL     1       9.172   1.353 -22.421  1.00  0.00    -0.206 F
HETATM   23  C23 UNL     1      10.347   0.880 -24.413  1.00  0.00     0.043 A
HETATM   24  C24 UNL     1      10.274   0.517 -25.757  1.00  0.00     0.014 A
HETATM   25  C25 UNL     1       9.093   0.284 -26.403  1.00  0.00    -0.009 A
ENDROOT
BRANCH   1  26
HETATM   26  C7  UNL     1       7.238  -3.909 -30.163  1.00  0.00     0.068 A
HETATM   27  C3  UNL     1       5.925  -3.805 -30.551  1.00  0.00     0.156 A
HETATM   28  N1  UNL     1       5.413  -4.551 -31.563  1.00  0.00    -0.346 N
HETATM   29  C4  UNL     1       6.235  -5.411 -32.188  1.00  0.00     0.090 A
ATOM     30  H1  UNL     1       4.436  -4.462 -31.840  1.00  0.00     0.167 HD
HETATM   31  C5  UNL     1       7.559  -5.583 -31.869  1.00  0.00     0.018 A
HETATM   32  C6  UNL     1       8.046  -4.797 -30.824  1.00  0.00     0.022 A
BRANCH  27  33
HETATM   33  O1  UNL     1       5.101  -2.892 -29.868  1.00  0.00    -0.335 OA
BRANCH  33  34
HETATM   34  C2  UNL     1       4.156  -2.168 -30.605  1.00  0.00     0.173 C
HETATM   35  C1  UNL     1       4.029  -0.774 -30.046  1.00  0.00     0.034 C
ENDBRANCH  33  34
ENDBRANCH  27  33
ENDBRANCH   1  26
TORSDOF 3
ENDMDL