MODEL 2
REMARK VINA RESULT: -8.089301806      6.672     11.940
REMARK  3 active torsions:
REMARK  status: ('A' for Active; 'I' for Inactive)
REMARK    1  A    between atoms: C4_6  and  N1_7
REMARK    2  A    between atoms: N2_11  and  C8_12
REMARK    3  A    between atoms: C19_28  and  N5_29
ROOT
HETATM    1  F1  UNL     1      11.407   5.726 -22.953  1.00  0.00    -0.202 F
HETATM    2  C1  UNL     1      10.972   4.561 -23.458  1.00  0.00     0.161 A
HETATM    3  C2  UNL     1      11.433   4.068 -24.664  1.00  0.00     0.069 A
HETATM    4  C3  UNL     1      10.945   2.841 -25.143  1.00  0.00     0.055 A
HETATM    5  S1  UNL     1      11.222   1.854 -26.523  1.00  0.00    -0.050 SA
HETATM    6  C4  UNL     1      10.153   0.573 -26.148  1.00  0.00     0.149 A
HETATM    7  N3  UNL     1       9.648   0.969 -24.996  1.00  0.00    -0.322 N
ATOM      8  H3  UNL     1       8.960   0.387 -24.517  1.00  0.00     0.169 HD
HETATM    9  C18 UNL     1      10.019   2.092 -24.468  1.00  0.00     0.126 A
HETATM   10  N4  UNL     1       9.574   2.607 -23.265  1.00  0.00    -0.325 N
ATOM     11  H4  UNL     1       8.883   2.094 -22.717  1.00  0.00     0.169 HD
HETATM   12  C19 UNL     1      10.044   3.770 -22.819  1.00  0.00     0.144 A
ENDROOT
BRANCH   6  13
HETATM   13  N1  UNL     1       9.901  -0.648 -26.876  1.00  0.00    -0.360 N
HETATM   14  C5  UNL     1       8.522  -1.132 -26.821  1.00  0.00     0.126 C
HETATM   15  C6  UNL     1       8.343  -2.018 -28.038  1.00  0.00     0.040 C
HETATM   16  C7  UNL     1       8.818  -3.408 -27.800  1.00  0.00     0.125 C
HETATM   17  N2  UNL     1      10.238  -3.533 -27.532  1.00  0.00    -0.374 N
HETATM   18  C16 UNL     1      11.243  -2.652 -27.050  1.00  0.00     0.143 C
HETATM   19  C17 UNL     1      11.021  -1.215 -27.543  1.00  0.00     0.145 C
BRANCH  17  20
HETATM   20  C8  UNL     1      10.683  -4.880 -27.827  1.00  0.00     0.073 A
HETATM   21  C9  UNL     1      10.054  -5.898 -28.468  1.00  0.00     0.050 A
HETATM   22  C10 UNL     1      10.716  -7.066 -28.608  1.00  0.00    -0.016 A
HETATM   23  C11 UNL     1      10.249  -8.238 -29.235  1.00  0.00     0.013 A
HETATM   24  C15 UNL     1      11.976  -7.136 -28.092  1.00  0.00     0.017 A
HETATM   25  C12 UNL     1      11.002  -9.372 -29.320  1.00  0.00     0.001 A
HETATM   26  C13 UNL     1      12.274  -9.439 -28.797  1.00  0.00     0.001 A
HETATM   27  C14 UNL     1      12.750  -8.307 -28.181  1.00  0.00     0.020 A
HETATM   28  S2  UNL     1      12.210  -5.584 -27.425  1.00  0.00    -0.072 SA
ENDBRANCH  17  20
ENDBRANCH   6  13
BRANCH  12  29
HETATM   29  N5  UNL     1       9.577   4.285 -21.560  1.00  0.00    -0.365 N
HETATM   30  C20 UNL     1      10.118   4.062 -20.234  1.00  0.00     0.124 C
HETATM   31  C21 UNL     1       9.878   5.384 -19.524  1.00  0.00     0.021 C
HETATM   32  C22 UNL     1       9.086   6.237 -20.489  1.00  0.00     0.021 C
HETATM   33  C23 UNL     1       8.437   5.155 -21.361  1.00  0.00     0.124 C
ENDBRANCH  12  29
TORSDOF 3
ENDMDL