MODEL 4
REMARK VINA RESULT: -6.641491492      3.265      5.518
REMARK  4 active torsions:
REMARK  status: ('A' for Active; 'I' for Inactive)
REMARK    1  A    between atoms: C2_2  and  O2_4
REMARK    2  A    between atoms: O2_4  and  C3_5
REMARK    3  A    between atoms: C10_14  and  C11_15
REMARK    4  A    between atoms: C11_15  and  C12_16
ROOT
HETATM    1  C3  UNL     1       7.150  -0.494 -26.014  1.00  0.00     0.143 C
HETATM    2  C4  UNL     1       8.034  -1.553 -26.675  1.00  0.00     0.041 C
HETATM    3  C5  UNL     1       8.167  -1.031 -28.113  1.00  0.00     0.025 C
HETATM    4  C6  UNL     1       8.181  -2.092 -29.131  1.00  0.00     0.013 C
HETATM    5  C7  UNL     1       9.180   0.017 -28.062  1.00  0.00     0.136 C
HETATM    6  O3  UNL     1       9.514   0.412 -29.391  1.00  0.00    -0.225 OA
HETATM    7  O4  UNL     1      10.493   1.270 -29.301  1.00  0.00    -0.223 OA
HETATM    8  C8  UNL     1      11.118   1.175 -28.091  1.00  0.00     0.161 C
HETATM    9  C9  UNL     1      12.584   1.255 -28.052  1.00  0.00     0.056 C
HETATM   10  C10 UNL     1      10.521  -0.142 -27.550  1.00  0.00     0.092 C
HETATM   11  C16 UNL     1      10.561   2.297 -27.239  1.00  0.00     0.229 C
HETATM   12  C17 UNL     1      10.576   3.555 -28.110  1.00  0.00     0.085 C
HETATM   13  O5  UNL     1      11.382   2.580 -26.120  1.00  0.00    -0.196 OA
HETATM   14  O6  UNL     1      11.046   1.961 -25.049  1.00  0.00    -0.217 OA
HETATM   15  C18 UNL     1       9.969   2.414 -24.339  1.00  0.00     0.256 C
HETATM   16 CL1  UNL     1      10.590   2.794 -22.689  1.00  0.00    -0.092 Cl
HETATM   17  C19 UNL     1       8.851   1.363 -24.236  1.00  0.00     0.052 C
HETATM   18  C20 UNL     1       7.668   1.661 -25.019  1.00  0.00     0.018 C
HETATM   19  C21 UNL     1       7.466   0.893 -26.344  1.00  0.00     0.012 C
HETATM   20  C22 UNL     1       6.151   1.579 -26.785  1.00  0.00     0.020 C
HETATM   21  C23 UNL     1       8.502   1.204 -27.362  1.00  0.00     0.174 C
HETATM   22  O7  UNL     1       9.332   2.097 -26.785  1.00  0.00    -0.341 OA
ENDROOT
BRANCH  10  23
HETATM   23  C11 UNL     1      11.427  -1.239 -27.798  1.00  0.00    -0.015 C
BRANCH  23  24
HETATM   24  C12 UNL     1      11.243  -2.562 -27.217  1.00  0.00    -0.002 C
HETATM   25  C13 UNL     1      11.368  -3.625 -27.992  1.00  0.00    -0.088 C
HETATM   26  C14 UNL     1      11.191  -4.983 -27.424  1.00  0.00     0.043 C
HETATM   27  C15 UNL     1      11.642  -3.495 -29.426  1.00  0.00     0.043 C
ENDBRANCH  23  24
ENDBRANCH  10  23
BRANCH   1  28
HETATM   28  O2  UNL     1       7.075  -0.746 -24.602  1.00  0.00    -0.315 OA
BRANCH  28  29
HETATM   29  C2  UNL     1       5.923  -1.189 -23.970  1.00  0.00     0.255 C
HETATM   30  C1  UNL     1       5.204  -0.437 -22.925  1.00  0.00     0.126 C
HETATM   31  O1  UNL     1       5.462  -2.308 -24.313  1.00  0.00    -0.266 OA
ENDBRANCH  28  29
ENDBRANCH   1  28
TORSDOF 4
ENDMDL