MODEL 2
REMARK VINA RESULT: -7.176376976      0.144      5.273
REMARK  3 active torsions:
REMARK  status: ('A' for Active; 'I' for Inactive)
REMARK    1  A    between atoms: N1_3  and  C2_4
REMARK    2  A    between atoms: N2_12  and  C9_13
REMARK    3  A    between atoms: N3_21  and  C14_22
ROOT
HETATM    1  S1  UNL     1       8.242  -5.486 -30.785  1.00  0.00    -0.039 SA
HETATM    2  C1  UNL     1       7.614  -4.150 -30.123  1.00  0.00     0.194 A
HETATM    3  N1  UNL     1       8.307  -3.547 -29.133  1.00  0.00    -0.263 N
HETATM    4  C8  UNL     1       7.783  -2.436 -28.583  1.00  0.00     0.196 A
HETATM    5  S2  UNL     1       8.606  -1.681 -27.373  1.00  0.00    -0.039 SA
HETATM    6  N2  UNL     1       6.590  -1.922 -29.004  1.00  0.00    -0.242 N
HETATM    7  C13 UNL     1       5.953  -2.568 -29.992  1.00  0.00     0.196 A
HETATM    8  S3  UNL     1       4.525  -1.952 -30.495  1.00  0.00    -0.039 SA
HETATM    9  N3  UNL     1       6.441  -3.688 -30.573  1.00  0.00    -0.263 N
ENDROOT
BRANCH   3  10
HETATM   10  C2  UNL     1       9.548  -4.078 -28.692  1.00  0.00     0.044 A
HETATM   11  C3  UNL     1       9.671  -5.026 -27.723  1.00  0.00     0.030 A
HETATM   12  C4  UNL     1      10.932  -5.473 -27.371  1.00  0.00     0.002 A
HETATM   13  C5  UNL     1      12.082  -4.997 -27.964  1.00  0.00     0.000 A
HETATM   14  C6  UNL     1      11.954  -4.036 -28.947  1.00  0.00     0.002 A
HETATM   15  C7  UNL     1      10.707  -3.591 -29.298  1.00  0.00     0.030 A
ENDBRANCH   3  10
BRANCH   9  16
HETATM   16  C14 UNL     1       5.759  -4.367 -31.621  1.00  0.00     0.044 A
HETATM   17  C15 UNL     1       6.022  -4.021 -32.950  1.00  0.00     0.030 A
HETATM   18  C16 UNL     1       5.365  -4.675 -33.968  1.00  0.00     0.002 A
HETATM   19  C17 UNL     1       4.448  -5.671 -33.704  1.00  0.00     0.000 A
HETATM   20  C18 UNL     1       4.185  -6.019 -32.380  1.00  0.00     0.002 A
HETATM   21  C19 UNL     1       4.844  -5.363 -31.342  1.00  0.00     0.030 A
ENDBRANCH   9  16
BRANCH   6  22
HETATM   22  C9  UNL     1       6.060  -0.744 -28.405  1.00  0.00     0.159 A
HETATM   23  C10 UNL     1       6.229   0.550 -28.883  1.00  0.00     0.060 A
HETATM   24  C11 UNL     1       5.550   1.353 -27.994  1.00  0.00     0.049 A
HETATM   25  C12 UNL     1       5.010   0.505 -27.033  1.00  0.00     0.124 A
HETATM   26 BR1  UNL     1       3.968   1.114 -25.562  1.00  0.00    -0.023 Br
HETATM   27  O1  UNL     1       5.340  -0.744 -27.317  1.00  0.00    -0.286 OA
ENDBRANCH   6  22
TORSDOF 3
ENDMDL