MODEL 3
REMARK VINA RESULT: -8.761950493      3.704      8.135
REMARK  1 active torsions:
REMARK  status: ('A' for Active; 'I' for Inactive)
REMARK    1  A    between atoms: O1_2  and  C2_3
ROOT
HETATM    1  C2  UNL     1       3.936  -1.478 -30.336  1.00  0.00     0.107 A
HETATM    2  C3  UNL     1       5.145  -1.562 -29.712  1.00  0.00     0.078 A
HETATM    3  C4  UNL     1       5.973  -2.625 -30.003  1.00  0.00     0.096 A
HETATM    4  O2  UNL     1       7.152  -2.674 -29.365  1.00  0.00    -0.309 OA
HETATM    5  C5  UNL     1       8.031  -3.629 -29.543  1.00  0.00     0.093 A
HETATM    6  C6  UNL     1       9.290  -3.638 -28.830  1.00  0.00     0.036 A
HETATM    7  C7  UNL     1      10.206  -4.627 -29.012  1.00  0.00     0.017 A
HETATM    8  C8  UNL     1      11.405  -4.586 -28.297  1.00  0.00     0.001 A
HETATM    9  C9  UNL     1      11.714  -3.589 -27.412  1.00  0.00     0.003 A
HETATM   10  C10 UNL     1      10.795  -2.586 -27.223  1.00  0.00     0.043 A
HETATM   11  C11 UNL     1       9.610  -2.621 -27.924  1.00  0.00     0.129 A
HETATM   12  F1  UNL     1       8.688  -1.652 -27.760  1.00  0.00    -0.205 F
HETATM   13  C12 UNL     1       7.684  -4.607 -30.437  1.00  0.00     0.094 A
HETATM   14  C13 UNL     1       6.498  -4.584 -31.098  1.00  0.00     0.190 A
HETATM   15  O3  UNL     1       6.164  -5.487 -31.929  1.00  0.00    -0.287 OA
HETATM   16  C14 UNL     1       5.573  -3.575 -30.910  1.00  0.00     0.084 A
HETATM   17  C15 UNL     1       4.333  -3.512 -31.569  1.00  0.00     0.122 A
HETATM   18  C16 UNL     1       3.491  -2.428 -31.267  1.00  0.00     0.139 A
HETATM   19  O4  UNL     1       2.266  -2.238 -31.812  1.00  0.00    -0.320 OA
HETATM   20  C17 UNL     1       1.078  -2.996 -31.833  1.00  0.00     0.355 C
HETATM   21  O5  UNL     1       1.095  -4.110 -31.006  1.00  0.00    -0.295 OA
HETATM   22  C18 UNL     1       0.237  -5.169 -31.053  1.00  0.00     0.260 C
HETATM   23  O6  UNL     1      -0.044  -5.752 -29.965  1.00  0.00    -0.265 OA
HETATM   24  C19 UNL     1      -0.395  -5.692 -32.283  1.00  0.00     0.111 C
HETATM   25  C20 UNL     1       0.386  -6.793 -32.932  1.00  0.00     0.010 C
HETATM   26  C21 UNL     1       1.768  -6.974 -32.406  1.00  0.00     0.001 C
HETATM   27  C22 UNL     1       2.841  -6.792 -33.458  1.00  0.00     0.002 C
HETATM   28  C23 UNL     1       2.695  -5.528 -34.250  1.00  0.00     0.032 C
HETATM   29  C24 UNL     1       3.746  -4.532 -33.829  1.00  0.00     0.125 C
HETATM   30  C25 UNL     1       3.726  -3.233 -34.553  1.00  0.00     0.040 C
HETATM   31  O7  UNL     1       4.019  -4.489 -32.458  1.00  0.00    -0.342 OA
ENDROOT
BRANCH   1  32
HETATM   32  O1  UNL     1       3.174  -0.359 -29.973  1.00  0.00    -0.353 OA
HETATM   33  C1  UNL     1       3.476   0.386 -28.854  1.00  0.00     0.210 C
ENDBRANCH   1  32
TORSDOF 1
ENDMDL