MODEL 3
REMARK VINA RESULT: -8.722585319      2.418      2.885
REMARK  3 active torsions:
REMARK  status: ('A' for Active; 'I' for Inactive)
REMARK    1  A    between atoms: C5_5  and  C6_6
REMARK    2  A    between atoms: C12_16  and  S1_17
REMARK    3  A    between atoms: S1_17  and  C13_18
ROOT
HETATM    1  C6  UNL     1      10.391  -3.349 -29.049  1.00  0.00     0.337 C
HETATM    2  O1  UNL     1       9.068  -3.424 -28.971  1.00  0.00    -0.199 OA
HETATM    3  O2  UNL     1       8.207  -2.584 -29.439  1.00  0.00    -0.197 OA
HETATM    4  C7  UNL     1       8.020  -1.586 -28.505  1.00  0.00     0.205 C
HETATM    5  C8  UNL     1       8.019  -2.315 -27.209  1.00  0.00     0.083 C
HETATM    6  O3  UNL     1       7.056  -0.694 -28.417  1.00  0.00    -0.323 OA
HETATM    7  C9  UNL     1       7.472   0.554 -28.068  1.00  0.00     0.173 C
HETATM    8  C10 UNL     1       6.529   1.530 -28.659  1.00  0.00     0.102 C
HETATM    9  N1  UNL     1       5.804   2.298 -29.134  1.00  0.00    -0.194 NA
HETATM   10  C11 UNL     1       7.774   0.914 -26.688  1.00  0.00     0.049 C
HETATM   11  C12 UNL     1       8.792   0.895 -25.798  1.00  0.00     0.056 C
HETATM   12  C19 UNL     1      10.152   0.287 -25.918  1.00  0.00     0.191 C
HETATM   13  O4  UNL     1      10.969   0.807 -25.174  1.00  0.00    -0.287 OA
HETATM   14  C20 UNL     1      10.645  -0.813 -26.766  1.00  0.00     0.089 C
HETATM   15  C21 UNL     1      10.240  -1.177 -27.934  1.00  0.00     0.063 C
HETATM   16  O5  UNL     1      11.029  -2.260 -28.267  1.00  0.00    -0.317 OA
HETATM   17  C22 UNL     1       9.185  -0.687 -28.867  1.00  0.00     0.112 C
HETATM   18  C23 UNL     1       8.809   0.717 -28.810  1.00  0.00     0.075 C
ENDROOT
BRANCH  11  19
HETATM   19  S1  UNL     1       8.407   1.534 -24.246  1.00  0.00    -0.087 SA
BRANCH  19  20
HETATM   20  C13 UNL     1       6.843   0.988 -23.619  1.00  0.00     0.005 A
HETATM   21  C14 UNL     1       5.811   1.795 -23.196  1.00  0.00     0.019 A
HETATM   22  C15 UNL     1       4.590   1.326 -22.738  1.00  0.00     0.001 A
HETATM   23  C16 UNL     1       4.383  -0.025 -22.695  1.00  0.00     0.000 A
HETATM   24  C17 UNL     1       5.373  -0.891 -23.101  1.00  0.00     0.001 A
HETATM   25  C18 UNL     1       6.558  -0.388 -23.546  1.00  0.00     0.019 A
ENDBRANCH  19  20
ENDBRANCH  11  19
BRANCH   1  26
HETATM   26  C5  UNL     1      11.027  -4.603 -28.650  1.00  0.00    -0.001 A
HETATM   27  C4  UNL     1      10.287  -5.783 -28.676  1.00  0.00     0.013 A
HETATM   28  C3  UNL     1      10.821  -6.994 -28.313  1.00  0.00     0.007 A
HETATM   29  C2  UNL     1      12.133  -7.074 -27.905  1.00  0.00    -0.062 A
HETATM   30  C1  UNL     1      12.713  -8.381 -27.511  1.00  0.00     0.048 C
HETATM   31  C25 UNL     1      12.870  -5.915 -27.875  1.00  0.00     0.007 A
HETATM   32  C24 UNL     1      12.326  -4.701 -28.242  1.00  0.00     0.013 A
ENDBRANCH   1  26
TORSDOF 3
ENDMDL