MODEL 1
REMARK VINA RESULT: -6.907873946      0.000      0.000
REMARK  7 active torsions:
REMARK  status: ('A' for Active; 'I' for Inactive)
REMARK    1  A    between atoms: C5_5  and  C7_7
REMARK    2  A    between atoms: N1_13  and  C10_14
REMARK    3  A    between atoms: C10_14  and  O1_15
REMARK    4  A    between atoms: C10_14  and  C11_17
REMARK    5  A    between atoms: C11_17  and  C12_18
REMARK    6  A    between atoms: C12_18  and  C13_19
REMARK    7  A    between atoms: C16_22  and  N2_23
ROOT
HETATM    1  C7  UNL     1       8.408   0.723 -27.583  1.00  0.00     0.105 C
HETATM    2  C8  UNL     1       8.318   0.418 -29.090  1.00  0.00     0.053 C
HETATM    3  S1  UNL     1       7.663   2.410 -27.510  1.00  0.00    -0.057 SA
HETATM    4  S2  UNL     1       6.283   1.957 -25.904  1.00  0.00    -0.025 SA
HETATM    5  C9  UNL     1       7.018   0.315 -25.697  1.00  0.00     0.154 C
HETATM    6  S3  UNL     1       7.129  -0.395 -24.209  1.00  0.00    -0.051 SA
HETATM    7  N1  UNL     1       7.493  -0.185 -26.937  1.00  0.00    -0.292 N
ENDROOT
BRANCH   7   8
HETATM    8  C10 UNL     1       7.177  -1.485 -27.404  1.00  0.00     0.145 C
BRANCH   8   9
HETATM    9  O1  UNL     1       5.941  -1.668 -27.838  1.00  0.00    -0.346 OA
ATOM     10  H1  UNL     1       5.846  -1.885 -28.758  1.00  0.00     0.219 HD
ENDBRANCH   8   9
BRANCH   8  11
HETATM   11  C11 UNL     1       7.930  -2.685 -27.507  1.00  0.00     0.059 C
BRANCH  11  12
HETATM   12  C12 UNL     1       8.369  -3.296 -28.563  1.00  0.00     0.041 C
BRANCH  12  13
HETATM   13  C13 UNL     1       9.821  -3.499 -28.782  1.00  0.00     0.078 A
HETATM   14  C14 UNL     1      10.633  -2.696 -29.535  1.00  0.00     0.042 A
HETATM   15  C15 UNL     1      11.891  -3.258 -29.460  1.00  0.00     0.065 A
HETATM   16  C16 UNL     1      11.718  -4.381 -28.646  1.00  0.00     0.215 A
HETATM   17  O4  UNL     1      10.483  -4.493 -28.263  1.00  0.00    -0.289 OA
BRANCH  16  18
HETATM   18  N2  UNL     1      12.780  -5.252 -28.310  1.00  0.00    -0.090 N
HETATM   19  O2  UNL     1      12.704  -6.446 -28.630  1.00  0.00    -0.530 OA
HETATM   20  O3  UNL     1      13.903  -4.835 -27.638  1.00  0.00    -0.530 OA
ENDBRANCH  16  18
ENDBRANCH  12  13
ENDBRANCH  11  12
ENDBRANCH   8  11
ENDBRANCH   7   8
BRANCH   1  21
HETATM   21  C5  UNL     1       9.817   0.760 -27.185  1.00  0.00     0.009 C
HETATM   22  C4  UNL     1      10.611   0.823 -28.521  1.00  0.00     0.014 C
HETATM   23  C3  UNL     1      12.104   0.709 -28.235  1.00  0.00     0.005 C
HETATM   24  C2  UNL     1      12.519   1.839 -27.318  1.00  0.00    -0.017 C
HETATM   25  C1  UNL     1      13.631   2.676 -27.940  1.00  0.00     0.010 C
HETATM   26  C18 UNL     1      11.383   2.755 -27.015  1.00  0.00     0.025 C
HETATM   27  C17 UNL     1      10.265   1.944 -26.360  1.00  0.00     0.094 C
HETATM   28 CL1  UNL     1      10.946   1.397 -24.807  1.00  0.00    -0.124 Cl
HETATM   29  C6  UNL     1      10.272  -0.477 -26.473  1.00  0.00     0.020 C
ENDBRANCH   1  21
TORSDOF 7
ENDMDL