MODEL 4
REMARK VINA RESULT: -9.350730900      3.759      8.034
REMARK  2 active torsions:
REMARK  status: ('A' for Active; 'I' for Inactive)
REMARK    1  A    between atoms: N1_7  and  C6_8
REMARK    2  A    between atoms: C12_14  and  C13_15
ROOT
HETATM    1  C6  UNL     1       9.271  -1.535 -27.364  1.00  0.00     0.054 A
HETATM    2  C7  UNL     1      10.504  -2.110 -27.003  1.00  0.00     0.070 A
HETATM    3  C8  UNL     1      10.863  -3.314 -27.530  1.00  0.00     0.108 A
HETATM    4  C9  UNL     1      10.041  -3.977 -28.409  1.00  0.00     0.116 A
HETATM    5  C10 UNL     1       8.814  -3.426 -28.781  1.00  0.00     0.017 A
HETATM    6  C11 UNL     1       7.997  -4.091 -29.661  1.00  0.00     0.032 A
HETATM    7  C12 UNL     1       6.804  -3.549 -30.022  1.00  0.00     0.035 A
HETATM    8  C21 UNL     1       6.402  -2.343 -29.517  1.00  0.00     0.116 A
HETATM    9  C22 UNL     1       7.221  -1.683 -28.639  1.00  0.00     0.116 A
HETATM   10  C23 UNL     1       8.439  -2.187 -28.242  1.00  0.00     0.040 A
HETATM   11  O3  UNL     1       6.779  -0.477 -28.157  1.00  0.00    -0.345 OA
HETATM   12  C24 UNL     1       5.422  -0.138 -28.138  1.00  0.00     0.202 C
HETATM   13  C25 UNL     1       4.698  -0.564 -29.390  1.00  0.00     0.202 C
HETATM   14  O4  UNL     1       5.182  -1.791 -29.888  1.00  0.00    -0.345 OA
HETATM   15  O5  UNL     1      10.610  -5.175 -28.813  1.00  0.00    -0.322 OA
HETATM   16  C26 UNL     1      11.990  -5.070 -28.437  1.00  0.00     0.352 C
HETATM   17  O6  UNL     1      11.997  -4.124 -27.370  1.00  0.00    -0.323 OA
ENDROOT
BRANCH   7  18
HETATM   18  C13 UNL     1       5.920  -4.255 -30.965  1.00  0.00     0.090 A
HETATM   19  C14 UNL     1       4.797  -5.003 -30.621  1.00  0.00     0.052 A
HETATM   20  C15 UNL     1       4.249  -5.496 -31.784  1.00  0.00     0.003 A
HETATM   21  C16 UNL     1       3.159  -6.284 -32.102  1.00  0.00     0.056 A
HETATM   22  C20 UNL     1       5.064  -5.026 -32.796  1.00  0.00     0.086 A
HETATM   23  C17 UNL     1       2.843  -6.631 -33.408  1.00  0.00     0.117 A
HETATM   24  F1  UNL     1       1.761  -7.406 -33.633  1.00  0.00    -0.206 F
HETATM   25  C18 UNL     1       3.667  -6.152 -34.391  1.00  0.00     0.045 A
HETATM   26  C19 UNL     1       4.757  -5.364 -34.089  1.00  0.00     0.041 A
HETATM   27  O2  UNL     1       6.015  -4.313 -32.251  1.00  0.00    -0.309 OA
ENDBRANCH   7  18
BRANCH   1  28
HETATM   28  N1  UNL     1       8.924  -0.289 -26.807  1.00  0.00    -0.317 N
HETATM   29  C1  UNL     1       9.310   0.954 -27.431  1.00  0.00     0.224 C
HETATM   30  O1  UNL     1       9.880   0.990 -28.549  1.00  0.00    -0.273 OA
HETATM   31  C2  UNL     1       8.973   2.170 -26.627  1.00  0.00     0.103 C
HETATM   32  C3  UNL     1       9.531   1.984 -25.211  1.00  0.00     0.011 C
HETATM   33  C4  UNL     1       9.187   0.646 -24.628  1.00  0.00     0.021 C
HETATM   34  C5  UNL     1       8.216  -0.134 -25.543  1.00  0.00     0.132 C
ENDBRANCH   1  28
TORSDOF 2
ENDMDL