MODEL 3
REMARK VINA RESULT: -7.523981848      3.177      4.661
REMARK  5 active torsions:
REMARK  status: ('A' for Active; 'I' for Inactive)
REMARK    1  A    between atoms: C2_2  and  C3_4
REMARK    2  A    between atoms: C6_7  and  N1_8
REMARK       I    between atoms: N1_8  and  C7_10
REMARK    3  A    between atoms: C7_10  and  C8_12
REMARK    4  A    between atoms: N2_15  and  S1_16
REMARK    5  A    between atoms: S1_16  and  N3_19
ROOT
HETATM    1  C8  UNL     1      23.022  37.780  43.182  1.00  0.00     0.080 C
HETATM    2  C9  UNL     1      22.456  37.720  41.800  1.00  0.00     0.029 C
HETATM    3  C10 UNL     1      21.430  36.631  41.730  1.00  0.00     0.110 C
HETATM    4  N2  UNL     1      20.565  36.649  42.871  1.00  0.00    -0.193 NA
HETATM    5  C16 UNL     1      21.244  36.275  44.089  1.00  0.00     0.110 C
HETATM    6  C17 UNL     1      22.718  36.571  44.018  1.00  0.00     0.029 C
ENDROOT
BRANCH   1   7
HETATM    7  C7  UNL     1      24.501  37.955  43.080  1.00  0.00     0.222 C
HETATM    8  N1  UNL     1      25.192  37.232  42.079  1.00  0.00    -0.356 N
ATOM      9  H1  UNL     1      24.691  36.608  41.446  1.00  0.00     0.162 HD
HETATM   10  O1  UNL     1      25.116  38.735  43.877  1.00  0.00    -0.273 OA
BRANCH   8  11
HETATM   11  C6  UNL     1      26.628  37.399  41.975  1.00  0.00     0.084 C
HETATM   12  C5  UNL     1      27.277  36.335  42.831  1.00  0.00     0.025 C
HETATM   13  C4  UNL     1      27.030  34.999  42.174  1.00  0.00     0.008 C
HETATM   14  C3  UNL     1      27.575  34.909  40.777  1.00  0.00    -0.000 C
HETATM   15  C19 UNL     1      27.973  36.223  40.200  1.00  0.00     0.008 C
HETATM   16  C18 UNL     1      27.009  37.337  40.531  1.00  0.00     0.025 C
BRANCH  14  17
HETATM   17  C2  UNL     1      28.777  33.981  40.806  1.00  0.00     0.058 C
HETATM   18  C1  UNL     1      28.788  33.129  42.054  1.00  0.00     0.022 C
HETATM   19 BR1  UNL     1      28.760  32.776  39.293  1.00  0.00    -0.091 Br
ENDBRANCH  14  17
ENDBRANCH   8  11
ENDBRANCH   1   7
BRANCH   4  20
HETATM   20  S1  UNL     1      19.043  35.949  42.678  1.00  0.00     0.304 S
HETATM   21  O2  UNL     1      18.018  37.074  42.696  1.00  0.00    -0.188 OA
HETATM   22  O3  UNL     1      18.962  35.359  41.294  1.00  0.00    -0.188 OA
BRANCH  20  23
HETATM   23  N3  UNL     1      18.648  34.852  43.895  1.00  0.00    -0.278 N
HETATM   24  C11 UNL     1      18.957  33.496  43.704  1.00  0.00     0.077 C
HETATM   25  C12 UNL     1      17.990  32.531  44.344  1.00  0.00     0.046 C
HETATM   26  C13 UNL     1      16.553  32.913  44.083  1.00  0.00     0.007 C
HETATM   27  C14 UNL     1      16.276  34.354  44.342  1.00  0.00     0.021 C
HETATM   28  C15 UNL     1      17.501  35.162  44.665  1.00  0.00     0.141 C
ENDBRANCH  20  23
ENDBRANCH   4  20
TORSDOF 5
ENDMDL