MODEL 5
REMARK VINA RESULT: -8.149887677      1.459      1.845
REMARK  6 active torsions:
REMARK  status: ('A' for Active; 'I' for Inactive)
REMARK    1  A    between atoms: C1_2  and  C2_3
REMARK       I    between atoms: C1_2  and  N1_15
REMARK    2  A    between atoms: C2_3  and  C3_4
REMARK    3  A    between atoms: N1_15  and  C13_17
REMARK    4  A    between atoms: C14_18  and  O2_19
REMARK    5  A    between atoms: C14_18  and  N2_21
REMARK       I    between atoms: N3_24  and  C17_25
REMARK    6  A    between atoms: C17_25  and  C18_27
ROOT
HETATM    1  O1  UNL     1      21.022  38.537  41.141  1.00  0.00    -0.273 OA
HETATM    2  C1  UNL     1      22.070  37.913  41.152  1.00  0.00     0.222 C
HETATM    3  N1  UNL     1      21.991  36.498  40.770  1.00  0.00    -0.333 N
ATOM      4  H1  UNL     1      22.808  35.888  40.747  1.00  0.00     0.168 HD
ENDROOT
BRANCH   3   5
HETATM    5  C13 UNL     1      20.700  36.048  40.438  1.00  0.00     0.146 C
HETATM    6  C14 UNL     1      19.898  35.289  41.362  1.00  0.00     0.153 C
BRANCH   6   7
HETATM    7  O2  UNL     1      18.705  34.927  40.819  1.00  0.00    -0.345 OA
ATOM      8  H2  UNL     1      17.974  35.345  41.260  1.00  0.00     0.219 HD
ENDBRANCH   6   7
BRANCH   6   9
HETATM    9  N2  UNL     1      20.108  34.877  42.650  1.00  0.00    -0.358 N
HETATM   10  C15 UNL     1      19.444  35.692  43.731  1.00  0.00     0.145 C
HETATM   11  C16 UNL     1      18.794  34.684  44.672  1.00  0.00     0.145 C
HETATM   12  N3  UNL     1      19.903  33.978  45.333  1.00  0.00    -0.349 N
HETATM   13  C17 UNL     1      19.719  33.465  46.649  1.00  0.00     0.224 C
HETATM   14  C21 UNL     1      21.133  33.836  44.619  1.00  0.00     0.145 C
HETATM   15  O3  UNL     1      18.614  33.604  47.229  1.00  0.00    -0.273 OA
HETATM   16  C22 UNL     1      20.891  33.781  43.108  1.00  0.00     0.145 C
BRANCH  13  17
HETATM   17  C18 UNL     1      20.813  32.769  47.344  1.00  0.00     0.078 A
HETATM   18  C19 UNL     1      20.685  32.789  48.851  1.00  0.00     0.015 A
HETATM   19  C20 UNL     1      21.744  33.609  48.147  1.00  0.00     0.015 A
ENDBRANCH  13  17
ENDBRANCH   6   9
ENDBRANCH   3   5
BRANCH   2  20
HETATM   20  C2  UNL     1      23.411  38.378  41.498  1.00  0.00     0.112 C
BRANCH  20  21
HETATM   21  C3  UNL     1      24.030  37.821  42.709  1.00  0.00    -0.030 C
HETATM   22  C4  UNL     1      23.092  37.170  43.681  1.00  0.00     0.014 C
HETATM   23  C5  UNL     1      23.877  36.484  44.774  1.00  0.00    -0.012 C
HETATM   24  C6  UNL     1      24.627  37.510  45.579  1.00  0.00     0.009 C
HETATM   25  C10 UNL     1      24.847  35.465  44.233  1.00  0.00     0.025 C
HETATM   26  C7  UNL     1      25.557  38.241  44.646  1.00  0.00    -0.012 C
HETATM   27  C8  UNL     1      26.572  37.282  44.110  1.00  0.00     0.025 C
HETATM   28  C12 UNL     1      24.808  38.867  43.483  1.00  0.00     0.014 C
HETATM   29  C9  UNL     1      25.835  36.195  43.363  1.00  0.00     0.019 C
HETATM   30 BR1  UNL     1      27.104  34.940  42.615  1.00  0.00    -0.085 Br
HETATM   31  C11 UNL     1      25.091  36.813  42.229  1.00  0.00     0.031 C
ENDBRANCH  20  21
ENDBRANCH   2  20
TORSDOF 6
ENDMDL