MODEL 4
REMARK VINA RESULT: -7.462307016      2.446      3.320
REMARK  5 active torsions:
REMARK  status: ('A' for Active; 'I' for Inactive)
REMARK       I    between atoms: C1_2  and  N1_3
REMARK    1  A    between atoms: C1_2  and  C4_8
REMARK    2  A    between atoms: N1_3  and  C2_5
REMARK    3  A    between atoms: C2_5  and  C3_6
REMARK       I    between atoms: N2_11  and  C7_12
REMARK    4  A    between atoms: C7_12  and  C8_14
REMARK       I    between atoms: N3_18  and  C12_19
REMARK    5  A    between atoms: C12_19  and  C13_21
ROOT
HETATM    1  C8  UNL     1      22.553  36.560  44.778  1.00  0.00     0.179 C
HETATM    2  C9  UNL     1      21.379  36.271  43.821  1.00  0.00     0.037 C
HETATM    3  C10 UNL     1      21.750  37.102  42.573  1.00  0.00     0.022 C
HETATM    4  C11 UNL     1      23.059  37.793  42.995  1.00  0.00     0.127 C
HETATM    5  N3  UNL     1      23.602  36.687  43.821  1.00  0.00    -0.338 N
HETATM    6  C12 UNL     1      24.786  36.009  43.593  1.00  0.00     0.229 C
HETATM    7  O3  UNL     1      25.110  35.005  44.322  1.00  0.00    -0.272 OA
ENDROOT
BRANCH   1   8
HETATM    8  C7  UNL     1      22.651  35.725  45.928  1.00  0.00     0.243 C
HETATM    9  N2  UNL     1      22.482  34.293  45.790  1.00  0.00    -0.337 N
HETATM   10  C4  UNL     1      22.513  33.237  46.782  1.00  0.00     0.180 C
HETATM   11  C6  UNL     1      22.236  33.314  44.778  1.00  0.00     0.129 C
HETATM   12  C5  UNL     1      22.651  32.208  45.718  1.00  0.00     0.055 C
HETATM   13  O2  UNL     1      22.884  36.195  47.086  1.00  0.00    -0.271 OA
BRANCH  10  14
HETATM   14  C1  UNL     1      21.201  33.104  47.465  1.00  0.00     0.240 C
HETATM   15  O1  UNL     1      20.853  32.016  47.987  1.00  0.00    -0.271 OA
HETATM   16  N1  UNL     1      20.316  34.206  47.544  1.00  0.00    -0.359 N
ATOM     17  H1  UNL     1      20.606  35.086  47.118  1.00  0.00     0.162 HD
BRANCH  16  18
HETATM   18  C2  UNL     1      19.033  34.155  48.188  1.00  0.00     0.133 C
BRANCH  18  19
HETATM   19  C3  UNL     1      18.144  35.335  47.870  1.00  0.00     0.104 C
HETATM   20 BR1  UNL     1      19.178  36.855  47.320  1.00  0.00    -0.095 Br
ENDBRANCH  18  19
ENDBRANCH  16  18
ENDBRANCH  10  14
ENDBRANCH   1   8
BRANCH   6  21
HETATM   21  C13 UNL     1      25.804  36.302  42.546  1.00  0.00     0.042 C
HETATM   22  C14 UNL     1      25.174  36.198  41.205  1.00  0.00     0.024 C
HETATM   23  C15 UNL     1      26.185  36.477  40.082  1.00  0.00    -0.013 C
HETATM   24  C16 UNL     1      27.169  35.330  40.125  1.00  0.00     0.009 C
HETATM   25  C20 UNL     1      26.804  37.806  40.357  1.00  0.00     0.009 C
HETATM   26  C17 UNL     1      27.834  35.353  41.502  1.00  0.00    -0.013 C
HETATM   27  C18 UNL     1      28.568  36.655  41.592  1.00  0.00     0.009 C
HETATM   28  C22 UNL     1      26.833  35.142  42.592  1.00  0.00     0.024 C
HETATM   29  C19 UNL     1      27.549  37.773  41.653  1.00  0.00    -0.013 C
HETATM   30  C21 UNL     1      26.614  37.523  42.816  1.00  0.00     0.024 C
ENDBRANCH   6  21
TORSDOF 5
ENDMDL