MODEL 5
REMARK VINA RESULT: -7.449905059      2.472      3.584
REMARK  5 active torsions:
REMARK  status: ('A' for Active; 'I' for Inactive)
REMARK    1  A    between atoms: C1_2  and  C2_3
REMARK       I    between atoms: C1_2  and  N1_5
REMARK    2  A    between atoms: N1_5  and  C3_7
REMARK    3  A    between atoms: C3_7  and  C4_8
REMARK    4  A    between atoms: C4_8  and  C5_9
REMARK       I    between atoms: C5_9  and  N2_11
REMARK       I    between atoms: N3_14  and  C8_15
REMARK    5  A    between atoms: C8_15  and  C9_17
ROOT
HETATM    1  C5  UNL     1      20.540  33.997  43.513  1.00  0.00     0.233 C
HETATM    2  O2  UNL     1      20.738  32.749  43.251  1.00  0.00    -0.272 OA
HETATM    3  N2  UNL     1      21.500  34.677  44.253  1.00  0.00    -0.348 N
HETATM    4  C6  UNL     1      22.691  33.874  44.655  1.00  0.00     0.145 C
HETATM    5  C7  UNL     1      23.815  34.429  43.769  1.00  0.00     0.145 C
HETATM    6  N3  UNL     1      23.966  35.826  44.127  1.00  0.00    -0.349 N
HETATM    7  C8  UNL     1      25.274  36.399  44.201  1.00  0.00     0.224 C
HETATM    8  O3  UNL     1      25.471  37.602  44.514  1.00  0.00    -0.273 OA
HETATM    9  C15 UNL     1      22.868  36.705  44.419  1.00  0.00     0.145 C
HETATM   10  C16 UNL     1      21.562  36.014  44.719  1.00  0.00     0.145 C
ENDROOT
BRANCH   1  11
HETATM   11  C4  UNL     1      19.252  34.538  42.960  1.00  0.00     0.073 C
HETATM   12  C17 UNL     1      18.422  33.299  42.589  1.00  0.00     0.025 C
HETATM   13  C18 UNL     1      17.072  33.360  43.245  1.00  0.00     0.002 C
HETATM   14  C19 UNL     1      17.035  33.490  44.709  1.00  0.00     0.000 C
HETATM   15  C20 UNL     1      18.116  34.422  45.178  1.00  0.00     0.002 C
HETATM   16  C21 UNL     1      18.538  35.292  44.000  1.00  0.00     0.025 C
BRANCH  11  17
HETATM   17  C3  UNL     1      19.557  35.329  41.750  1.00  0.00     0.083 C
BRANCH  17  18
HETATM   18  N1  UNL     1      20.779  35.166  41.067  1.00  0.00    -0.339 N
HETATM   19  C1  UNL     1      21.790  36.092  40.762  1.00  0.00     0.231 C
HETATM   20  O1  UNL     1      21.847  37.297  41.059  1.00  0.00    -0.272 OA
ATOM     21  H1  UNL     1      20.960  34.217  40.740  1.00  0.00     0.167 HD
BRANCH  19  22
HETATM   22  C2  UNL     1      22.987  35.592  39.964  1.00  0.00     0.188 C
HETATM   23 BR1  UNL     1      24.375  36.929  39.928  1.00  0.00    -0.087 Br
ENDBRANCH  19  22
ENDBRANCH  17  18
ENDBRANCH  11  17
ENDBRANCH   1  11
BRANCH   7  24
HETATM   24  C9  UNL     1      26.496  35.592  43.907  1.00  0.00     0.078 C
HETATM   25  C10 UNL     1      27.637  35.960  44.829  1.00  0.00     0.014 C
HETATM   26  C11 UNL     1      28.864  35.215  44.310  1.00  0.00     0.001 C
HETATM   27  C12 UNL     1      29.391  36.022  43.145  1.00  0.00     0.000 C
HETATM   28  C13 UNL     1      28.243  36.683  42.457  1.00  0.00     0.001 C
HETATM   29  C14 UNL     1      26.966  35.883  42.474  1.00  0.00     0.014 C
ENDBRANCH   7  24
TORSDOF 5
ENDMDL