MODEL 5
REMARK VINA RESULT: -7.570973280      3.484      8.451
REMARK  5 active torsions:
REMARK  status: ('A' for Active; 'I' for Inactive)
REMARK       I    between atoms: C1_2  and  N1_3
REMARK    1  A    between atoms: C1_2  and  C13_21
REMARK    2  A    between atoms: N1_3  and  C2_5
REMARK    3  A    between atoms: C2_5  and  C3_6
REMARK    4  A    between atoms: N2_9  and  S1_10
REMARK    5  A    between atoms: S1_10  and  N3_13
ROOT
HETATM    1  C3  UNL     1      23.247  35.719  45.217  1.00  0.00     0.006 C
HETATM    2  C4  UNL     1      22.617  34.502  44.563  1.00  0.00     0.022 C
HETATM    3  C5  UNL     1      21.163  34.756  44.360  1.00  0.00     0.109 C
HETATM    4  N2  UNL     1      20.455  35.187  45.518  1.00  0.00    -0.198 NA
HETATM    5  C11 UNL     1      21.115  36.179  46.307  1.00  0.00     0.109 C
HETATM    6  C12 UNL     1      22.568  35.884  46.558  1.00  0.00     0.022 C
ENDROOT
BRANCH   1   7
HETATM    7  C2  UNL     1      23.152  36.935  44.357  1.00  0.00     0.127 C
BRANCH   7   8
HETATM    8  N1  UNL     1      24.210  36.979  43.404  1.00  0.00    -0.360 N
HETATM    9  C1  UNL     1      24.220  37.818  42.256  1.00  0.00     0.221 C
HETATM   10  O1  UNL     1      23.195  38.566  42.105  1.00  0.00    -0.273 OA
ATOM     11  H1  UNL     1      25.013  36.368  43.555  1.00  0.00     0.162 HD
BRANCH   9  12
HETATM   12  C13 UNL     1      25.341  37.830  41.295  1.00  0.00     0.078 C
HETATM   13  C14 UNL     1      26.652  37.747  42.043  1.00  0.00     0.015 C
HETATM   14  C15 UNL     1      27.744  37.598  40.985  1.00  0.00     0.016 C
HETATM   15  C16 UNL     1      27.626  36.209  40.429  1.00  0.00     0.058 C
HETATM   16 BR1  UNL     1      28.372  35.001  41.771  1.00  0.00    -0.091 Br
HETATM   17  C17 UNL     1      26.232  35.771  40.163  1.00  0.00     0.016 C
HETATM   18  C18 UNL     1      25.204  36.839  40.200  1.00  0.00     0.015 C
ENDBRANCH   9  12
ENDBRANCH   7   8
ENDBRANCH   1   7
BRANCH   4  19
HETATM   19  S1  UNL     1      19.780  33.910  46.437  1.00  0.00     0.282 S
HETATM   20  O2  UNL     1      19.631  34.355  47.859  1.00  0.00    -0.194 OA
HETATM   21  O3  UNL     1      20.614  32.650  46.331  1.00  0.00    -0.194 OA
BRANCH  19  22
HETATM   22  N3  UNL     1      18.185  33.588  45.838  1.00  0.00    -0.198 NA
HETATM   23  C6  UNL     1      18.332  32.784  44.642  1.00  0.00     0.108 C
HETATM   24  C7  UNL     1      17.027  32.647  43.887  1.00  0.00     0.015 C
HETATM   25  C8  UNL     1      16.427  33.985  43.550  1.00  0.00     0.002 C
HETATM   26  C9  UNL     1      16.239  34.738  44.863  1.00  0.00     0.015 C
HETATM   27  C10 UNL     1      17.591  34.867  45.513  1.00  0.00     0.108 C
ENDBRANCH  19  22
ENDBRANCH   4  19
TORSDOF 5
ENDMDL