MODEL 2
REMARK VINA RESULT: -7.336298599      3.158      4.605
REMARK  6 active torsions:
REMARK  status: ('A' for Active; 'I' for Inactive)
REMARK    1  A    between atoms: N1_2  and  C2_3
REMARK    2  A    between atoms: C2_3  and  C3_4
REMARK    3  A    between atoms: C3_4  and  N2_5
REMARK       I    between atoms: N2_5  and  C4_7
REMARK    4  A    between atoms: C4_7  and  C5_9
REMARK    5  A    between atoms: C5_9  and  C6_11
REMARK    6  A    between atoms: N3_14  and  C9_15
ROOT
HETATM    1  C6  UNL     1      23.564  32.522  44.057  1.00  0.00     0.158 C
HETATM    2  C7  UNL     1      23.113  33.874  44.518  1.00  0.00     0.054 C
HETATM    3  C8  UNL     1      21.969  34.431  43.685  1.00  0.00     0.131 C
HETATM    4  N3  UNL     1      20.842  33.490  43.680  1.00  0.00    -0.318 N
HETATM    5  C18 UNL     1      21.187  32.119  43.577  1.00  0.00     0.363 C
HETATM    6  O2  UNL     1      20.354  31.268  43.190  1.00  0.00    -0.238 OA
HETATM    7  O3  UNL     1      22.463  31.656  43.901  1.00  0.00    -0.297 OA
ENDROOT
BRANCH   1   8
HETATM    8  C5  UNL     1      24.319  32.560  42.750  1.00  0.00     0.179 C
HETATM    9 BR1  UNL     1      25.380  30.924  42.676  1.00  0.00    -0.078 Br
BRANCH   8  10
HETATM   10  C4  UNL     1      25.184  33.739  42.626  1.00  0.00     0.234 C
HETATM   11  N2  UNL     1      26.278  34.013  43.480  1.00  0.00    -0.358 N
ATOM     12  H2  UNL     1      26.479  33.351  44.229  1.00  0.00     0.162 HD
HETATM   13  O1  UNL     1      24.953  34.568  41.709  1.00  0.00    -0.272 OA
BRANCH  11  14
HETATM   14  C3  UNL     1      27.123  35.170  43.354  1.00  0.00     0.150 C
BRANCH  14  15
HETATM   15  C2  UNL     1      26.915  36.121  44.481  1.00  0.00     0.256 C
BRANCH  15  16
HETATM   16  N1  UNL     1      26.001  37.173  44.233  1.00  0.00    -0.069 N
HETATM   17  C1  UNL     1      26.465  38.369  44.924  1.00  0.00     0.272 C
HETATM   18  C19 UNL     1      25.855  37.528  42.837  1.00  0.00     0.237 C
HETATM   19  C20 UNL     1      24.684  38.517  42.932  1.00  0.00     0.029 C
HETATM   20  C21 UNL     1      23.730  37.713  43.790  1.00  0.00     0.029 C
HETATM   21  C22 UNL     1      24.652  36.922  44.689  1.00  0.00     0.237 C
ENDBRANCH  15  16
ENDBRANCH  14  15
ENDBRANCH  11  14
ENDBRANCH   8  10
ENDBRANCH   1   8
BRANCH   4  22
HETATM   22  C9  UNL     1      19.483  33.874  43.769  1.00  0.00     0.042 C
HETATM   23  C10 UNL     1      19.314  35.399  43.856  1.00  0.00     0.036 C
HETATM   24  C11 UNL     1      17.873  35.521  43.379  1.00  0.00    -0.011 C
HETATM   25  C12 UNL     1      16.941  34.839  44.342  1.00  0.00     0.009 C
HETATM   26  C16 UNL     1      17.991  34.737  42.063  1.00  0.00     0.012 C
HETATM   27  C13 UNL     1      17.332  33.405  44.594  1.00  0.00    -0.011 C
HETATM   28  C14 UNL     1      17.401  32.723  43.251  1.00  0.00     0.012 C
HETATM   29  C17 UNL     1      18.787  33.349  45.033  1.00  0.00     0.036 C
HETATM   30  C15 UNL     1      18.601  33.440  42.626  1.00  0.00     0.015 C
ENDBRANCH   4  22
TORSDOF 6
ENDMDL