MODEL 1
REMARK VINA RESULT: -7.413790015      0.000      0.000
REMARK  5 active torsions:
REMARK  status: ('A' for Active; 'I' for Inactive)
REMARK    1  A    between atoms: C7_8  and  C8_9
REMARK    2  A    between atoms: C8_9  and  S1_10
REMARK    3  A    between atoms: S1_10  and  C9_12
REMARK    4  A    between atoms: C9_12  and  C10_13
REMARK       I    between atoms: C10_13  and  N2_15
REMARK    5  A    between atoms: N2_15  and  C11_17
ROOT
HETATM    1  C9  UNL     1      23.437  31.406  43.924  1.00  0.00     0.211 C
ENDROOT
BRANCH   1   2
HETATM    2  S1  UNL     1      24.716  32.416  43.216  1.00  0.00     0.029 S
HETATM    3  O1  UNL     1      24.153  33.350  41.963  1.00  0.00    -0.257 OA
BRANCH   2   4
HETATM    4  C8  UNL     1      25.439  33.356  44.518  1.00  0.00     0.174 C
BRANCH   4   5
HETATM    5  C7  UNL     1      24.890  34.738  44.641  1.00  0.00     0.123 C
HETATM    6  N1  UNL     1      25.571  35.931  44.299  1.00  0.00    -0.030 N
HETATM    7  C1  UNL     1      27.016  35.744  44.468  1.00  0.00     0.280 C
HETATM    8  C2  UNL     1      25.369  36.329  42.926  1.00  0.00     0.245 C
HETATM    9  C21 UNL     1      25.046  36.908  45.228  1.00  0.00     0.274 C
HETATM   10  C3  UNL     1      23.950  36.652  42.596  1.00  0.00     0.029 C
HETATM   11  C4  UNL     1      23.133  37.123  43.759  1.00  0.00     0.013 C
HETATM   12  C5  UNL     1      23.551  36.572  45.071  1.00  0.00     0.052 C
HETATM   13  C6  UNL     1      23.692  35.080  45.099  1.00  0.00     0.015 C
HETATM   14 BR1  UNL     1      25.448  38.672  44.624  1.00  0.00    -0.059 Br
ENDBRANCH   4   5
ENDBRANCH   2   4
ENDBRANCH   1   2
BRANCH   1  15
HETATM   15  C10 UNL     1      22.205  32.191  44.197  1.00  0.00     0.229 C
HETATM   16  O2  UNL     1      21.651  32.181  45.323  1.00  0.00    -0.273 OA
HETATM   17  N2  UNL     1      21.656  32.963  43.148  1.00  0.00    -0.351 N
ATOM     18  H2  UNL     1      22.139  32.941  42.250  1.00  0.00     0.163 HD
BRANCH  17  19
HETATM   19  C11 UNL     1      20.468  33.782  43.239  1.00  0.00     0.034 C
HETATM   20  C12 UNL     1      19.236  32.951  42.929  1.00  0.00     0.035 C
HETATM   21  C13 UNL     1      18.014  33.807  42.948  1.00  0.00    -0.012 C
HETATM   22  C14 UNL     1      17.859  34.429  44.305  1.00  0.00     0.009 C
HETATM   23  C18 UNL     1      18.123  34.830  41.846  1.00  0.00     0.009 C
HETATM   24  C15 UNL     1      19.056  35.280  44.585  1.00  0.00    -0.012 C
HETATM   25  C16 UNL     1      19.125  36.360  43.542  1.00  0.00     0.009 C
HETATM   26  C20 UNL     1      20.288  34.397  44.587  1.00  0.00     0.035 C
HETATM   27  C17 UNL     1      19.291  35.717  42.179  1.00  0.00    -0.012 C
HETATM   28  C19 UNL     1      20.541  34.859  42.195  1.00  0.00     0.035 C
ENDBRANCH  17  19
ENDBRANCH   1  15
TORSDOF 5
ENDMDL