MODEL 2
REMARK VINA RESULT: -7.228403823      1.956      2.552
REMARK  5 active torsions:
REMARK  status: ('A' for Active; 'I' for Inactive)
REMARK    1  A    between atoms: C2_2  and  C3_4
REMARK    2  A    between atoms: N1_7  and  S1_8
REMARK    3  A    between atoms: S1_8  and  N2_11
REMARK    4  A    between atoms: C9_15  and  C10_16
REMARK       I    between atoms: C10_16  and  N3_18
REMARK    5  A    between atoms: N3_18  and  C11_20
ROOT
HETATM    1  N2  UNL     1      22.096  33.383  45.106  1.00  0.00    -0.184 NA
HETATM    2  C6  UNL     1      21.835  33.117  46.484  1.00  0.00     0.109 C
HETATM    3  C7  UNL     1      22.883  32.135  46.967  1.00  0.00     0.018 C
HETATM    4  C8  UNL     1      23.337  31.505  45.676  1.00  0.00     0.032 C
HETATM    5  C9  UNL     1      23.255  32.660  44.706  1.00  0.00     0.167 C
ENDROOT
BRANCH   1   6
HETATM    6  S1  UNL     1      20.744  33.187  44.088  1.00  0.00     0.283 S
HETATM    7  O1  UNL     1      20.974  31.939  43.252  1.00  0.00    -0.194 OA
HETATM    8  O2  UNL     1      19.454  33.036  44.796  1.00  0.00    -0.194 OA
BRANCH   6   9
HETATM    9  N1  UNL     1      20.718  34.518  42.968  1.00  0.00    -0.197 NA
HETATM   10  C5  UNL     1      20.588  35.772  43.639  1.00  0.00     0.109 C
HETATM   11  C4  UNL     1      21.820  36.622  43.335  1.00  0.00     0.025 C
HETATM   12  C3  UNL     1      21.813  36.890  41.864  1.00  0.00     0.027 C
HETATM   13  C19 UNL     1      21.706  35.614  41.087  1.00  0.00     0.025 C
HETATM   14  C18 UNL     1      21.800  34.436  42.032  1.00  0.00     0.109 C
BRANCH  12  15
HETATM   15  C2  UNL     1      23.078  37.573  41.440  1.00  0.00    -0.017 C
HETATM   16  C1  UNL     1      23.544  38.647  42.040  1.00  0.00     0.027 C
HETATM   17 BR1  UNL     1      24.025  36.816  39.958  1.00  0.00    -0.056 Br
ENDBRANCH  12  15
ENDBRANCH   6   9
ENDBRANCH   1   6
BRANCH   5  18
HETATM   18  C10 UNL     1      24.442  33.549  44.786  1.00  0.00     0.236 C
HETATM   19  O3  UNL     1      25.544  33.090  45.184  1.00  0.00    -0.272 OA
HETATM   20  N3  UNL     1      24.348  34.938  44.413  1.00  0.00    -0.355 N
ATOM     21  H3  UNL     1      23.463  35.328  44.089  1.00  0.00     0.162 HD
BRANCH  20  22
HETATM   22  C11 UNL     1      25.528  35.771  44.506  1.00  0.00     0.084 C
HETATM   23  C12 UNL     1      25.171  37.159  45.006  1.00  0.00     0.025 C
HETATM   24  C13 UNL     1      26.459  37.927  45.142  1.00  0.00     0.002 C
HETATM   25  C14 UNL     1      27.146  38.081  43.831  1.00  0.00     0.004 C
HETATM   26  C15 UNL     1      27.256  36.838  43.025  1.00  0.00    -0.017 C
HETATM   27  C16 UNL     1      27.379  37.272  41.557  1.00  0.00     0.010 C
HETATM   28  C17 UNL     1      26.079  35.925  43.110  1.00  0.00     0.029 C
ENDBRANCH  20  22
ENDBRANCH   5  18
TORSDOF 5
ENDMDL