MODEL 5
REMARK VINA RESULT: -7.693031977      3.536      8.019
REMARK  5 active torsions:
REMARK  status: ('A' for Active; 'I' for Inactive)
REMARK    1  A    between atoms: C1_2  and  C2_3
REMARK    2  A    between atoms: C1_2  and  C3_5
REMARK    3  A    between atoms: C6_10  and  C7_11
REMARK       I    between atoms: C7_11  and  N2_13
REMARK    4  A    between atoms: C11_17  and  C12_18
REMARK       I    between atoms: C12_18  and  N3_20
REMARK    5  A    between atoms: N3_20  and  C13_22
ROOT
HETATM    1  C7  UNL     1      20.802  33.964  44.191  1.00  0.00     0.243 C
HETATM    2  O3  UNL     1      20.848  35.206  44.368  1.00  0.00    -0.271 OA
HETATM    3  N2  UNL     1      22.004  33.204  44.132  1.00  0.00    -0.337 N
HETATM    4  C8  UNL     1      22.137  31.762  43.943  1.00  0.00     0.127 C
HETATM    5  C9  UNL     1      23.369  31.463  44.770  1.00  0.00     0.022 C
HETATM    6  C10 UNL     1      24.274  32.619  44.402  1.00  0.00     0.037 C
HETATM    7  C11 UNL     1      23.330  33.772  44.258  1.00  0.00     0.179 C
ENDROOT
BRANCH   1   8
HETATM    8  C6  UNL     1      19.454  33.361  44.051  1.00  0.00     0.180 C
HETATM    9  N1  UNL     1      18.646  33.670  45.177  1.00  0.00    -0.333 N
HETATM   10  C5  UNL     1      18.944  33.650  46.584  1.00  0.00     0.221 C
HETATM   11  C21 UNL     1      17.252  34.093  45.153  1.00  0.00     0.100 C
HETATM   12  C4  UNL     1      17.980  34.528  47.325  1.00  0.00     0.117 C
HETATM   13  O2  UNL     1      19.857  33.018  47.174  1.00  0.00    -0.273 OA
HETATM   14  C3  UNL     1      17.310  35.240  46.145  1.00  0.00     0.087 C
HETATM   15  C20 UNL     1      16.732  34.466  43.820  1.00  0.00     0.026 C
HETATM   16  C19 UNL     1      17.805  34.875  42.870  1.00  0.00     0.004 C
HETATM   17  C18 UNL     1      18.904  33.859  42.741  1.00  0.00     0.035 C
BRANCH  14  18
HETATM   18  C1  UNL     1      15.965  35.734  46.508  1.00  0.00     0.143 C
HETATM   19  O1  UNL     1      15.087  34.913  46.690  1.00  0.00    -0.297 OA
BRANCH  18  20
HETATM   20  C2  UNL     1      15.689  37.165  46.643  1.00  0.00     0.164 C
HETATM   21 BR1  UNL     1      17.133  38.166  45.842  1.00  0.00    -0.089 Br
ENDBRANCH  18  20
ENDBRANCH  14  18
ENDBRANCH   1   8
BRANCH   7  22
HETATM   22  C12 UNL     1      23.669  34.654  43.122  1.00  0.00     0.241 C
HETATM   23  O4  UNL     1      24.277  34.171  42.142  1.00  0.00    -0.271 OA
HETATM   24  N3  UNL     1      23.324  36.022  43.117  1.00  0.00    -0.355 N
ATOM     25  H3  UNL     1      22.828  36.412  43.918  1.00  0.00     0.162 HD
BRANCH  24  26
HETATM   26  C13 UNL     1      23.655  36.881  42.010  1.00  0.00     0.084 C
HETATM   27  C14 UNL     1      22.549  36.978  40.999  1.00  0.00     0.025 C
HETATM   28  C15 UNL     1      22.195  38.466  40.954  1.00  0.00     0.002 C
HETATM   29  C16 UNL     1      23.539  39.118  41.281  1.00  0.00     0.002 C
HETATM   30  C17 UNL     1      23.982  38.279  42.462  1.00  0.00     0.025 C
ENDBRANCH  24  26
ENDBRANCH   7  22
TORSDOF 5
ENDMDL