MODEL 5
REMARK VINA RESULT: -6.772063188      3.445      4.101
REMARK  6 active torsions:
REMARK  status: ('A' for Active; 'I' for Inactive)
REMARK       I    between atoms: C1_2  and  N1_3
REMARK       I    between atoms: C1_2  and  N4_18
REMARK    1  A    between atoms: N1_3  and  C2_5
REMARK    2  A    between atoms: C2_5  and  C3_6
REMARK    3  A    between atoms: C3_6  and  N2_7
REMARK    4  A    between atoms: N3_13  and  C9_15
REMARK    5  A    between atoms: C9_15  and  C10_16
REMARK    6  A    between atoms: C13_21  and  C14_22
REMARK       I    between atoms: C14_22  and  N5_24
ROOT
HETATM    1  O1  UNL     1      22.351  34.124  41.748  1.00  0.00    -0.247 OA
HETATM    2  C1  UNL     1      22.835  34.268  42.890  1.00  0.00     0.323 C
HETATM    3  N1  UNL     1      24.139  33.799  43.151  1.00  0.00    -0.297 N
ATOM      4  H1  UNL     1      24.490  33.940  44.098  1.00  0.00     0.172 HD
HETATM    5  N4  UNL     1      22.052  34.901  43.890  1.00  0.00    -0.334 N
HETATM    6  C11 UNL     1      20.730  35.345  43.558  1.00  0.00     0.128 C
HETATM    7  C12 UNL     1      20.010  36.096  44.620  1.00  0.00     0.034 C
HETATM    8  C13 UNL     1      20.347  35.527  45.989  1.00  0.00     0.081 C
HETATM    9  C19 UNL     1      21.812  35.812  46.195  1.00  0.00     0.034 C
HETATM   10  C20 UNL     1      22.615  35.073  45.191  1.00  0.00     0.128 C
ENDROOT
BRANCH   3  11
HETATM   11  C2  UNL     1      25.008  33.159  42.253  1.00  0.00     0.109 C
HETATM   12  N3  UNL     1      25.755  33.912  41.492  1.00  0.00    -0.377 N
ATOM     13  H3  UNL     1      26.383  33.440  40.842  1.00  0.00     0.160 HD
BRANCH  11  14
HETATM   14  C3  UNL     1      25.179  31.725  42.098  1.00  0.00     0.348 C
BRANCH  14  15
HETATM   15  N2  UNL     1      26.178  31.120  42.965  1.00  0.00     0.095 N
HETATM   16  C4  UNL     1      27.081  30.277  42.234  1.00  0.00     0.273 C
HETATM   17  C5  UNL     1      27.311  28.981  42.933  1.00  0.00     0.030 C
HETATM   18  C6  UNL     1      25.951  28.268  42.905  1.00  0.00     0.003 C
HETATM   19  C7  UNL     1      25.062  29.076  43.808  1.00  0.00     0.030 C
HETATM   20  C8  UNL     1      25.512  30.464  44.054  1.00  0.00     0.273 C
ENDBRANCH  14  15
ENDBRANCH  11  14
BRANCH  12  21
HETATM   21  C9  UNL     1      25.770  35.334  41.491  1.00  0.00     0.132 C
BRANCH  21  22
HETATM   22  C10 UNL     1      26.460  35.934  40.290  1.00  0.00     0.104 C
HETATM   23 BR1  UNL     1      27.169  37.659  40.753  1.00  0.00    -0.095 Br
ENDBRANCH  21  22
ENDBRANCH  12  21
ENDBRANCH   3  11
BRANCH   8  24
HETATM   24  C14 UNL     1      19.493  36.058  47.036  1.00  0.00     0.224 C
HETATM   25  O2  UNL     1      19.983  36.970  47.785  1.00  0.00    -0.273 OA
HETATM   26  N5  UNL     1      18.170  35.654  47.296  1.00  0.00    -0.352 N
HETATM   27  C15 UNL     1      17.406  34.625  46.620  1.00  0.00     0.126 C
HETATM   28  C18 UNL     1      17.256  36.189  48.299  1.00  0.00     0.126 C
HETATM   29  C16 UNL     1      16.103  35.394  46.377  1.00  0.00     0.021 C
HETATM   30  C17 UNL     1      15.871  36.013  47.736  1.00  0.00     0.021 C
ENDBRANCH   8  24
TORSDOF 6
ENDMDL