MODEL 5
REMARK VINA RESULT: -6.829328840      2.223      4.084
REMARK  14 active torsions:
REMARK  status: ('A' for Active; 'I' for Inactive)
REMARK    1  A    between atoms: O1_2  and  C2_3
REMARK    2  A    between atoms: C2_3  and  C3_4
REMARK    3  A    between atoms: C3_4  and  N1_5
REMARK    4  A    between atoms: N1_5  and  C5_7
REMARK    5  A    between atoms: C6_10  and  N3_11
REMARK    6  A    between atoms: C7_16  and  N5_17
REMARK    7  A    between atoms: C8_20  and  O2_21
REMARK    8  A    between atoms: O2_21  and  C9_22
REMARK    9  A    between atoms: C9_22  and  C11_24
REMARK   10  A    between atoms: C11_24  and  O3_25
REMARK   11  A    between atoms: C11_24  and  C12_27
REMARK   12  A    between atoms: C12_27  and  O4_28
REMARK   13  A    between atoms: C12_27  and  C13_30
REMARK   14  A    between atoms: C16_35  and  N7_36
ROOT
HETATM    1  C5  UNL     1      -1.700  27.403  15.929  1.00  0.00     0.156 A
HETATM    2  N2  UNL     1      -1.098  26.261  15.490  1.00  0.00    -0.174 N
ATOM      3  H2  UNL     1      -0.103  26.299  15.268  1.00  0.00     0.186 HD
HETATM    4  C6  UNL     1      -1.732  25.091  15.332  1.00  0.00     0.679 A
HETATM    5  N4  UNL     1      -3.047  25.068  15.633  1.00  0.00    -0.174 N
ATOM      6  H4  UNL     1      -3.549  24.188  15.520  1.00  0.00     0.186 HD
HETATM    7  C7  UNL     1      -3.730  26.125  16.066  1.00  0.00     0.152 A
HETATM    8  C8  UNL     1      -3.062  27.339  16.226  1.00  0.00     0.158 A
ENDROOT
BRANCH   8   9
HETATM    9  O2  UNL     1      -3.708  28.474  16.657  1.00  0.00    -0.337 OA
BRANCH   9  10
HETATM   10  C9  UNL     1      -4.510  29.343  15.865  1.00  0.00     0.157 C
HETATM   11  C10 UNL     1      -4.030  29.476  14.437  1.00  0.00     0.042 C
BRANCH  10  12
HETATM   12  C11 UNL     1      -4.607  30.673  16.515  1.00  0.00     0.181 C
BRANCH  12  13
HETATM   13  O3  UNL     1      -5.893  31.050  16.905  1.00  0.00    -0.390 OA
ATOM     14  H3  UNL     1      -5.931  31.671  17.623  1.00  0.00     0.210 HD
ENDBRANCH  12  13
BRANCH  12  15
HETATM   15  C12 UNL     1      -3.610  30.915  17.591  1.00  0.00     0.200 C
BRANCH  15  16
HETATM   16  O4  UNL     1      -3.686  29.994  18.618  1.00  0.00    -0.387 OA
ATOM     17  H4  UNL     1      -3.138  29.231  18.475  1.00  0.00     0.210 HD
ENDBRANCH  15  16
BRANCH  15  18
HETATM   18  C13 UNL     1      -3.865  32.259  18.234  1.00  0.00     0.058 A
HETATM   19  C14 UNL     1      -3.128  33.347  17.854  1.00  0.00     0.115 A
HETATM   20  N6  UNL     1      -3.336  34.561  18.410  1.00  0.00    -0.370 N
HETATM   21  C15 UNL     1      -4.275  34.688  19.340  1.00  0.00     0.142 A
ATOM     22  H6  UNL     1      -2.781  35.366  18.119  1.00  0.00     0.164 HD
HETATM   23  C16 UNL     1      -5.032  33.609  19.741  1.00  0.00     0.189 A
HETATM   24  N8  UNL     1      -4.812  32.402  19.176  1.00  0.00    -0.336 N
ATOM     25  H8  UNL     1      -5.367  31.596  19.464  1.00  0.00     0.167 HD
BRANCH  23  26
HETATM   26  N7  UNL     1      -6.025  33.771  20.734  1.00  0.00    -0.096 N
HETATM   27  O5  UNL     1      -6.722  32.819  21.153  1.00  0.00    -0.530 OA
HETATM   28  O6  UNL     1      -6.259  35.018  21.276  1.00  0.00    -0.530 OA
ENDBRANCH  23  26
ENDBRANCH  15  18
ENDBRANCH  12  15
ENDBRANCH  10  12
ENDBRANCH   9  10
ENDBRANCH   8   9
BRANCH   1  29
HETATM   29  N1  UNL     1      -0.909  28.567  16.128  1.00  0.00    -0.367 N
HETATM   30  C4  UNL     1      -0.497  29.338  14.982  1.00  0.00     0.151 C
BRANCH  29  31
HETATM   31  C3  UNL     1      -0.521  29.024  17.438  1.00  0.00     0.150 C
BRANCH  31  32
HETATM   32  C2  UNL     1      -0.016  30.453  17.370  1.00  0.00     0.186 C
BRANCH  32  33
HETATM   33  O1  UNL     1       1.077  30.703  18.166  1.00  0.00    -0.394 OA
HETATM   34  C1  UNL     1       1.485  32.008  18.243  1.00  0.00     0.201 C
ENDBRANCH  32  33
ENDBRANCH  31  32
ENDBRANCH  29  31
ENDBRANCH   1  29
BRANCH   7  35
HETATM   35  N5  UNL     1      -4.981  26.064  16.351  1.00  0.00    -0.383 N
ATOM     36  H52 UNL     1      -5.541  25.310  15.952  1.00  0.00     0.157 HD
ATOM     37  H51 UNL     1      -5.437  26.747  16.957  1.00  0.00     0.157 HD
ENDBRANCH   7  35
BRANCH   4  38
HETATM   38  N3  UNL     1      -1.148  24.014  14.914  1.00  0.00    -0.234 N
ATOM     39  H32 UNL     1      -0.147  24.023  14.717  1.00  0.00     0.174 HD
ATOM     40  H31 UNL     1      -1.637  23.132  14.765  1.00  0.00     0.174 HD
ENDBRANCH   4  38
TORSDOF 14
ENDMDL