MODEL 3
REMARK VINA RESULT: -7.209132591      1.474      2.285
REMARK  13 active torsions:
REMARK  status: ('A' for Active; 'I' for Inactive)
REMARK    1  A    between atoms: O1_2  and  C2_3
REMARK    2  A    between atoms: C3_4  and  O2_5
REMARK    3  A    between atoms: O2_5  and  C4_6
REMARK    4  A    between atoms: C4_6  and  N1_7
REMARK    5  A    between atoms: C6_9  and  O3_10
REMARK    6  A    between atoms: C7_14  and  N3_15
REMARK    7  A    between atoms: C9_24  and  C10_25
REMARK    8  A    between atoms: C10_25  and  C11_26
REMARK    9  A    between atoms: C11_26  and  O4_27
REMARK   10  A    between atoms: C11_26  and  C12_29
REMARK   11  A    between atoms: C12_29  and  O5_30
REMARK   12  A    between atoms: O5_30  and  S1_31
REMARK   13  A    between atoms: C13_35  and  O9_36
ROOT
HETATM    1  C2  UNL     1      -3.837  29.653  16.937  1.00  0.00     0.154 A
HETATM    2  C3  UNL     1      -2.966  28.599  16.970  1.00  0.00     0.187 A
HETATM    3  N4  UNL     1      -1.777  28.741  17.637  1.00  0.00    -0.320 N
ATOM      4  H4  UNL     1      -1.126  27.957  17.664  1.00  0.00     0.169 HD
HETATM    5  C8  UNL     1      -1.448  29.888  18.257  1.00  0.00     0.110 A
HETATM    6  N5  UNL     1      -0.325  29.944  18.876  1.00  0.00    -0.385 N
ATOM      7  H51 UNL     1      -0.076  30.814  19.346  1.00  0.00     0.157 HD
ATOM      8  H52 UNL     1       0.303  29.141  18.883  1.00  0.00     0.157 HD
HETATM    9  C9  UNL     1      -2.303  30.981  18.248  1.00  0.00     0.024 A
HETATM   10  C13 UNL     1      -3.492  30.818  17.573  1.00  0.00     0.116 A
ENDROOT
BRANCH   2  11
HETATM   11  O2  UNL     1      -3.251  27.409  16.354  1.00  0.00    -0.285 OA
BRANCH  11  12
HETATM   12  C4  UNL     1      -4.240  26.498  16.726  1.00  0.00     0.260 C
BRANCH  12  13
HETATM   13  N1  UNL     1      -4.141  25.986  18.067  1.00  0.00    -0.144 N
HETATM   14  C5  UNL     1      -5.097  26.037  19.023  1.00  0.00     0.172 A
HETATM   15  C6  UNL     1      -4.614  25.441  20.166  1.00  0.00     0.172 A
HETATM   16  N2  UNL     1      -3.364  25.045  19.852  1.00  0.00    -0.169 N
HETATM   17  C7  UNL     1      -3.083  25.373  18.594  1.00  0.00     0.685 A
ATOM     18  H2  UNL     1      -2.726  24.565  20.487  1.00  0.00     0.186 HD
BRANCH  15  19
HETATM   19  O3  UNL     1      -5.277  25.278  21.395  1.00  0.00    -0.345 OA
ATOM     20  H3  UNL     1      -5.063  24.671  22.093  1.00  0.00     0.219 HD
ENDBRANCH  15  19
BRANCH  17  21
HETATM   21  N3  UNL     1      -1.983  25.140  17.987  1.00  0.00    -0.234 N
ATOM     22  H32 UNL     1      -1.831  25.204  16.981  1.00  0.00     0.174 HD
ATOM     23  H31 UNL     1      -1.110  24.859  18.433  1.00  0.00     0.174 HD
ENDBRANCH  17  21
ENDBRANCH  12  13
ENDBRANCH  11  12
ENDBRANCH   2  11
BRANCH   1  24
HETATM   24  O1  UNL     1      -5.039  29.558  16.284  1.00  0.00    -0.349 OA
HETATM   25  C1  UNL     1      -5.075  29.825  14.894  1.00  0.00     0.210 C
ENDBRANCH   1  24
BRANCH  10  26
HETATM   26  O9  UNL     1      -4.381  31.868  17.533  1.00  0.00    -0.352 OA
HETATM   27  C14 UNL     1      -5.226  32.065  18.647  1.00  0.00     0.210 C
ENDBRANCH  10  26
BRANCH   9  28
HETATM   28  C10 UNL     1      -2.012  32.250  18.899  1.00  0.00     0.079 C
BRANCH  28  29
HETATM   29  C11 UNL     1      -1.696  33.416  18.040  1.00  0.00     0.147 C
BRANCH  29  30
HETATM   30  O4  UNL     1      -0.457  33.974  18.214  1.00  0.00    -0.393 OA
ATOM     31  H4  UNL     1       0.008  33.721  19.003  1.00  0.00     0.210 HD
ENDBRANCH  29  30
BRANCH  29  32
HETATM   32  C12 UNL     1      -2.705  34.517  18.420  1.00  0.00     0.224 C
BRANCH  32  33
HETATM   33  O5  UNL     1      -3.547  34.785  17.353  1.00  0.00    -0.254 OA
BRANCH  33  34
HETATM   34  S1  UNL     1      -4.703  35.901  17.835  1.00  0.00     0.251 S
HETATM   35  O6  UNL     1      -5.067  35.693  19.277  1.00  0.00    -0.572 OA
HETATM   36  O7  UNL     1      -5.914  35.662  16.945  1.00  0.00    -0.572 OA
HETATM   37  O8  UNL     1      -4.120  37.442  17.557  1.00  0.00    -0.572 OA
ENDBRANCH  33  34
ENDBRANCH  32  33
ENDBRANCH  29  32
ENDBRANCH  28  29
ENDBRANCH   9  28
TORSDOF 13
ENDMDL