MODEL 4
REMARK VINA RESULT: -6.057820901      1.927      7.902
REMARK  15 active torsions:
REMARK  status: ('A' for Active; 'I' for Inactive)
REMARK    1  A    between atoms: O1_2  and  C2_3
REMARK    2  A    between atoms: C3_4  and  O2_5
REMARK    3  A    between atoms: C6_9  and  O3_10
REMARK    4  A    between atoms: C8_12  and  O4_13
REMARK    5  A    between atoms: C12_17  and  O5_18
REMARK    6  A    between atoms: O5_18  and  C13_19
REMARK    7  A    between atoms: C13_19  and  C14_20
REMARK    8  A    between atoms: C14_20  and  O6_21
REMARK    9  A    between atoms: C14_20  and  C15_23
REMARK   10  A    between atoms: C15_23  and  O7_24
REMARK   11  A    between atoms: C15_23  and  C16_26
REMARK   12  A    between atoms: C16_26  and  O8_27
REMARK   13  A    between atoms: C17_29  and  O9_30
REMARK   14  A    between atoms: C17_29  and  C18_32
REMARK   15  A    between atoms: C18_32  and  O10_33
ROOT
HETATM    1  C2  UNL     1      -5.814  36.889  18.692  1.00  0.00     0.140 A
HETATM    2  C3  UNL     1      -4.665  36.228  18.270  1.00  0.00     0.136 A
HETATM    3  C4  UNL     1      -4.444  34.918  18.635  1.00  0.00     0.118 A
HETATM    4  C5  UNL     1      -5.405  34.286  19.437  1.00  0.00     0.018 A
HETATM    5  C6  UNL     1      -6.530  34.958  19.843  1.00  0.00     0.113 A
HETATM    6  C8  UNL     1      -6.752  36.261  19.479  1.00  0.00     0.138 A
HETATM    7  C10 UNL     1      -5.381  32.891  19.951  1.00  0.00     0.074 C
HETATM    8  C11 UNL     1      -4.681  31.986  18.983  1.00  0.00     0.016 C
HETATM    9  C12 UNL     1      -3.489  32.124  18.406  1.00  0.00     0.107 C
HETATM   10  C17 UNL     1      -2.581  33.275  18.634  1.00  0.00     0.239 C
HETATM   11  O11 UNL     1      -3.248  34.426  18.121  1.00  0.00    -0.302 OA
ENDROOT
BRANCH   9  12
HETATM   12  O5  UNL     1      -3.126  31.114  17.558  1.00  0.00    -0.347 OA
BRANCH  12  13
HETATM   13  C13 UNL     1      -4.039  30.407  16.739  1.00  0.00     0.209 C
BRANCH  13  14
HETATM   14  C14 UNL     1      -3.409  29.188  16.126  1.00  0.00     0.173 C
BRANCH  14  15
HETATM   15  O6  UNL     1      -2.353  29.534  15.304  1.00  0.00    -0.391 OA
ATOM     16  H6  UNL     1      -1.535  29.174  15.627  1.00  0.00     0.210 HD
ENDBRANCH  14  15
BRANCH  14  17
HETATM   17  C15 UNL     1      -2.972  28.181  17.138  1.00  0.00     0.172 C
BRANCH  17  18
HETATM   18  O7  UNL     1      -3.288  28.564  18.440  1.00  0.00    -0.391 OA
ATOM     19  H7  UNL     1      -2.528  28.864  18.924  1.00  0.00     0.210 HD
ENDBRANCH  17  18
BRANCH  17  20
HETATM   20  C16 UNL     1      -1.465  28.047  17.066  1.00  0.00     0.198 C
BRANCH  20  21
HETATM   21  O8  UNL     1      -0.929  29.091  17.845  1.00  0.00    -0.398 OA
ATOM     22  H8  UNL     1      -0.042  28.834  18.071  1.00  0.00     0.209 HD
ENDBRANCH  20  21
ENDBRANCH  17  20
ENDBRANCH  14  17
ENDBRANCH  13  14
ENDBRANCH  12  13
ENDBRANCH   9  12
BRANCH  10  23
HETATM   23  O9  UNL     1      -2.414  33.378  20.023  1.00  0.00    -0.358 OA
ATOM     24  H9  UNL     1      -2.876  32.641  20.405  1.00  0.00     0.213 HD
ENDBRANCH  10  23
BRANCH  10  25
HETATM   25  C18 UNL     1      -1.240  33.079  18.001  1.00  0.00     0.240 C
BRANCH  25  26
HETATM   26  O10 UNL     1      -0.357  33.986  18.572  1.00  0.00    -0.395 OA
ATOM     27  H10 UNL     1       0.083  33.554  19.295  1.00  0.00     0.209 HD
ENDBRANCH  25  26
ENDBRANCH  10  25
BRANCH   5  28
HETATM   28  O3  UNL     1      -7.463  34.318  20.631  1.00  0.00    -0.352 OA
HETATM   29  C7  UNL     1      -7.273  34.345  22.051  1.00  0.00     0.210 C
ENDBRANCH   5  28
BRANCH   2  30
HETATM   30  O2  UNL     1      -3.713  36.847  17.479  1.00  0.00    -0.356 OA
ATOM     31  H2  UNL     1      -3.182  36.361  16.859  1.00  0.00     0.218 HD
ENDBRANCH   2  30
BRANCH   6  32
HETATM   32  O4  UNL     1      -7.871  36.906  19.891  1.00  0.00    -0.351 OA
HETATM   33  C9  UNL     1      -8.033  37.687  21.030  1.00  0.00     0.210 C
ENDBRANCH   6  32
BRANCH   1  34
HETATM   34  O1  UNL     1      -6.028  38.196  18.323  1.00  0.00    -0.350 OA
HETATM   35  C1  UNL     1      -5.448  39.305  18.993  1.00  0.00     0.210 C
ENDBRANCH   1  34
TORSDOF 15
ENDMDL