MODEL 5
REMARK VINA RESULT: -7.679810936      1.101      1.949
REMARK  13 active torsions:
REMARK  status: ('A' for Active; 'I' for Inactive)
REMARK    1  A    between atoms: N1_8  and  C6_10
REMARK    2  A    between atoms: C6_10  and  C7_11
REMARK    3  A    between atoms: C7_11  and  N2_12
REMARK    4  A    between atoms: N2_12  and  C8_14
REMARK    5  A    between atoms: C8_14  and  C9_15
REMARK    6  A    between atoms: C9_15  and  O2_16
REMARK    7  A    between atoms: O2_16  and  C10_17
REMARK    8  A    between atoms: C10_17  and  C11_18
REMARK    9  A    between atoms: C11_18  and  O3_19
REMARK   10  A    between atoms: O3_19  and  N3_20
REMARK   11  A    between atoms: N3_20  and  N4_22
REMARK   12  A    between atoms: N4_22  and  C12_24
REMARK   13  A    between atoms: C14_35  and  N9_36
ROOT
HETATM    1  C11 UNL     1      -2.505  29.780  14.100  1.00  0.00     0.229 C
ENDROOT
BRANCH   1   2
HETATM    2  C10 UNL     1      -1.255  29.350  15.067  1.00  0.00     0.196 C
BRANCH   2   3
HETATM    3  O2  UNL     1      -1.595  29.743  16.303  1.00  0.00    -0.387 OA
BRANCH   3   4
HETATM    4  C9  UNL     1      -0.587  29.067  17.157  1.00  0.00     0.187 C
BRANCH   4   5
HETATM    5  C8  UNL     1      -0.310  30.083  18.245  1.00  0.00     0.145 C
BRANCH   5   6
HETATM    6  N2  UNL     1       0.697  31.049  17.774  1.00  0.00    -0.396 N
ATOM      7  H2  UNL     1       1.243  30.872  16.931  1.00  0.00     0.159 HD
BRANCH   6   8
HETATM    8  C7  UNL     1       0.878  32.202  18.514  1.00  0.00     0.100 C
BRANCH   8   9
HETATM    9  C6  UNL     1      -0.176  33.263  18.452  1.00  0.00     0.107 C
BRANCH   9  10
HETATM   10  N1  UNL     1      -1.451  32.714  18.535  1.00  0.00    -0.342 N
HETATM   11  C5  UNL     1      -2.626  32.965  18.274  1.00  0.00     0.194 C
HETATM   12  S1  UNL     1      -3.831  31.701  18.711  1.00  0.00     0.088 S
HETATM   13  N10 UNL     1      -3.232  34.121  17.730  1.00  0.00    -0.242 N
HETATM   14  C4  UNL     1      -5.076  32.659  19.650  1.00  0.00     0.157 C
HETATM   15  O1  UNL     1      -4.524  31.333  17.380  1.00  0.00    -0.250 OA
HETATM   16  C2  UNL     1      -5.134  34.040  19.053  1.00  0.00     0.093 C
HETATM   17  C1  UNL     1      -4.474  35.068  19.920  1.00  0.00     0.049 C
HETATM   18  C3  UNL     1      -6.628  34.380  18.993  1.00  0.00     0.049 C
HETATM   19  O4  UNL     1      -4.616  34.133  17.780  1.00  0.00    -0.267 OA
ATOM     20  H10 UNL     1      -2.690  34.888  17.331  1.00  0.00     0.196 HD
ATOM     21  H1  UNL     1      -1.391  31.786  18.956  1.00  0.00     0.167 HD
ENDBRANCH   9  10
ENDBRANCH   8   9
ENDBRANCH   6   8
ENDBRANCH   5   6
ENDBRANCH   4   5
ENDBRANCH   3   4
ENDBRANCH   2   3
ENDBRANCH   1   2
BRANCH   1  22
HETATM   22  O3  UNL     1      -3.422  28.792  14.496  1.00  0.00    -0.263 OA
BRANCH  22  23
HETATM   23  N3  UNL     1      -4.242  28.696  15.390  1.00  0.00    -0.206 N
ATOM     24  H3  UNL     1      -5.160  28.964  15.036  1.00  0.00     0.216 HD
BRANCH  23  25
HETATM   25  N4  UNL     1      -4.345  28.363  16.655  1.00  0.00    -0.262 N
ATOM     26  H4  UNL     1      -4.793  28.864  17.422  1.00  0.00     0.190 HD
BRANCH  25  27
HETATM   27  C12 UNL     1      -3.635  27.065  16.667  1.00  0.00     0.182 A
HETATM   28  N5  UNL     1      -3.458  26.204  15.751  1.00  0.00    -0.171 N
HETATM   29  C13 UNL     1      -2.992  24.948  16.074  1.00  0.00     0.692 A
ATOM     30  H5  UNL     1      -3.659  26.441  14.780  1.00  0.00     0.186 HD
HETATM   31  N6  UNL     1      -2.908  24.058  15.179  1.00  0.00    -0.233 N
HETATM   32  N7  UNL     1      -2.732  24.665  17.394  1.00  0.00    -0.131 N
ATOM     33  H62 UNL     1      -3.101  24.267  14.199  1.00  0.00     0.174 HD
ATOM     34  H61 UNL     1      -2.563  23.128  15.418  1.00  0.00     0.174 HD
HETATM   35  N8  UNL     1      -2.896  25.561  18.346  1.00  0.00    -0.268 N
ATOM     36  H7  UNL     1      -2.401  23.733  17.643  1.00  0.00     0.205 HD
HETATM   37  C14 UNL     1      -3.349  26.789  18.017  1.00  0.00     0.161 A
ATOM     38  H8  UNL     1      -2.684  25.330  19.317  1.00  0.00     0.189 HD
BRANCH  37  39
HETATM   39  N9  UNL     1      -3.489  27.596  18.966  1.00  0.00    -0.381 N
ATOM     40  H92 UNL     1      -4.085  28.403  18.783  1.00  0.00     0.157 HD
ATOM     41  H91 UNL     1      -3.051  27.508  19.884  1.00  0.00     0.157 HD
ENDBRANCH  37  39
ENDBRANCH  25  27
ENDBRANCH  23  25
ENDBRANCH  22  23
ENDBRANCH   1  22
TORSDOF 13
ENDMDL