MODEL 5
REMARK VINA RESULT: -7.542581198      3.132      6.118
REMARK  13 active torsions:
REMARK  status: ('A' for Active; 'I' for Inactive)
REMARK    1  A    between atoms: C3_7  and  N3_8
REMARK    2  A    between atoms: C4_11  and  C5_12
REMARK    3  A    between atoms: C5_12  and  N4_13
REMARK    4  A    between atoms: N4_13  and  O3_15
REMARK    5  A    between atoms: O3_15  and  C6_16
REMARK    6  A    between atoms: C6_16  and  C7_17
REMARK    7  A    between atoms: C7_17  and  N5_18
REMARK    8  A    between atoms: N5_18  and  O4_19
REMARK    9  A    between atoms: N5_18  and  C12_26
REMARK   10  A    between atoms: O4_19  and  C8_20
REMARK   11  A    between atoms: C8_20  and  C11_23
REMARK   12  A    between atoms: C11_23  and  O5_24
REMARK   13  A    between atoms: C14_31  and  N8_32
ROOT
HETATM    1  N5  UNL     1      -2.530  30.971  17.738  1.00  0.00    -0.247 N
ENDROOT
BRANCH   1   2
HETATM    2  C7  UNL     1      -3.491  30.821  18.781  1.00  0.00     0.185 C
BRANCH   2   3
HETATM    3  C6  UNL     1      -4.496  31.985  18.788  1.00  0.00     0.223 C
BRANCH   3   4
HETATM    4  O3  UNL     1      -4.496  32.670  20.022  1.00  0.00    -0.279 OA
BRANCH   4   5
HETATM    5  N4  UNL     1      -4.399  34.016  20.122  1.00  0.00    -0.277 N
ATOM      6  H4  UNL     1      -3.465  34.417  20.022  1.00  0.00     0.193 HD
BRANCH   5   7
HETATM    7  C5  UNL     1      -5.343  34.827  20.325  1.00  0.00     0.131 C
BRANCH   7   8
HETATM    8  C4  UNL     1      -6.267  35.370  19.342  1.00  0.00     0.056 A
HETATM    9  C2  UNL     1      -7.656  35.434  19.562  1.00  0.00     0.037 A
HETATM   10  C1  UNL     1      -8.402  34.966  20.780  1.00  0.00     0.070 C
HETATM   11  N1  UNL     1      -8.198  35.991  18.478  1.00  0.00    -0.302 N
HETATM   12  N2  UNL     1      -7.257  36.274  17.614  1.00  0.00    -0.280 N
ATOM     13  H1  UNL     1      -9.194  36.170  18.344  1.00  0.00     0.186 HD
HETATM   14  C3  UNL     1      -6.052  35.905  18.113  1.00  0.00     0.202 A
ATOM     15  H2  UNL     1      -7.408  36.707  16.703  1.00  0.00     0.189 HD
BRANCH  14  16
HETATM   16  N3  UNL     1      -4.837  36.090  17.415  1.00  0.00    -0.096 N
HETATM   17  O1  UNL     1      -4.074  35.190  17.101  1.00  0.00    -0.530 OA
HETATM   18  O2  UNL     1      -4.521  37.404  17.041  1.00  0.00    -0.530 OA
ENDBRANCH  14  16
ENDBRANCH   7   8
ENDBRANCH   5   7
ENDBRANCH   4   5
ENDBRANCH   3   4
ENDBRANCH   2   3
ENDBRANCH   1   2
BRANCH   1  19
HETATM   19  O4  UNL     1      -2.859  30.739  16.473  1.00  0.00    -0.265 OA
BRANCH  19  20
HETATM   20  C8  UNL     1      -3.407  29.634  16.003  1.00  0.00     0.103 C
HETATM   21  C9  UNL     1      -2.426  29.125  14.881  1.00  0.00     0.050 C
HETATM   22  C10 UNL     1      -3.457  28.382  16.894  1.00  0.00     0.050 C
BRANCH  20  23
HETATM   23  C11 UNL     1      -4.748  29.722  15.306  1.00  0.00     0.203 C
BRANCH  23  24
HETATM   24  O5  UNL     1      -5.616  30.584  15.938  1.00  0.00    -0.398 OA
ATOM     25  H5  UNL     1      -5.195  31.393  16.204  1.00  0.00     0.209 HD
ENDBRANCH  23  24
ENDBRANCH  20  23
ENDBRANCH  19  20
ENDBRANCH   1  19
BRANCH   1  26
HETATM   26  C12 UNL     1      -1.157  31.342  17.968  1.00  0.00     0.167 A
HETATM   27  C13 UNL     1      -0.734  32.596  18.322  1.00  0.00     0.166 A
HETATM   28  N6  UNL     1      -1.580  33.693  18.468  1.00  0.00    -0.079 NA
HETATM   29  N7  UNL     1       0.584  32.882  18.577  1.00  0.00    -0.176 N
HETATM   30  C14 UNL     1       1.535  31.953  18.494  1.00  0.00     0.680 A
ATOM     31  H7  UNL     1       0.842  33.834  18.837  1.00  0.00     0.185 HD
HETATM   32  N9  UNL     1       1.173  30.715  18.152  1.00  0.00    -0.154 N
HETATM   33  C15 UNL     1      -0.122  30.407  17.897  1.00  0.00     0.291 A
ATOM     34  H9  UNL     1       1.884  29.988  18.082  1.00  0.00     0.187 HD
HETATM   35  O6  UNL     1      -0.369  29.224  17.593  1.00  0.00    -0.265 OA
BRANCH  30  36
HETATM   36  N8  UNL     1       2.789  32.229  18.736  1.00  0.00    -0.234 N
ATOM     37  H82 UNL     1       3.097  32.430  19.687  1.00  0.00     0.174 HD
ATOM     38  H81 UNL     1       3.487  32.251  17.993  1.00  0.00     0.174 HD
ENDBRANCH  30  36
ENDBRANCH   1  26
TORSDOF 13
ENDMDL