MODEL 4
REMARK VINA RESULT: -7.823276154      2.588      3.510
REMARK  12 active torsions:
REMARK  status: ('A' for Active; 'I' for Inactive)
REMARK    1  A    between atoms: C2_2  and  C3_4
REMARK    2  A    between atoms: C3_4  and  C4_5
REMARK    3  A    between atoms: C3_4  and  N4_17
REMARK    4  A    between atoms: C4_5  and  S1_6
REMARK    5  A    between atoms: S1_6  and  C5_7
REMARK    6  A    between atoms: N4_17  and  C7_19
REMARK    7  A    between atoms: C7_19  and  C8_24
REMARK    8  A    between atoms: N5_20  and  O2_22
REMARK       I    between atoms: C8_24  and  N6_26
REMARK    9  A    between atoms: N6_26  and  O4_28
REMARK   10  A    between atoms: O4_28  and  C9_29
REMARK   11  A    between atoms: C9_29  and  C11_31
REMARK   12  A    between atoms: C9_29  and  C12_34
ROOT
HETATM    1  N4  UNL     1      -1.638  31.548  18.648  1.00  0.00    -0.336 N
ATOM      2  H4  UNL     1      -1.344  31.235  19.573  1.00  0.00     0.167 HD
ENDROOT
BRANCH   1   3
HETATM    3  C3  UNL     1      -1.832  30.488  17.736  1.00  0.00     0.066 C
BRANCH   3   4
HETATM    4  C2  UNL     1      -0.543  30.011  17.169  1.00  0.00     0.168 C
HETATM    5  C1  UNL     1      -0.438  29.501  15.789  1.00  0.00     0.098 C
HETATM    6  O1  UNL     1       0.424  30.040  17.908  1.00  0.00    -0.292 OA
ENDBRANCH   3   4
BRANCH   3   7
HETATM    7  C4  UNL     1      -2.809  29.469  18.065  1.00  0.00     0.142 C
BRANCH   7   8
HETATM    8  S1  UNL     1      -3.869  29.001  16.686  1.00  0.00    -0.097 SA
BRANCH   8   9
HETATM    9  C5  UNL     1      -3.561  27.264  16.317  1.00  0.00     0.130 A
HETATM   10  N1  UNL     1      -4.388  26.244  16.489  1.00  0.00    -0.286 N
HETATM   11  N2  UNL     1      -4.032  25.049  16.264  1.00  0.00    -0.279 N
ATOM     12  H1  UNL     1      -5.339  26.424  16.812  1.00  0.00     0.188 HD
HETATM   13  C6  UNL     1      -2.756  24.854  15.837  1.00  0.00     0.159 A
ATOM     14  H2  UNL     1      -4.675  24.268  16.397  1.00  0.00     0.189 HD
HETATM   15  N3  UNL     1      -2.225  23.698  15.629  1.00  0.00    -0.379 N
HETATM   16  S2  UNL     1      -2.156  26.448  15.794  1.00  0.00    -0.027 SA
ATOM     17  H32 UNL     1      -2.584  22.743  15.655  1.00  0.00     0.158 HD
ATOM     18  H31 UNL     1      -1.267  23.551  15.309  1.00  0.00     0.158 HD
ENDBRANCH   8   9
ENDBRANCH   7   8
ENDBRANCH   3   7
ENDBRANCH   1   3
BRANCH   1  19
HETATM   19  C7  UNL     1      -1.765  32.944  18.549  1.00  0.00     0.196 C
HETATM   20  N5  UNL     1      -0.681  33.679  18.466  1.00  0.00    -0.248 N
ATOM     21  H5  UNL     1      -0.765  34.692  18.385  1.00  0.00     0.196 HD
BRANCH  20  22
HETATM   22  O2  UNL     1       0.544  33.109  18.485  1.00  0.00    -0.288 OA
ATOM     23  H2  UNL     1       0.665  32.229  18.819  1.00  0.00     0.244 HD
ENDBRANCH  20  22
BRANCH  19  24
HETATM   24  C8  UNL     1      -3.033  33.643  18.494  1.00  0.00     0.310 C
HETATM   25  O3  UNL     1      -3.543  34.075  17.481  1.00  0.00    -0.262 OA
HETATM   26  N6  UNL     1      -3.746  33.886  19.781  1.00  0.00    -0.227 N
ATOM     27  H6  UNL     1      -3.338  33.489  20.628  1.00  0.00     0.198 HD
BRANCH  26  28
HETATM   28  O4  UNL     1      -4.771  34.520  19.898  1.00  0.00    -0.257 OA
BRANCH  28  29
HETATM   29  C9  UNL     1      -5.956  34.823  20.193  1.00  0.00     0.166 C
HETATM   30  C10 UNL     1      -6.746  35.019  18.843  1.00  0.00     0.059 C
BRANCH  29  31
HETATM   31  C11 UNL     1      -6.687  33.740  20.934  1.00  0.00     0.268 C
HETATM   32  N7  UNL     1      -8.036  33.923  21.345  1.00  0.00    -0.059 NA
HETATM   33  O5  UNL     1      -6.112  32.688  21.180  1.00  0.00    -0.273 OA
ENDBRANCH  29  31
BRANCH  29  34
HETATM   34  C12 UNL     1      -6.238  36.137  20.912  1.00  0.00     0.023 C
HETATM   35  C13 UNL     1      -5.552  36.150  22.230  1.00  0.00     0.013 C
HETATM   36  C14 UNL     1      -6.048  37.370  20.111  1.00  0.00     0.013 C
ENDBRANCH  29  34
ENDBRANCH  28  29
ENDBRANCH  26  28
ENDBRANCH  19  24
ENDBRANCH   1  19
TORSDOF 12
ENDMDL