MODEL 5
REMARK VINA RESULT: -4.983845201      9.391     12.184
REMARK  13 active torsions:
REMARK  status: ('A' for Active; 'I' for Inactive)
REMARK    1  A    between atoms: O1_2  and  N1_3
REMARK    2  A    between atoms: N1_3  and  N2_4
REMARK       I    between atoms: N2_4  and  C3_6
REMARK    3  A    between atoms: C3_6  and  C4_8
REMARK    4  A    between atoms: C5_9  and  N3_10
REMARK    5  A    between atoms: N3_10  and  C6_12
REMARK    6  A    between atoms: C6_12  and  O3_14
REMARK    7  A    between atoms: C9_17  and  N4_18
REMARK       I    between atoms: N4_18  and  C10_20
REMARK    8  A    between atoms: C12_23  and  N5_24
REMARK       I    between atoms: N5_24  and  C13_26
REMARK    9  A    between atoms: C13_26  and  O6_28
REMARK   10  A    between atoms: C15_30  and  C16_31
REMARK   11  A    between atoms: C16_31  and  O7_32
REMARK   12  A    between atoms: C16_31  and  C17_34
REMARK   13  A    between atoms: C17_34  and  N6_35
ROOT
HETATM    1  C4  UNL     1      -6.479  36.582  20.746  1.00  0.00     0.075 A
HETATM    2  C5  UNL     1      -5.959  36.499  19.429  1.00  0.00     0.049 A
HETATM    3  C8  UNL     1      -5.456  35.296  18.972  1.00  0.00     0.062 A
HETATM    4  C9  UNL     1      -5.451  34.171  19.762  1.00  0.00     0.065 A
HETATM    5  C12 UNL     1      -5.959  34.252  21.065  1.00  0.00     0.077 A
HETATM    6  C15 UNL     1      -6.465  35.478  21.563  1.00  0.00     0.042 A
ENDROOT
BRANCH   6   7
HETATM    7  C16 UNL     1      -6.658  35.466  23.015  1.00  0.00     0.082 C
BRANCH   7   8
HETATM    8  O7  UNL     1      -5.544  35.569  23.699  1.00  0.00    -0.362 OA
ATOM      9  H7  UNL     1      -5.527  36.308  24.297  1.00  0.00     0.217 HD
ENDBRANCH   7   8
BRANCH   7  10
HETATM   10  C17 UNL     1      -7.838  35.397  23.862  1.00  0.00     0.294 C
BRANCH  10  11
HETATM   11  N6  UNL     1      -9.031  35.168  23.033  1.00  0.00    -0.074 N
ATOM     12  H63 UNL     1      -8.900  35.492  22.074  1.00  0.00     0.274 HD
ATOM     13  H62 UNL     1      -9.178  34.178  22.835  1.00  0.00     0.274 HD
ATOM     14  H61 UNL     1      -9.844  35.596  23.475  1.00  0.00     0.274 HD
ENDBRANCH  10  11
ENDBRANCH   7  10
ENDBRANCH   6   7
BRANCH   1  15
HETATM   15  C3  UNL     1      -6.963  37.887  21.097  1.00  0.00     0.274 C
HETATM   16  N2  UNL     1      -6.220  38.790  21.902  1.00  0.00    -0.239 N
HETATM   17  C2  UNL     1      -6.810  40.140  22.107  1.00  0.00     0.179 C
HETATM   18  O2  UNL     1      -8.130  38.243  20.710  1.00  0.00    -0.266 OA
BRANCH  16  19
HETATM   19  N1  UNL     1      -5.013  38.587  22.534  1.00  0.00     0.025 NA
BRANCH  19  20
HETATM   20  O1  UNL     1      -5.232  38.528  23.892  1.00  0.00    -0.272 OA
HETATM   21  C1  UNL     1      -4.037  38.641  24.568  1.00  0.00     0.234 C
ENDBRANCH  19  20
ENDBRANCH  16  19
ENDBRANCH   1  15
BRANCH   5  22
HETATM   22  N5  UNL     1      -5.947  33.079  21.803  1.00  0.00    -0.300 N
HETATM   23  C13 UNL     1      -7.101  32.252  22.035  1.00  0.00     0.364 C
HETATM   24  O5  UNL     1      -8.183  32.625  21.533  1.00  0.00    -0.238 OA
ATOM     25  H5  UNL     1      -5.059  32.782  22.209  1.00  0.00     0.171 HD
BRANCH  23  26
HETATM   26  O6  UNL     1      -7.050  31.097  22.770  1.00  0.00    -0.309 OA
HETATM   27  C14 UNL     1      -8.079  30.619  23.592  1.00  0.00     0.215 C
ENDBRANCH  23  26
ENDBRANCH   5  22
BRANCH   2  28
HETATM   28  N3  UNL     1      -6.057  37.620  18.576  1.00  0.00    -0.363 N
ATOM     29  H3  UNL     1      -6.959  37.990  18.281  1.00  0.00     0.162 HD
BRANCH  28  30
HETATM   30  C6  UNL     1      -4.781  38.234  18.129  1.00  0.00     0.213 C
HETATM   31  C7  UNL     1      -4.702  39.661  18.632  1.00  0.00     0.063 C
BRANCH  30  32
HETATM   32  O3  UNL     1      -4.884  38.282  16.720  1.00  0.00    -0.377 OA
ATOM     33  H3  UNL     1      -5.526  38.962  16.550  1.00  0.00     0.212 HD
ENDBRANCH  30  32
ENDBRANCH  28  30
ENDBRANCH   2  28
BRANCH   4  34
HETATM   34  N4  UNL     1      -4.940  32.941  19.316  1.00  0.00    -0.325 N
HETATM   35  C10 UNL     1      -3.611  32.515  19.193  1.00  0.00     0.218 C
HETATM   36  C11 UNL     1      -3.344  31.113  18.679  1.00  0.00     0.117 C
HETATM   37  O4  UNL     1      -2.591  33.173  19.465  1.00  0.00    -0.274 OA
ATOM     38  H4  UNL     1      -5.642  32.254  19.041  1.00  0.00     0.169 HD
ENDBRANCH   4  34
TORSDOF 13
ENDMDL