MODEL 5
REMARK VINA RESULT: -8.335662126      2.681      7.868
REMARK  13 active torsions:
REMARK  status: ('A' for Active; 'I' for Inactive)
REMARK    1  A    between atoms: O1_2  and  C2_3
REMARK    2  A    between atoms: C2_3  and  C3_4
REMARK    3  A    between atoms: C5_6  and  C6_7
REMARK    4  A    between atoms: C6_7  and  O2_8
REMARK    5  A    between atoms: C6_7  and  O3_10
REMARK    6  A    between atoms: C8_13  and  C9_14
REMARK    7  A    between atoms: C9_14  and  O4_15
REMARK    8  A    between atoms: C9_14  and  N1_17
REMARK    9  A    between atoms: N1_17  and  N2_19
REMARK   10  A    between atoms: N2_19  and  C10_21
REMARK   11  A    between atoms: C11_22  and  N3_23
REMARK   12  A    between atoms: N3_23  and  N4_25
REMARK       I    between atoms: N4_25  and  C12_27
REMARK   13  A    between atoms: C16_34  and  O8_35
ROOT
HETATM    1  C9  UNL     1      -4.353  29.950  16.640  1.00  0.00     0.170 C
ENDROOT
BRANCH   1   2
HETATM    2  C8  UNL     1      -3.970  28.573  16.461  1.00  0.00     0.075 C
HETATM    3  C7  UNL     1      -4.155  27.670  17.632  1.00  0.00     0.033 C
HETATM    4  C5  UNL     1      -3.705  26.460  17.890  1.00  0.00    -0.001 C
HETATM    5  C4  UNL     1      -2.854  25.657  17.014  1.00  0.00     0.047 C
HETATM    6  C3  UNL     1      -2.576  25.842  15.714  1.00  0.00     0.080 C
HETATM    7  O9  UNL     1      -3.070  26.872  14.941  1.00  0.00    -0.289 OA
HETATM    8  C16 UNL     1      -3.494  28.185  15.305  1.00  0.00     0.200 C
BRANCH   4   9
HETATM    9  C6  UNL     1      -4.100  25.845  19.198  1.00  0.00     0.288 C
BRANCH   9  10
HETATM   10  O2  UNL     1      -2.992  25.174  19.712  1.00  0.00    -0.367 OA
ATOM     11  H2  UNL     1      -3.171  24.242  19.682  1.00  0.00     0.213 HD
ENDBRANCH   9  10
BRANCH   9  12
HETATM   12  O3  UNL     1      -4.577  26.833  20.022  1.00  0.00    -0.367 OA
ATOM     13  H3  UNL     1      -5.387  26.535  20.418  1.00  0.00     0.213 HD
ENDBRANCH   9  12
ENDBRANCH   4   9
BRANCH   6  14
HETATM   14  C2  UNL     1      -1.672  24.870  15.053  1.00  0.00     0.232 C
BRANCH  14  15
HETATM   15  O1  UNL     1      -2.423  23.739  14.737  1.00  0.00    -0.390 OA
HETATM   16  C1  UNL     1      -1.838  23.041  13.672  1.00  0.00     0.201 C
ENDBRANCH  14  15
ENDBRANCH   6  14
BRANCH   8  17
HETATM   17  O8  UNL     1      -3.369  29.112  14.291  1.00  0.00    -0.335 OA
HETATM   18  C17 UNL     1      -2.135  29.733  14.011  1.00  0.00     0.212 C
ENDBRANCH   8  17
ENDBRANCH   1   2
BRANCH   1  19
HETATM   19  O4  UNL     1      -5.277  30.342  15.795  1.00  0.00    -0.344 OA
ATOM     20  H4  UNL     1      -5.792  31.073  16.118  1.00  0.00     0.219 HD
ENDBRANCH   1  19
BRANCH   1  21
HETATM   21  N1  UNL     1      -3.944  30.932  17.516  1.00  0.00    -0.279 N
ATOM     22  H1  UNL     1      -4.303  31.884  17.438  1.00  0.00     0.189 HD
BRANCH  21  23
HETATM   23  N2  UNL     1      -3.002  30.584  18.538  1.00  0.00    -0.293 N
ATOM     24  H2  UNL     1      -3.315  30.167  19.416  1.00  0.00     0.187 HD
BRANCH  23  25
HETATM   25  C10 UNL     1      -1.631  30.830  18.304  1.00  0.00     0.135 A
HETATM   26  C11 UNL     1      -0.795  31.909  18.462  1.00  0.00     0.135 A
HETATM   27  C14 UNL     1       0.263  31.136  17.965  1.00  0.00     0.254 A
HETATM   28  O6  UNL     1       1.477  31.426  17.778  1.00  0.00    -0.281 OA
HETATM   29  C15 UNL     1      -0.575  30.066  17.812  1.00  0.00     0.254 A
HETATM   30  O7  UNL     1      -0.428  28.892  17.395  1.00  0.00    -0.281 OA
BRANCH  26  31
HETATM   31  N3  UNL     1      -0.927  33.242  18.932  1.00  0.00    -0.292 N
ATOM     32  H3  UNL     1      -0.381  33.563  19.732  1.00  0.00     0.187 HD
BRANCH  31  33
HETATM   33  N4  UNL     1      -1.810  34.108  18.291  1.00  0.00    -0.270 N
HETATM   34  C12 UNL     1      -3.177  34.166  18.656  1.00  0.00     0.232 C
HETATM   35  C13 UNL     1      -4.071  35.104  17.942  1.00  0.00     0.119 C
HETATM   36  O5  UNL     1      -3.584  33.402  19.592  1.00  0.00    -0.272 OA
ATOM     37  H4  UNL     1      -1.465  34.712  17.544  1.00  0.00     0.190 HD
ENDBRANCH  31  33
ENDBRANCH  26  31
ENDBRANCH  23  25
ENDBRANCH  21  23
ENDBRANCH   1  21
TORSDOF 13
ENDMDL