MODEL 4
REMARK VINA RESULT: -8.133856994      1.562      7.377
REMARK  16 active torsions:
REMARK  status: ('A' for Active; 'I' for Inactive)
REMARK    1  A    between atoms: O1_2  and  C2_3
REMARK    2  A    between atoms: C5_6  and  C6_7
REMARK    3  A    between atoms: C7_8  and  C8_9
REMARK    4  A    between atoms: C8_9  and  O2_10
REMARK    5  A    between atoms: C8_9  and  C9_12
REMARK    6  A    between atoms: C10_17  and  N3_18
REMARK    7  A    between atoms: N3_18  and  C11_20
REMARK    8  A    between atoms: C11_20  and  O3_21
REMARK    9  A    between atoms: C11_20  and  C12_23
REMARK   10  A    between atoms: C12_23  and  O4_24
REMARK   11  A    between atoms: C12_23  and  C13_26
REMARK   12  A    between atoms: C13_26  and  C14_27
REMARK   13  A    between atoms: C13_26  and  C15_29
REMARK   14  A    between atoms: C15_29  and  O6_30
REMARK   15  A    between atoms: C16_32  and  O7_33
REMARK   16  A    between atoms: C17_35  and  O8_36
ROOT
HETATM    1  C9  UNL     1      -2.389  28.044  17.235  1.00  0.00     0.094 A
HETATM    2  N1  UNL     1      -2.977  28.172  18.437  1.00  0.00    -0.297 N
ATOM      3  H1  UNL     1      -2.746  28.980  19.014  1.00  0.00     0.187 HD
HETATM    4  N2  UNL     1      -3.831  27.300  18.890  1.00  0.00    -0.283 N
ATOM      5  H2  UNL     1      -4.239  27.458  19.812  1.00  0.00     0.188 HD
HETATM    6  C10 UNL     1      -4.214  26.171  18.191  1.00  0.00     0.154 A
HETATM    7  C16 UNL     1      -3.642  25.995  16.956  1.00  0.00     0.146 A
HETATM    8  C17 UNL     1      -2.729  26.950  16.499  1.00  0.00     0.130 A
ENDROOT
BRANCH   1   9
HETATM    9  C8  UNL     1      -1.379  29.069  16.763  1.00  0.00     0.195 C
BRANCH   9  10
HETATM   10  C7  UNL     1      -0.650  29.686  17.827  1.00  0.00     0.013 C
HETATM   11  C6  UNL     1      -0.892  30.722  18.537  1.00  0.00     0.028 C
BRANCH  11  12
HETATM   12  C5  UNL     1      -1.954  31.701  18.601  1.00  0.00     0.031 A
HETATM   13  C4  UNL     1      -1.848  33.039  18.341  1.00  0.00     0.032 A
HETATM   14  C3  UNL     1      -2.934  33.898  18.460  1.00  0.00     0.040 A
HETATM   15  C2  UNL     1      -4.154  33.439  18.840  1.00  0.00     0.083 A
HETATM   16  C18 UNL     1      -4.250  32.089  19.098  1.00  0.00     0.125 A
HETATM   17  N4  UNL     1      -3.208  31.280  18.983  1.00  0.00    -0.363 N
ATOM     18  H4  UNL     1      -3.342  30.290  19.188  1.00  0.00     0.165 HD
BRANCH  15  19
HETATM   19  O1  UNL     1      -5.283  34.209  18.984  1.00  0.00    -0.355 OA
HETATM   20  C1  UNL     1      -5.324  35.595  19.107  1.00  0.00     0.210 C
ENDBRANCH  15  19
ENDBRANCH  11  12
ENDBRANCH   9  10
BRANCH   9  21
HETATM   21  O2  UNL     1      -0.467  28.382  15.919  1.00  0.00    -0.385 OA
ATOM     22  H2  UNL     1       0.040  29.019  15.430  1.00  0.00     0.210 HD
ENDBRANCH   9  21
ENDBRANCH   1   9
BRANCH   8  23
HETATM   23  O8  UNL     1      -2.171  26.765  15.270  1.00  0.00    -0.356 OA
ATOM     24  H8  UNL     1      -1.378  26.250  15.186  1.00  0.00     0.218 HD
ENDBRANCH   8  23
BRANCH   7  25
HETATM   25  O7  UNL     1      -3.916  24.928  16.139  1.00  0.00    -0.355 OA
ATOM     26  H7  UNL     1      -3.989  24.996  15.194  1.00  0.00     0.218 HD
ENDBRANCH   7  25
BRANCH   6  27
HETATM   27  N3  UNL     1      -5.035  25.454  18.775  1.00  0.00    -0.344 N
ATOM     28  H3  UNL     1      -5.837  25.338  18.156  1.00  0.00     0.163 HD
BRANCH  27  29
HETATM   29  C11 UNL     1      -5.296  24.749  19.933  1.00  0.00     0.248 C
BRANCH  29  30
HETATM   30  O3  UNL     1      -4.122  24.464  20.676  1.00  0.00    -0.374 OA
ATOM     31  H3  UNL     1      -4.270  24.482  21.614  1.00  0.00     0.212 HD
ENDBRANCH  29  30
BRANCH  29  32
HETATM   32  C12 UNL     1      -6.117  25.634  20.894  1.00  0.00     0.179 C
BRANCH  32  33
HETATM   33  O4  UNL     1      -5.356  26.603  21.499  1.00  0.00    -0.390 OA
ATOM     34  H4  UNL     1      -5.413  27.442  21.056  1.00  0.00     0.210 HD
ENDBRANCH  32  33
BRANCH  32  35
HETATM   35  C13 UNL     1      -7.045  24.901  21.778  1.00  0.00     0.103 C
BRANCH  35  36
HETATM   36  C14 UNL     1      -7.656  23.715  21.097  1.00  0.00     0.240 C
HETATM   37  O5  UNL     1      -8.860  23.609  20.941  1.00  0.00    -0.306 OA
ENDBRANCH  35  36
BRANCH  35  38
HETATM   38  C15 UNL     1      -8.130  25.770  22.342  1.00  0.00     0.178 C
BRANCH  38  39
HETATM   39  O6  UNL     1      -7.560  26.863  23.044  1.00  0.00    -0.400 OA
ATOM     40  H6  UNL     1      -7.659  26.734  23.980  1.00  0.00     0.209 HD
ENDBRANCH  38  39
ENDBRANCH  35  38
ENDBRANCH  32  35
ENDBRANCH  29  32
ENDBRANCH  27  29
ENDBRANCH   6  27
TORSDOF 16
ENDMDL