MODEL 1
REMARK VINA RESULT: -9.492642819      0.000      0.000
REMARK  13 active torsions:
REMARK  status: ('A' for Active; 'I' for Inactive)
REMARK    1  A    between atoms: N1_2  and  C2_3
REMARK    2  A    between atoms: N1_2  and  C4_6
REMARK    3  A    between atoms: C5_9  and  N4_10
REMARK    4  A    between atoms: C6_15  and  O1_16
REMARK    5  A    between atoms: O1_16  and  C7_17
REMARK    6  A    between atoms: C7_17  and  C8_18
REMARK    7  A    between atoms: C8_18  and  C9_19
REMARK    8  A    between atoms: C9_19  and  O2_20
REMARK    9  A    between atoms: O2_20  and  C10_21
REMARK   10  A    between atoms: C12_23  and  C13_24
REMARK   11  A    between atoms: N6_25  and  N7_27
REMARK       I    between atoms: N7_27  and  C14_29
REMARK   12  A    between atoms: C17_36  and  N10_37
REMARK   13  A    between atoms: N10_37  and  O3_39
ROOT
HETATM    1  C2  UNL     1      -5.021  24.777  19.610  1.00  0.00     0.264 C
HETATM    2  C3  UNL     1      -5.779  25.073  20.814  1.00  0.00     0.079 C
HETATM    3  N2  UNL     1      -6.369  25.309  21.776  1.00  0.00    -0.196 NA
ENDROOT
BRANCH   1   4
HETATM    4  N1  UNL     1      -4.294  25.929  19.114  1.00  0.00    -0.209 N
HETATM    5  C1  UNL     1      -4.098  27.029  20.034  1.00  0.00     0.169 C
BRANCH   4   6
HETATM    6  C4  UNL     1      -3.798  25.966  17.771  1.00  0.00     0.698 A
HETATM    7  N3  UNL     1      -3.297  24.849  17.244  1.00  0.00    -0.022 N
HETATM    8  C5  UNL     1      -2.801  24.792  15.971  1.00  0.00     0.693 A
ATOM      9  H3  UNL     1      -3.283  24.003  17.814  1.00  0.00     0.203 HD
HETATM   10  N5  UNL     1      -2.850  25.937  15.276  1.00  0.00    -0.154 N
HETATM   11  C6  UNL     1      -3.348  27.077  15.777  1.00  0.00     0.252 A
ATOM     12  H5  UNL     1      -2.492  25.942  14.322  1.00  0.00     0.188 HD
HETATM   13  N11 UNL     1      -3.834  27.084  17.060  1.00  0.00    -0.154 N
ATOM     14  H11 UNL     1      -4.217  27.940  17.462  1.00  0.00     0.188 HD
BRANCH   8  15
HETATM   15  N4  UNL     1      -2.309  23.700  15.465  1.00  0.00    -0.234 N
ATOM     16  H42 UNL     1      -2.484  22.785  15.881  1.00  0.00     0.174 HD
ATOM     17  H41 UNL     1      -1.727  23.701  14.628  1.00  0.00     0.174 HD
ENDBRANCH   8  15
BRANCH  11  18
HETATM   18  O1  UNL     1      -3.401  28.253  15.067  1.00  0.00    -0.321 OA
BRANCH  18  19
HETATM   19  C7  UNL     1      -2.551  29.315  15.268  1.00  0.00     0.181 C
BRANCH  19  20
HETATM   20  C8  UNL     1      -1.081  28.975  15.422  1.00  0.00     0.053 C
BRANCH  20  21
HETATM   21  C9  UNL     1      -0.739  28.683  16.859  1.00  0.00     0.178 C
BRANCH  21  22
HETATM   22  O2  UNL     1      -0.034  29.684  17.524  1.00  0.00    -0.349 OA
BRANCH  22  23
HETATM   23  C10 UNL     1      -0.471  30.899  17.976  1.00  0.00     0.098 A
HETATM   24  C11 UNL     1      -1.783  31.260  18.151  1.00  0.00     0.052 A
HETATM   25  C12 UNL     1      -2.215  32.484  18.603  1.00  0.00    -0.017 A
HETATM   26  C15 UNL     1      -1.202  33.413  18.898  1.00  0.00     0.015 A
HETATM   27  C16 UNL     1       0.123  33.090  18.736  1.00  0.00     0.035 A
HETATM   28  C17 UNL     1       0.510  31.855  18.282  1.00  0.00     0.087 A
BRANCH  25  29
HETATM   29  C13 UNL     1      -3.595  32.875  18.795  1.00  0.00     0.118 C
HETATM   30  N6  UNL     1      -4.164  33.975  18.586  1.00  0.00    -0.309 N
ATOM     31  H6  UNL     1      -5.156  33.950  18.822  1.00  0.00     0.186 HD
BRANCH  30  32
HETATM   32  N7  UNL     1      -3.780  35.174  18.127  1.00  0.00    -0.274 N
HETATM   33  C14 UNL     1      -4.668  36.177  17.587  1.00  0.00     0.200 C
HETATM   34  N8  UNL     1      -4.271  37.339  17.444  1.00  0.00    -0.372 N
HETATM   35  N9  UNL     1      -5.973  35.778  17.244  1.00  0.00    -0.062 NA
ATOM     36  H82 UNL     1      -3.325  37.628  17.692  1.00  0.00     0.158 HD
ATOM     37  H81 UNL     1      -4.898  38.048  17.063  1.00  0.00     0.158 HD
ATOM     38  H7  UNL     1      -2.784  35.395  18.161  1.00  0.00     0.189 HD
ENDBRANCH  30  32
ENDBRANCH  25  29
BRANCH  28  39
HETATM   39  N10 UNL     1       1.887  31.549  18.124  1.00  0.00    -0.267 N
ATOM     40  H10 UNL     1       2.174  30.808  17.483  1.00  0.00     0.194 HD
BRANCH  39  41
HETATM   41  O3  UNL     1       2.753  32.185  18.770  1.00  0.00    -0.289 OA
ATOM     42  H3  UNL     1       3.001  33.062  18.502  1.00  0.00     0.244 HD
ENDBRANCH  39  41
ENDBRANCH  28  39
ENDBRANCH  22  23
ENDBRANCH  21  22
ENDBRANCH  20  21
ENDBRANCH  19  20
ENDBRANCH  18  19
ENDBRANCH  11  18
ENDBRANCH   4   6
ENDBRANCH   1   4
TORSDOF 13
ENDMDL