MODEL 3
REMARK VINA RESULT: -5.506039285      3.247      6.063
REMARK  10 active torsions:
REMARK  status: ('A' for Active; 'I' for Inactive)
REMARK    1  A    between atoms: C2_2  and  C3_3
REMARK    2  A    between atoms: C3_3  and  C4_4
REMARK    3  A    between atoms: C4_4  and  C5_5
REMARK    4  A    between atoms: C5_5  and  O1_6
REMARK    5  A    between atoms: O1_6  and  C6_7
REMARK    6  A    between atoms: C9_10  and  C10_11
REMARK    7  A    between atoms: C10_11  and  O2_13
REMARK    8  A    between atoms: C13_16  and  C14_17
REMARK    9  A    between atoms: C14_17  and  C16_19
REMARK   10  A    between atoms: C16_19  and  C17_20
ROOT
HETATM    1  C6  UNL     1     -34.563 -22.993 -41.722  1.00  0.00     0.075 A
HETATM    2  C7  UNL     1     -34.180 -22.405 -40.532  1.00  0.00     0.038 A
HETATM    3  C8  UNL     1     -34.042 -23.233 -39.428  1.00  0.00     0.012 A
HETATM    4  C9  UNL     1     -34.281 -24.591 -39.526  1.00  0.00    -0.029 A
HETATM    5  C12 UNL     1     -34.663 -25.106 -40.750  1.00  0.00     0.020 A
HETATM    6  C13 UNL     1     -34.817 -24.326 -41.884  1.00  0.00    -0.020 A
ENDROOT
BRANCH   1   7
HETATM    7  O1  UNL     1     -34.670 -22.161 -42.844  1.00  0.00    -0.351 OA
BRANCH   7   8
HETATM    8  C5  UNL     1     -35.564 -21.048 -42.807  1.00  0.00     0.175 C
BRANCH   8   9
HETATM    9  C4  UNL     1     -36.948 -21.556 -43.211  1.00  0.00     0.027 C
BRANCH   9  10
HETATM   10  C3  UNL     1     -37.853 -21.435 -41.997  1.00  0.00     0.002 C
BRANCH  10  11
HETATM   11  C2  UNL     1     -38.412 -22.751 -41.523  1.00  0.00    -0.004 C
HETATM   12  C1  UNL     1     -37.904 -23.207 -40.197  1.00  0.00     0.005 C
ENDBRANCH  10  11
ENDBRANCH   9  10
ENDBRANCH   8   9
ENDBRANCH   7   8
ENDBRANCH   1   7
BRANCH   6  13
HETATM   13  C14 UNL     1     -35.412 -24.821 -43.135  1.00  0.00     0.017 C
HETATM   14  C15 UNL     1     -34.207 -25.251 -44.043  1.00  0.00     0.015 C
BRANCH  13  15
HETATM   15  C16 UNL     1     -36.126 -26.165 -42.867  1.00  0.00     0.009 C
BRANCH  15  16
HETATM   16  C17 UNL     1     -37.612 -26.056 -42.949  1.00  0.00    -0.004 C
HETATM   17  C18 UNL     1     -37.997 -25.336 -44.218  1.00  0.00     0.005 C
ENDBRANCH  15  16
ENDBRANCH  13  15
ENDBRANCH   6  13
BRANCH   4  18
HETATM   18  C10 UNL     1     -34.114 -25.358 -38.295  1.00  0.00     0.147 C
HETATM   19  C11 UNL     1     -34.396 -26.844 -38.594  1.00  0.00     0.044 C
BRANCH  18  20
HETATM   20  O2  UNL     1     -32.807 -25.307 -37.809  1.00  0.00    -0.391 OA
ATOM     21  H2  UNL     1     -32.194 -25.765 -38.371  1.00  0.00     0.210 HD
ENDBRANCH  18  20
ENDBRANCH   4  18
TORSDOF 10
ENDMDL