MODEL 4
REMARK VINA RESULT: -5.691732639      2.415      7.880
REMARK  10 active torsions:
REMARK  status: ('A' for Active; 'I' for Inactive)
REMARK    1  A    between atoms: C2_2  and  C3_3
REMARK    2  A    between atoms: C5_5  and  C6_6
REMARK    3  A    between atoms: C6_6  and  C7_7
REMARK    4  A    between atoms: C7_7  and  C8_8
REMARK    5  A    between atoms: C14_14  and  O1_15
REMARK    6  A    between atoms: O1_15  and  C15_16
REMARK    7  A    between atoms: C15_16  and  C16_17
REMARK    8  A    between atoms: C16_17  and  C17_18
REMARK    9  A    between atoms: C17_18  and  C18_19
REMARK   10  A    between atoms: C18_19  and  O2_20
ROOT
HETATM    1  C8  UNL     1     -33.943 -24.955 -38.753  1.00  0.00    -0.024 A
HETATM    2  C9  UNL     1     -34.417 -26.132 -39.280  1.00  0.00     0.010 A
HETATM    3  C10 UNL     1     -35.227 -26.993 -38.596  1.00  0.00     0.001 A
HETATM    4  C11 UNL     1     -35.587 -26.671 -37.326  1.00  0.00     0.009 A
HETATM    5  C12 UNL     1     -35.116 -25.475 -36.760  1.00  0.00    -0.028 A
HETATM    6  C13 UNL     1     -35.572 -25.238 -35.378  1.00  0.00     0.051 C
HETATM    7  C14 UNL     1     -34.298 -24.596 -37.433  1.00  0.00     0.081 A
ENDROOT
BRANCH   1   8
HETATM    8  C7  UNL     1     -33.138 -24.116 -39.654  1.00  0.00     0.045 C
BRANCH   8   9
HETATM    9  C6  UNL     1     -34.005 -23.329 -40.623  1.00  0.00     0.032 C
BRANCH   9  10
HETATM   10  C5  UNL     1     -33.754 -23.837 -41.997  1.00  0.00    -0.024 C
HETATM   11  C3  UNL     1     -34.606 -24.504 -42.740  1.00  0.00    -0.088 C
HETATM   12  C4  UNL     1     -34.164 -24.941 -44.122  1.00  0.00     0.043 C
BRANCH  11  13
HETATM   13  C2  UNL     1     -35.984 -24.889 -42.374  1.00  0.00     0.029 C
HETATM   14  C1  UNL     1     -36.214 -26.394 -42.414  1.00  0.00     0.010 C
ENDBRANCH  11  13
ENDBRANCH   9  10
ENDBRANCH   8   9
ENDBRANCH   1   8
BRANCH   7  15
HETATM   15  O1  UNL     1     -33.822 -23.472 -36.957  1.00  0.00    -0.350 OA
BRANCH  15  16
HETATM   16  C15 UNL     1     -33.914 -22.217 -36.585  1.00  0.00     0.176 C
BRANCH  16  17
HETATM   17  C16 UNL     1     -33.160 -21.515 -35.534  1.00  0.00     0.029 C
BRANCH  17  18
HETATM   18  C17 UNL     1     -32.479 -20.234 -35.900  1.00  0.00     0.028 C
BRANCH  18  19
HETATM   19  C18 UNL     1     -32.885 -19.093 -34.971  1.00  0.00     0.164 C
BRANCH  19  20
HETATM   20  O2  UNL     1     -33.716 -18.180 -35.595  1.00  0.00    -0.401 OA
ATOM     21  H2  UNL     1     -34.402 -17.865 -35.018  1.00  0.00     0.209 HD
ENDBRANCH  19  20
ENDBRANCH  18  19
ENDBRANCH  17  18
ENDBRANCH  16  17
ENDBRANCH  15  16
ENDBRANCH   7  15
TORSDOF 10
ENDMDL