MODEL 5
REMARK VINA RESULT: -5.861060141      1.537      3.672
REMARK  10 active torsions:
REMARK  status: ('A' for Active; 'I' for Inactive)
REMARK    1  A    between atoms: C2_2  and  C3_3
REMARK    2  A    between atoms: C3_3  and  C4_4
REMARK    3  A    between atoms: C6_6  and  C7_7
REMARK    4  A    between atoms: C10_10  and  C11_11
REMARK    5  A    between atoms: C11_11  and  O1_12
REMARK    6  A    between atoms: O1_12  and  C12_13
REMARK    7  A    between atoms: C12_13  and  C14_15
REMARK    8  A    between atoms: C14_15  and  O2_16
REMARK    9  A    between atoms: C14_15  and  C15_18
REMARK   10  A    between atoms: C15_18  and  C16_19
ROOT
HETATM    1  C4  UNL     1     -32.347 -19.460 -36.463  1.00  0.00    -0.057 A
HETATM    2  C5  UNL     1     -32.245 -18.939 -35.179  1.00  0.00     0.014 A
HETATM    3  C6  UNL     1     -32.739 -19.578 -34.069  1.00  0.00    -0.057 A
HETATM    4  C9  UNL     1     -33.363 -20.794 -34.271  1.00  0.00     0.016 A
HETATM    5  C10 UNL     1     -33.502 -21.374 -35.514  1.00  0.00    -0.034 A
HETATM    6  C18 UNL     1     -32.980 -20.679 -36.604  1.00  0.00     0.016 A
ENDROOT
BRANCH   5   7
HETATM    7  C11 UNL     1     -34.182 -22.686 -35.681  1.00  0.00     0.207 C
BRANCH   7   8
HETATM    8  O1  UNL     1     -33.657 -23.315 -36.786  1.00  0.00    -0.379 OA
BRANCH   8   9
HETATM    9  C12 UNL     1     -34.593 -23.926 -37.586  1.00  0.00     0.146 C
HETATM   10  C13 UNL     1     -35.322 -22.960 -38.492  1.00  0.00     0.042 C
BRANCH   9  11
HETATM   11  C14 UNL     1     -33.840 -24.894 -38.506  1.00  0.00     0.146 C
BRANCH  11  12
HETATM   12  O2  UNL     1     -32.538 -24.448 -38.586  1.00  0.00    -0.393 OA
ATOM     13  H2  UNL     1     -32.240 -24.612 -39.472  1.00  0.00     0.210 HD
ENDBRANCH  11  12
BRANCH  11  14
HETATM   14  C15 UNL     1     -33.856 -26.245 -37.817  1.00  0.00     0.034 C
BRANCH  14  15
HETATM   15  C16 UNL     1     -35.293 -26.706 -37.713  1.00  0.00    -0.002 C
HETATM   16  C17 UNL     1     -35.842 -27.149 -39.044  1.00  0.00     0.005 C
ENDBRANCH  14  15
ENDBRANCH  11  14
ENDBRANCH   9  11
ENDBRANCH   8   9
ENDBRANCH   7   8
ENDBRANCH   5   7
BRANCH   3  17
HETATM   17  C7  UNL     1     -32.617 -19.003 -32.724  1.00  0.00     0.034 C
HETATM   18  C8  UNL     1     -32.124 -17.598 -32.703  1.00  0.00     0.010 C
ENDBRANCH   3  17
BRANCH   1  19
HETATM   19  C3  UNL     1     -31.788 -18.709 -37.606  1.00  0.00     0.038 C
BRANCH  19  20
HETATM   20  C2  UNL     1     -32.385 -19.175 -38.925  1.00  0.00     0.000 C
HETATM   21  C1  UNL     1     -32.481 -18.018 -39.909  1.00  0.00     0.005 C
ENDBRANCH  19  20
ENDBRANCH   1  19
TORSDOF 10
ENDMDL