MODEL 1
REMARK VINA RESULT: -5.978446348      0.000      0.000
REMARK  10 active torsions:
REMARK  status: ('A' for Active; 'I' for Inactive)
REMARK    1  A    between atoms: C2_2  and  C3_3
REMARK    2  A    between atoms: C3_3  and  C4_4
REMARK    3  A    between atoms: C4_4  and  C5_5
REMARK    4  A    between atoms: C5_5  and  C6_6
REMARK    5  A    between atoms: C6_6  and  C7_7
REMARK    6  A    between atoms: C7_7  and  C8_9
REMARK    7  A    between atoms: C8_9  and  C9_10
REMARK    8  A    between atoms: C9_10  and  O2_11
REMARK    9  A    between atoms: C9_10  and  C10_13
REMARK   10  A    between atoms: C10_13  and  C11_14
ROOT
HETATM    1  C9  UNL     1     -32.820 -20.668 -35.245  1.00  0.00     0.129 C
ENDROOT
BRANCH   1   2
HETATM    2  C8  UNL     1     -33.580 -21.887 -34.823  1.00  0.00     0.110 C
BRANCH   2   3
HETATM    3  C7  UNL     1     -34.146 -22.564 -36.007  1.00  0.00     0.129 C
HETATM    4  O1  UNL     1     -33.440 -22.841 -36.948  1.00  0.00    -0.298 OA
BRANCH   3   5
HETATM    5  C6  UNL     1     -35.599 -22.918 -36.065  1.00  0.00     0.078 C
BRANCH   5   6
HETATM    6  C5  UNL     1     -35.639 -24.294 -36.732  1.00  0.00     0.007 C
BRANCH   6   7
HETATM    7  C4  UNL     1     -35.562 -25.387 -35.707  1.00  0.00     0.000 C
BRANCH   7   8
HETATM    8  C3  UNL     1     -35.170 -26.670 -36.387  1.00  0.00    -0.000 C
BRANCH   8   9
HETATM    9  C2  UNL     1     -34.845 -26.443 -37.830  1.00  0.00    -0.005 C
HETATM   10  C1  UNL     1     -33.451 -26.977 -38.130  1.00  0.00     0.005 C
ENDBRANCH   8   9
ENDBRANCH   7   8
ENDBRANCH   6   7
ENDBRANCH   5   6
ENDBRANCH   3   5
ENDBRANCH   2   3
ENDBRANCH   1   2
BRANCH   1  11
HETATM   11  O2  UNL     1     -33.501 -20.099 -36.376  1.00  0.00    -0.395 OA
ATOM     12  H2  UNL     1     -33.131 -20.486 -37.160  1.00  0.00     0.210 HD
ENDBRANCH   1  11
BRANCH   1  13
HETATM   13  C10 UNL     1     -32.804 -19.631 -34.159  1.00  0.00     0.070 C
BRANCH  13  14
HETATM   14  C11 UNL     1     -31.694 -18.683 -34.388  1.00  0.00    -0.055 A
HETATM   15  C12 UNL     1     -31.726 -17.566 -35.159  1.00  0.00     0.013 A
HETATM   16  C13 UNL     1     -30.630 -16.729 -35.329  1.00  0.00    -0.061 A
HETATM   17  C14 UNL     1     -30.708 -15.515 -36.184  1.00  0.00     0.048 C
HETATM   18  C15 UNL     1     -29.461 -17.054 -34.683  1.00  0.00     0.013 A
HETATM   19  C16 UNL     1     -29.383 -18.190 -33.882  1.00  0.00    -0.061 A
HETATM   20  C17 UNL     1     -28.109 -18.548 -33.174  1.00  0.00     0.048 C
HETATM   21  C18 UNL     1     -30.494 -18.994 -33.739  1.00  0.00     0.013 A
ENDBRANCH  13  14
ENDBRANCH   1  13
TORSDOF 10
ENDMDL