MODEL 1
REMARK VINA RESULT: -5.916470910      0.000      0.000
REMARK  7 active torsions:
REMARK  status: ('A' for Active; 'I' for Inactive)
REMARK    1  A    between atoms: C2_2  and  C3_3
REMARK    2  A    between atoms: C3_3  and  C4_4
REMARK    3  A    between atoms: C4_4  and  C5_5
REMARK    4  A    between atoms: C6_7  and  C7_8
REMARK    5  A    between atoms: C6_7  and  O2_10
REMARK    6  A    between atoms: O2_10  and  C9_11
REMARK    7  A    between atoms: C9_11  and  C10_12
ROOT
HETATM    1  O2  UNL     1     -33.589 -23.138 -37.125  1.00  0.00    -0.350 OA
ENDROOT
BRANCH   1   2
HETATM    2  C6  UNL     1     -33.940 -24.358 -37.588  1.00  0.00     0.055 C
HETATM    3  C4  UNL     1     -34.825 -25.165 -36.987  1.00  0.00     0.009 C
BRANCH   3   4
HETATM    4  C3  UNL     1     -35.159 -26.517 -37.515  1.00  0.00     0.044 C
BRANCH   4   5
HETATM    5  C2  UNL     1     -36.531 -26.587 -38.151  1.00  0.00     0.000 C
HETATM    6  C1  UNL     1     -36.370 -27.127 -39.569  1.00  0.00     0.005 C
ENDBRANCH   4   5
ENDBRANCH   3   4
BRANCH   3   7
HETATM    7  C5  UNL     1     -35.551 -24.690 -35.817  1.00  0.00     0.268 C
HETATM    8  O1  UNL     1     -35.401 -25.205 -34.665  1.00  0.00    -0.302 OA
ENDBRANCH   3   7
BRANCH   2   9
HETATM    9  C7  UNL     1     -33.246 -24.785 -38.850  1.00  0.00     0.061 C
HETATM   10  C8  UNL     1     -33.924 -24.117 -40.045  1.00  0.00     0.012 C
ENDBRANCH   2   9
ENDBRANCH   1   2
BRANCH   1  11
HETATM   11  C9  UNL     1     -33.962 -21.847 -37.246  1.00  0.00     0.215 C
BRANCH  11  12
HETATM   12  C10 UNL     1     -33.166 -20.798 -36.574  1.00  0.00    -0.022 A
HETATM   13  C11 UNL     1     -32.492 -19.812 -37.224  1.00  0.00    -0.053 A
HETATM   14  C12 UNL     1     -32.729 -19.589 -38.657  1.00  0.00     0.049 C
HETATM   15  C13 UNL     1     -31.607 -18.936 -36.561  1.00  0.00     0.014 A
HETATM   16  C14 UNL     1     -31.392 -19.047 -35.213  1.00  0.00    -0.061 A
HETATM   17  C15 UNL     1     -30.440 -18.129 -34.521  1.00  0.00     0.048 C
HETATM   18  C16 UNL     1     -32.075 -20.045 -34.538  1.00  0.00     0.014 A
HETATM   19  C17 UNL     1     -32.945 -20.906 -35.197  1.00  0.00    -0.053 A
HETATM   20  C18 UNL     1     -33.643 -21.944 -34.389  1.00  0.00     0.049 C
ENDBRANCH  11  12
ENDBRANCH   1  11
TORSDOF 7
ENDMDL