MODEL 1
REMARK VINA RESULT: -7.797071880      0.000      0.000
REMARK  5 active torsions:
REMARK  status: ('A' for Active; 'I' for Inactive)
REMARK    1  A    between atoms: C2_2  and  C5_5
REMARK    2  A    between atoms: C6_10  and  O1_11
REMARK    3  A    between atoms: C7_13  and  C8_14
REMARK    4  A    between atoms: C8_14  and  C9_15
REMARK    5  A    between atoms: C9_15  and  C10_16
ROOT
HETATM    1  C10 UNL     1     -33.384 -21.409 -35.896  1.00  0.00     0.123 A
HETATM    2  N3  UNL     1     -33.293 -21.406 -34.524  1.00  0.00    -0.284 N
ATOM      3  H3  UNL     1     -33.688 -22.113 -33.905  1.00  0.00     0.188 HD
HETATM    4  N4  UNL     1     -32.621 -20.354 -34.138  1.00  0.00    -0.285 N
ATOM      5  H4  UNL     1     -32.412 -20.117 -33.168  1.00  0.00     0.188 HD
HETATM    6  C11 UNL     1     -32.247 -19.634 -35.203  1.00  0.00     0.136 A
HETATM    7  N5  UNL     1     -32.716 -20.279 -36.274  1.00  0.00    -0.317 N
HETATM    8  C12 UNL     1     -32.506 -19.736 -37.586  1.00  0.00     0.159 C
HETATM    9  C13 UNL     1     -31.905 -18.381 -37.548  1.00  0.00     0.254 C
HETATM   10  N6  UNL     1     -30.916 -18.163 -36.560  1.00  0.00    -0.058 N
ATOM     11  H61 UNL     1     -30.497 -17.238 -36.648  1.00  0.00     0.278 HD
ATOM     12  H62 UNL     1     -30.085 -18.729 -36.732  1.00  0.00     0.278 HD
HETATM   13  C14 UNL     1     -31.445 -18.385 -35.214  1.00  0.00     0.184 C
HETATM   14  C15 UNL     1     -30.252 -18.556 -34.306  1.00  0.00     0.047 C
HETATM   15  C16 UNL     1     -30.141 -17.339 -33.382  1.00  0.00     0.003 C
HETATM   16  C17 UNL     1     -31.395 -17.331 -32.541  1.00  0.00     0.000 C
HETATM   17  C18 UNL     1     -32.559 -17.021 -33.424  1.00  0.00     0.003 C
HETATM   18  C19 UNL     1     -32.289 -17.178 -34.885  1.00  0.00     0.047 C
ENDROOT
BRANCH   1  19
HETATM   19  C9  UNL     1     -34.068 -22.440 -36.657  1.00  0.00     0.051 C
BRANCH  19  20
HETATM   20  C8  UNL     1     -34.404 -23.631 -36.306  1.00  0.00     0.022 C
BRANCH  20  21
HETATM   21  C7  UNL     1     -34.462 -24.805 -37.166  1.00  0.00     0.041 A
HETATM   22  C5  UNL     1     -35.421 -25.822 -37.076  1.00  0.00     0.048 A
HETATM   23  N1  UNL     1     -35.129 -26.704 -38.031  1.00  0.00    -0.301 N
HETATM   24  N2  UNL     1     -34.081 -26.321 -38.696  1.00  0.00    -0.279 N
ATOM     25  H1  UNL     1     -35.654 -27.559 -38.215  1.00  0.00     0.186 HD
HETATM   26  C6  UNL     1     -33.618 -25.132 -38.194  1.00  0.00     0.167 A
ATOM     27  H2  UNL     1     -33.663 -26.830 -39.475  1.00  0.00     0.189 HD
BRANCH  22  28
HETATM   28  C2  UNL     1     -36.507 -25.856 -36.108  1.00  0.00    -0.006 C
HETATM   29  C1  UNL     1     -37.339 -27.116 -36.363  1.00  0.00     0.021 C
HETATM   30  C3  UNL     1     -37.469 -24.680 -36.297  1.00  0.00     0.021 C
HETATM   31  C4  UNL     1     -36.039 -25.952 -34.671  1.00  0.00     0.021 C
ENDBRANCH  22  28
BRANCH  26  32
HETATM   32  O1  UNL     1     -32.499 -24.459 -38.698  1.00  0.00    -0.344 OA
ATOM     33  H1  UNL     1     -32.508 -23.547 -38.962  1.00  0.00     0.219 HD
ENDBRANCH  26  32
ENDBRANCH  20  21
ENDBRANCH  19  20
ENDBRANCH   1  19
TORSDOF 5
ENDMDL