MODEL 4
REMARK VINA RESULT: -5.860851681      2.988      7.933
REMARK  9 active torsions:
REMARK  status: ('A' for Active; 'I' for Inactive)
REMARK    1  A    between atoms: C2_2  and  C3_3
REMARK    2  A    between atoms: C3_3  and  C6_6
REMARK    3  A    between atoms: C6_6  and  C7_7
REMARK    4  A    between atoms: C7_7  and  O1_8
REMARK    5  A    between atoms: C7_7  and  C8_10
REMARK    6  A    between atoms: C8_10  and  C9_11
REMARK    7  A    between atoms: C9_11  and  C10_12
REMARK    8  A    between atoms: C10_12  and  O2_13
REMARK    9  A    between atoms: O2_13  and  C11_14
ROOT
HETATM    1  C9  UNL     1     -34.598 -22.860 -36.138  1.00  0.00     0.029 C
ENDROOT
BRANCH   1   2
HETATM    2  C8  UNL     1     -34.129 -22.834 -37.573  1.00  0.00     0.034 C
BRANCH   2   3
HETATM    3  C7  UNL     1     -33.954 -24.221 -38.147  1.00  0.00     0.122 C
BRANCH   3   4
HETATM    4  C6  UNL     1     -34.423 -25.197 -37.103  1.00  0.00     0.070 C
BRANCH   4   5
HETATM    5  C3  UNL     1     -35.432 -26.159 -37.526  1.00  0.00    -0.061 C
HETATM    6  C4  UNL     1     -35.522 -26.627 -38.747  1.00  0.00    -0.024 C
HETATM    7  C5  UNL     1     -36.593 -27.628 -39.065  1.00  0.00     0.036 C
BRANCH   5   8
HETATM    8  C2  UNL     1     -36.380 -26.630 -36.516  1.00  0.00    -0.004 C
HETATM    9  C1  UNL     1     -36.358 -26.153 -35.290  1.00  0.00     0.012 C
ENDBRANCH   5   8
ENDBRANCH   4   5
ENDBRANCH   3   4
BRANCH   3  10
HETATM   10  O1  UNL     1     -32.626 -24.496 -38.442  1.00  0.00    -0.395 OA
ATOM     11  H1  UNL     1     -32.456 -24.232 -39.339  1.00  0.00     0.210 HD
ENDBRANCH   3  10
ENDBRANCH   2   3
ENDBRANCH   1   2
BRANCH   1  12
HETATM   12  C10 UNL     1     -33.757 -22.046 -35.221  1.00  0.00     0.175 C
BRANCH  12  13
HETATM   13  O2  UNL     1     -33.652 -20.747 -35.660  1.00  0.00    -0.351 OA
BRANCH  13  14
HETATM   14  C11 UNL     1     -32.870 -19.685 -35.368  1.00  0.00     0.075 A
HETATM   15  C12 UNL     1     -32.697 -19.107 -34.136  1.00  0.00     0.044 A
HETATM   16  C13 UNL     1     -31.873 -18.006 -33.904  1.00  0.00    -0.059 A
HETATM   17  C14 UNL     1     -31.721 -17.418 -32.545  1.00  0.00     0.048 C
HETATM   18  C15 UNL     1     -31.207 -17.488 -34.992  1.00  0.00     0.007 A
HETATM   19  C16 UNL     1     -31.370 -18.055 -36.233  1.00  0.00     0.010 A
HETATM   20  C17 UNL     1     -32.178 -19.136 -36.463  1.00  0.00    -0.029 A
HETATM   21  C18 UNL     1     -32.320 -19.714 -37.836  1.00  0.00     0.051 C
ENDBRANCH  13  14
ENDBRANCH  12  13
ENDBRANCH   1  12
TORSDOF 9
ENDMDL