MODEL 2
REMARK VINA RESULT: -5.855846700      1.175      1.763
REMARK  9 active torsions:
REMARK  status: ('A' for Active; 'I' for Inactive)
REMARK    1  A    between atoms: C2_2  and  C3_3
REMARK    2  A    between atoms: C3_3  and  C4_4
REMARK    3  A    between atoms: C6_6  and  C7_7
REMARK    4  A    between atoms: C7_7  and  O1_8
REMARK    5  A    between atoms: C7_7  and  C8_10
REMARK    6  A    between atoms: C11_13  and  O2_14
REMARK    7  A    between atoms: O2_14  and  C12_15
REMARK    8  A    between atoms: C14_17  and  C15_18
REMARK    9  A    between atoms: C16_19  and  C17_20
ROOT
HETATM    1  C4  UNL     1     -30.973 -18.421 -35.008  1.00  0.00    -0.041 A
HETATM    2  C5  UNL     1     -31.622 -19.642 -34.484  1.00  0.00     0.022 A
HETATM    3  C6  UNL     1     -32.415 -20.385 -35.388  1.00  0.00     0.000 A
HETATM    4  C10 UNL     1     -32.521 -19.946 -36.668  1.00  0.00     0.052 A
HETATM    5  C11 UNL     1     -31.890 -18.787 -37.156  1.00  0.00     0.080 A
HETATM    6  C14 UNL     1     -31.146 -18.076 -36.263  1.00  0.00     0.004 A
ENDROOT
BRANCH   3   7
HETATM    7  C7  UNL     1     -33.124 -21.425 -34.869  1.00  0.00     0.075 C
BRANCH   7   8
HETATM    8  O1  UNL     1     -32.875 -21.834 -33.544  1.00  0.00    -0.360 OA
ATOM      9  H1  UNL     1     -33.201 -21.304 -32.826  1.00  0.00     0.217 HD
ENDBRANCH   7   8
BRANCH   7  10
HETATM   10  C8  UNL     1     -34.206 -22.363 -35.306  1.00  0.00     0.027 C
HETATM   11  C9  UNL     1     -34.369 -23.052 -36.336  1.00  0.00     0.014 C
ENDBRANCH   7  10
ENDBRANCH   3   7
BRANCH   1  12
HETATM   12  C3  UNL     1     -30.004 -17.841 -34.065  1.00  0.00     0.066 C
BRANCH  12  13
HETATM   13  C2  UNL     1     -30.590 -17.288 -32.837  1.00  0.00    -0.032 C
HETATM   14  C1  UNL     1     -31.598 -16.578 -32.541  1.00  0.00     0.007 C
ENDBRANCH  12  13
ENDBRANCH   1  12
BRANCH   5  15
HETATM   15  O2  UNL     1     -32.037 -18.405 -38.508  1.00  0.00    -0.351 OA
BRANCH  15  16
HETATM   16  C12 UNL     1     -32.887 -19.306 -39.262  1.00  0.00     0.171 C
HETATM   17  C13 UNL     1     -33.621 -18.455 -40.329  1.00  0.00     0.034 C
ENDBRANCH  15  16
ENDBRANCH   5  15
BRANCH   6  18
HETATM   18  C15 UNL     1     -30.618 -16.762 -36.810  1.00  0.00     0.011 C
HETATM   19  C16 UNL     1     -30.662 -15.534 -36.539  1.00  0.00    -0.026 C
BRANCH  19  20
HETATM   20  C17 UNL     1     -29.915 -14.608 -37.516  1.00  0.00     0.022 C
HETATM   21  C18 UNL     1     -29.232 -15.411 -38.591  1.00  0.00     0.009 C
ENDBRANCH  19  20
ENDBRANCH   6  18
TORSDOF 9
ENDMDL