MODEL 2
REMARK VINA RESULT: -6.074349944      1.370      2.176
REMARK  9 active torsions:
REMARK  status: ('A' for Active; 'I' for Inactive)
REMARK    1  A    between atoms: C2_2  and  C3_3
REMARK    2  A    between atoms: C3_3  and  C4_4
REMARK    3  A    between atoms: C4_4  and  C5_5
REMARK    4  A    between atoms: C4_4  and  C8_8
REMARK    5  A    between atoms: C5_5  and  C6_6
REMARK    6  A    between atoms: C8_8  and  C9_10
REMARK    7  A    between atoms: C9_10  and  C10_11
REMARK    8  A    between atoms: C10_11  and  C11_12
REMARK    9  A    between atoms: C14_15  and  C15_16
ROOT
HETATM    1  C9  UNL     1     -32.721 -18.825 -33.584  1.00  0.00     0.083 C
ENDROOT
BRANCH   1   2
HETATM    2  C8  UNL     1     -32.472 -17.447 -34.021  1.00  0.00     0.132 C
HETATM    3  O1  UNL     1     -33.410 -16.821 -34.590  1.00  0.00    -0.298 OA
BRANCH   2   4
HETATM    4  C4  UNL     1     -31.237 -16.646 -33.887  1.00  0.00     0.062 C
BRANCH   4   5
HETATM    5  C3  UNL     1     -30.400 -16.766 -35.170  1.00  0.00     0.038 C
BRANCH   5   6
HETATM    6  C2  UNL     1     -30.555 -15.626 -36.084  1.00  0.00    -0.036 C
HETATM    7  C1  UNL     1     -30.146 -15.744 -37.344  1.00  0.00     0.007 C
ENDBRANCH   5   6
ENDBRANCH   4   5
BRANCH   4   8
HETATM    8  C5  UNL     1     -30.325 -17.051 -32.760  1.00  0.00     0.038 C
BRANCH   8   9
HETATM    9  C6  UNL     1     -29.112 -17.761 -33.238  1.00  0.00    -0.036 C
HETATM   10  C7  UNL     1     -27.994 -17.744 -32.542  1.00  0.00     0.007 C
ENDBRANCH   8   9
ENDBRANCH   4   8
ENDBRANCH   2   4
ENDBRANCH   1   2
BRANCH   1  11
HETATM   11  C10 UNL     1     -31.908 -19.857 -34.260  1.00  0.00     0.046 C
BRANCH  11  12
HETATM   12  C11 UNL     1     -32.400 -20.178 -35.630  1.00  0.00    -0.052 A
HETATM   13  C12 UNL     1     -32.030 -19.406 -36.701  1.00  0.00     0.008 A
HETATM   14  C13 UNL     1     -32.455 -19.641 -37.991  1.00  0.00     0.015 A
HETATM   15  C14 UNL     1     -33.303 -20.725 -38.200  1.00  0.00     0.002 A
HETATM   16  C16 UNL     1     -33.668 -21.496 -37.116  1.00  0.00     0.021 A
HETATM   17  C17 UNL     1     -33.243 -21.260 -35.824  1.00  0.00    -0.055 A
HETATM   18  C18 UNL     1     -33.647 -22.104 -34.679  1.00  0.00     0.049 C
BRANCH  15  19
HETATM   19  C15 UNL     1     -33.790 -21.030 -39.532  1.00  0.00     0.269 C
HETATM   20  O2  UNL     1     -34.729 -20.387 -40.058  1.00  0.00    -0.301 OA
ENDBRANCH  15  19
ENDBRANCH  11  12
ENDBRANCH   1  11
TORSDOF 9
ENDMDL