MODEL 3
REMARK VINA RESULT: -6.094932158      2.132      8.374
REMARK  9 active torsions:
REMARK  status: ('A' for Active; 'I' for Inactive)
REMARK    1  A    between atoms: O1_2  and  C2_3
REMARK    2  A    between atoms: C9_10  and  C10_11
REMARK    3  A    between atoms: C10_11  and  C11_12
REMARK    4  A    between atoms: C11_12  and  C12_13
REMARK    5  A    between atoms: C12_13  and  C13_14
REMARK    6  A    between atoms: C13_14  and  C14_15
REMARK    7  A    between atoms: C14_15  and  C15_16
REMARK    8  A    between atoms: C15_16  and  C16_17
REMARK    9  A    between atoms: C16_17  and  O2_20
ROOT
HETATM    1  C10 UNL     1     -34.400 -22.914 -35.763  1.00  0.00     0.041 C
ENDROOT
BRANCH   1   2
HETATM    2  C9  UNL     1     -34.859 -24.099 -36.540  1.00  0.00    -0.024 A
HETATM    3  C2  UNL     1     -35.487 -25.174 -35.966  1.00  0.00     0.075 A
HETATM    4  C3  UNL     1     -35.879 -26.222 -36.761  1.00  0.00     0.044 A
HETATM    5  C4  UNL     1     -35.672 -26.254 -38.131  1.00  0.00    -0.053 A
HETATM    6  C5  UNL     1     -36.101 -27.395 -38.977  1.00  0.00     0.049 C
HETATM    7  C6  UNL     1     -35.041 -25.164 -38.679  1.00  0.00    -0.055 A
HETATM    8  C7  UNL     1     -34.799 -25.162 -40.155  1.00  0.00     0.049 C
HETATM    9  C8  UNL     1     -34.643 -24.109 -37.897  1.00  0.00     0.017 A
BRANCH   3  10
HETATM   10  O1  UNL     1     -35.721 -25.197 -34.603  1.00  0.00    -0.355 OA
HETATM   11  C1  UNL     1     -35.906 -26.436 -33.929  1.00  0.00     0.210 C
ENDBRANCH   3  10
ENDBRANCH   1   2
BRANCH   1  12
HETATM   12  C11 UNL     1     -33.769 -21.896 -36.664  1.00  0.00     0.005 C
BRANCH  12  13
HETATM   13  C12 UNL     1     -32.926 -20.899 -35.930  1.00  0.00     0.000 C
BRANCH  13  14
HETATM   14  C13 UNL     1     -33.129 -20.924 -34.422  1.00  0.00     0.000 C
BRANCH  14  15
HETATM   15  C14 UNL     1     -32.328 -19.914 -33.689  1.00  0.00     0.003 C
BRANCH  15  16
HETATM   16  C15 UNL     1     -32.954 -18.641 -33.300  1.00  0.00     0.037 C
BRANCH  16  17
HETATM   17  C16 UNL     1     -32.372 -17.363 -33.747  1.00  0.00     0.051 C
HETATM   18  C17 UNL     1     -31.289 -17.729 -34.794  1.00  0.00     0.045 C
HETATM   19  C18 UNL     1     -31.673 -16.499 -32.758  1.00  0.00     0.045 C
BRANCH  17  20
HETATM   20  O2  UNL     1     -33.287 -16.556 -34.438  1.00  0.00    -0.391 OA
ATOM     21  H2  UNL     1     -32.975 -15.669 -34.569  1.00  0.00     0.210 HD
ENDBRANCH  17  20
ENDBRANCH  16  17
ENDBRANCH  15  16
ENDBRANCH  14  15
ENDBRANCH  13  14
ENDBRANCH  12  13
ENDBRANCH   1  12
TORSDOF 9
ENDMDL