MODEL 5
REMARK VINA RESULT: -6.678417153      1.523      1.981
REMARK  2 active torsions:
REMARK  status: ('A' for Active; 'I' for Inactive)
REMARK    1  A    between atoms: O1_1  and  C1_3
REMARK    2  A    between atoms: C1_3  and  C2_4
ROOT
HETATM    1  C2  UNL     1     -23.321 -21.416 -23.675  1.00  0.00     0.294 C
HETATM    2  N1  UNL     1     -22.402 -21.860 -22.672  1.00  0.00     0.009 N
ATOM      3  H11 UNL     1     -22.357 -21.232 -21.870  1.00  0.00     0.285 HD
ATOM      4  H12 UNL     1     -21.428 -21.777 -22.962  1.00  0.00     0.285 HD
HETATM    5  C3  UNL     1     -22.770 -23.215 -22.307  1.00  0.00     0.478 C
HETATM    6  F1  UNL     1     -22.039 -24.113 -23.057  1.00  0.00    -0.169 F
HETATM    7  F2  UNL     1     -22.643 -23.445 -20.953  1.00  0.00    -0.169 F
HETATM    8  C4  UNL     1     -24.253 -23.267 -22.672  1.00  0.00     0.401 C
HETATM    9  F3  UNL     1     -24.893 -22.374 -21.858  1.00  0.00    -0.190 F
HETATM   10  F4  UNL     1     -24.761 -24.507 -22.697  1.00  0.00    -0.190 F
HETATM   11  C5  UNL     1     -24.160 -22.620 -24.060  1.00  0.00     0.346 C
HETATM   12  F5  UNL     1     -23.476 -23.427 -24.932  1.00  0.00    -0.197 F
HETATM   13  F6  UNL     1     -25.384 -22.266 -24.542  1.00  0.00    -0.197 F
ENDROOT
BRANCH   1  14
HETATM   14  C1  UNL     1     -22.639 -20.798 -24.867  1.00  0.00     0.203 C
BRANCH  14  15
HETATM   15  O1  UNL     1     -21.891 -19.705 -24.444  1.00  0.00    -0.399 OA
ATOM     16  H1  UNL     1     -22.127 -18.947 -24.966  1.00  0.00     0.209 HD
ENDBRANCH  14  15
ENDBRANCH   1  14
TORSDOF 2
ENDMDL