MODEL 3
REMARK VINA RESULT: -6.633906369      0.062      2.833
REMARK  2 active torsions:
REMARK  status: ('A' for Active; 'I' for Inactive)
REMARK    1  A    between atoms: N1_1  and  C1_5
REMARK    2  A    between atoms: C1_5  and  C2_7
ROOT
HETATM    1  C2  UNL     1     -23.235 -22.173 -23.780  1.00  0.00     0.086 A
HETATM    2  C3  UNL     1     -24.404 -22.912 -23.686  1.00  0.00     0.172 A
HETATM    3  F2  UNL     1     -25.443 -22.715 -24.518  1.00  0.00    -0.202 F
HETATM    4  C4  UNL     1     -24.510 -23.887 -22.702  1.00  0.00     0.197 A
HETATM    5  F3  UNL     1     -25.622 -24.647 -22.550  1.00  0.00    -0.199 F
HETATM    6  C5  UNL     1     -23.469 -24.119 -21.830  1.00  0.00     0.199 A
HETATM    7  F4  UNL     1     -23.557 -25.065 -20.867  1.00  0.00    -0.199 F
HETATM    8  C6  UNL     1     -22.313 -23.375 -21.939  1.00  0.00     0.197 A
HETATM    9  F5  UNL     1     -21.250 -23.551 -21.115  1.00  0.00    -0.199 F
HETATM   10  C7  UNL     1     -22.192 -22.396 -22.919  1.00  0.00     0.172 A
HETATM   11  F6  UNL     1     -21.073 -21.648 -23.053  1.00  0.00    -0.202 F
ENDROOT
BRANCH   1  12
HETATM   12  C1  UNL     1     -23.108 -21.137 -24.817  1.00  0.00     0.405 C
HETATM   13  F1  UNL     1     -22.890 -19.912 -24.219  1.00  0.00    -0.214 F
BRANCH  12  14
HETATM   14  N1  UNL     1     -22.054 -21.357 -25.750  1.00  0.00    -0.044 N
ATOM     15  H13 UNL     1     -21.155 -21.005 -25.422  1.00  0.00     0.278 HD
ATOM     16  H12 UNL     1     -21.793 -22.340 -25.830  1.00  0.00     0.278 HD
ATOM     17  H11 UNL     1     -22.339 -20.948 -26.640  1.00  0.00     0.278 HD
ENDBRANCH  12  14
ENDBRANCH   1  12
TORSDOF 2
ENDMDL