MODEL 2
REMARK VINA RESULT: -6.698037361      1.479      1.853
REMARK  1 active torsions:
REMARK  status: ('A' for Active; 'I' for Inactive)
REMARK    1  A    between atoms: N1_1  and  C1_5
ROOT
HETATM    1  C1  UNL     1     -22.291 -21.821 -22.344  1.00  0.00     0.357 C
HETATM    2  N2  UNL     1     -21.984 -23.008 -21.666  1.00  0.00    -0.385 N
ATOM      3  H2  UNL     1     -21.064 -23.146 -21.247  1.00  0.00     0.155 HD
HETATM    4  C2  UNL     1     -22.976 -24.009 -21.576  1.00  0.00     0.202 C
HETATM    5  C3  UNL     1     -23.900 -24.140 -22.722  1.00  0.00     0.329 C
HETATM    6  F1  UNL     1     -24.959 -24.960 -22.339  1.00  0.00    -0.198 F
HETATM    7  F2  UNL     1     -23.295 -24.695 -23.812  1.00  0.00    -0.198 F
HETATM    8  C4  UNL     1     -24.502 -22.784 -23.023  1.00  0.00     0.377 C
HETATM    9  F3  UNL     1     -25.126 -22.357 -21.866  1.00  0.00    -0.192 F
HETATM   10  F4  UNL     1     -25.369 -22.864 -24.078  1.00  0.00    -0.192 F
HETATM   11  C5  UNL     1     -23.343 -21.884 -23.390  1.00  0.00     0.358 C
HETATM   12  F5  UNL     1     -23.742 -20.613 -23.712  1.00  0.00    -0.195 F
HETATM   13  F6  UNL     1     -22.766 -22.444 -24.535  1.00  0.00    -0.195 F
ENDROOT
BRANCH   1  14
HETATM   14  N1  UNL     1     -21.065 -21.330 -22.995  1.00  0.00    -0.052 N
ATOM     15  H13 UNL     1     -20.252 -21.910 -22.790  1.00  0.00     0.277 HD
ATOM     16  H12 UNL     1     -21.078 -21.462 -24.006  1.00  0.00     0.277 HD
ATOM     17  H11 UNL     1     -20.929 -20.355 -22.727  1.00  0.00     0.277 HD
ENDBRANCH   1  14
TORSDOF 1
ENDMDL