MODEL 2
REMARK VINA RESULT: -7.433569020      1.125      2.831
REMARK  2 active torsions:
REMARK  status: ('A' for Active; 'I' for Inactive)
REMARK    1  A    between atoms: O1_1  and  N1_3
REMARK    2  A    between atoms: N1_3  and  N2_4
ROOT
HETATM    1  N2  UNL     1     -22.917 -21.048 -22.893  1.00  0.00    -0.131 NA
HETATM    2  C1  UNL     1     -22.437 -21.625 -24.115  1.00  0.00     0.204 C
HETATM    3  C2  UNL     1     -22.890 -23.072 -24.008  1.00  0.00     0.328 C
HETATM    4  F1  UNL     1     -22.800 -23.757 -25.170  1.00  0.00    -0.198 F
HETATM    5  F2  UNL     1     -22.248 -23.658 -22.949  1.00  0.00    -0.198 F
HETATM    6  C3  UNL     1     -24.345 -22.816 -23.584  1.00  0.00     0.389 C
HETATM    7  F3  UNL     1     -25.047 -22.172 -24.564  1.00  0.00    -0.191 F
HETATM    8  F4  UNL     1     -24.971 -23.943 -23.173  1.00  0.00    -0.191 F
HETATM    9  C4  UNL     1     -24.063 -21.831 -22.463  1.00  0.00     0.389 C
HETATM   10  F5  UNL     1     -25.088 -20.966 -22.238  1.00  0.00    -0.179 F
HETATM   11  F6  UNL     1     -23.767 -22.568 -21.323  1.00  0.00    -0.179 F
ENDROOT
BRANCH   1  12
HETATM   12  N1  UNL     1     -21.907 -21.007 -21.932  1.00  0.00    -0.003 NA
BRANCH  12  13
HETATM   13  O1  UNL     1     -20.716 -20.613 -22.445  1.00  0.00    -0.281 OA
ATOM     14  H1  UNL     1     -20.084 -20.392 -21.772  1.00  0.00     0.240 HD
ENDBRANCH  12  13
ENDBRANCH   1  12
TORSDOF 2
ENDMDL