MODEL 2
REMARK VINA RESULT: -7.686916995      1.092      3.163
REMARK  2 active torsions:
REMARK  status: ('A' for Active; 'I' for Inactive)
REMARK    1  A    between atoms: O1_1  and  N1_3
REMARK    2  A    between atoms: N1_3  and  C1_4
ROOT
HETATM    1  C1  UNL     1     -21.770 -22.854 -22.804  1.00  0.00     0.225 C
HETATM    2  C2  UNL     1     -22.718 -22.795 -21.638  1.00  0.00     0.276 C
HETATM    3  F1  UNL     1     -22.865 -24.025 -21.015  1.00  0.00    -0.241 F
HETATM    4  C3  UNL     1     -24.075 -22.419 -22.190  1.00  0.00     0.346 C
HETATM    5  F2  UNL     1     -24.596 -21.341 -21.474  1.00  0.00    -0.196 F
HETATM    6  F3  UNL     1     -24.992 -23.439 -22.075  1.00  0.00    -0.196 F
HETATM    7  C4  UNL     1     -23.895 -22.029 -23.617  1.00  0.00     0.376 C
HETATM    8  F4  UNL     1     -23.995 -20.648 -23.744  1.00  0.00    -0.192 F
HETATM    9  F5  UNL     1     -24.836 -22.591 -24.462  1.00  0.00    -0.192 F
HETATM   10  C5  UNL     1     -22.524 -22.504 -24.037  1.00  0.00     0.336 C
HETATM   11  F6  UNL     1     -22.635 -23.645 -24.828  1.00  0.00    -0.197 F
HETATM   12  F7  UNL     1     -21.956 -21.532 -24.800  1.00  0.00    -0.197 F
ENDROOT
BRANCH   1  13
HETATM   13  N1  UNL     1     -20.635 -22.003 -22.546  1.00  0.00    -0.089 NA
BRANCH  13  14
HETATM   14  O1  UNL     1     -20.953 -20.762 -22.193  1.00  0.00    -0.295 OA
ATOM     15  H1  UNL     1     -21.811 -20.480 -22.487  1.00  0.00     0.238 HD
ENDBRANCH  13  14
ENDBRANCH   1  13
TORSDOF 2
ENDMDL