MODEL 5
REMARK VINA RESULT: -6.456067989      1.853      3.345
REMARK  2 active torsions:
REMARK  status: ('A' for Active; 'I' for Inactive)
REMARK    1  A    between atoms: N1_1  and  C1_5
REMARK    2  A    between atoms: C1_5  and  C2_6
ROOT
HETATM    1  C2  UNL     1     -22.166 -23.194 -22.652  1.00  0.00     0.096 C
HETATM    2  C3  UNL     1     -22.505 -21.741 -22.508  1.00  0.00     0.098 C
HETATM    3  C4  UNL     1     -23.801 -21.526 -23.282  1.00  0.00     0.314 C
HETATM    4  F1  UNL     1     -23.634 -20.586 -24.288  1.00  0.00    -0.199 F
HETATM    5  F2  UNL     1     -24.851 -21.205 -22.467  1.00  0.00    -0.199 F
HETATM    6  C5  UNL     1     -24.106 -22.872 -23.910  1.00  0.00     0.372 C
HETATM    7  F3  UNL     1     -23.345 -23.049 -25.051  1.00  0.00    -0.193 F
HETATM    8  F4  UNL     1     -25.434 -23.077 -24.115  1.00  0.00    -0.193 F
HETATM    9  C6  UNL     1     -23.532 -23.811 -22.840  1.00  0.00     0.319 C
HETATM   10  F5  UNL     1     -23.453 -25.095 -23.277  1.00  0.00    -0.199 F
HETATM   11  F6  UNL     1     -24.278 -23.635 -21.712  1.00  0.00    -0.199 F
ENDROOT
BRANCH   1  12
HETATM   12  C1  UNL     1     -21.443 -23.762 -21.462  1.00  0.00     0.240 C
BRANCH  12  13
HETATM   13  N1  UNL     1     -20.022 -23.717 -21.575  1.00  0.00    -0.079 N
ATOM     14  H13 UNL     1     -19.700 -24.344 -22.312  1.00  0.00     0.274 HD
ATOM     15  H12 UNL     1     -19.721 -22.824 -21.966  1.00  0.00     0.274 HD
ATOM     16  H11 UNL     1     -19.531 -23.909 -20.701  1.00  0.00     0.274 HD
ENDBRANCH  12  13
ENDBRANCH   1  12
TORSDOF 2
ENDMDL