MODEL 1
REMARK VINA RESULT: -6.600082370      0.000      0.000
REMARK  1 active torsions:
REMARK  status: ('A' for Active; 'I' for Inactive)
REMARK    1  A    between atoms: C1_2  and  C2_3
ROOT
HETATM    1  C2  UNL     1     -22.415 -23.937 -22.465  1.00  0.00     0.402 C
HETATM    2  F2  UNL     1     -21.169 -24.366 -22.031  1.00  0.00    -0.176 F
HETATM    3  N1  UNL     1     -22.747 -22.736 -21.725  1.00  0.00    -0.005 N
ATOM      4  H11 UNL     1     -22.551 -22.816 -20.726  1.00  0.00     0.284 HD
ATOM      5  H12 UNL     1     -23.752 -22.579 -21.649  1.00  0.00     0.284 HD
HETATM    6  C3  UNL     1     -22.045 -21.632 -22.354  1.00  0.00     0.327 C
HETATM    7  C4  UNL     1     -22.804 -21.388 -23.665  1.00  0.00     0.358 C
HETATM    8  F3  UNL     1     -24.014 -20.809 -23.266  1.00  0.00    -0.195 F
HETATM    9  F4  UNL     1     -22.133 -20.510 -24.480  1.00  0.00    -0.195 F
HETATM   10  C5  UNL     1     -23.089 -22.710 -24.311  1.00  0.00     0.426 C
HETATM   11  F5  UNL     1     -22.731 -22.574 -25.661  1.00  0.00    -0.169 F
HETATM   12  F6  UNL     1     -24.460 -22.958 -24.326  1.00  0.00    -0.169 F
HETATM   13  O1  UNL     1     -22.358 -23.758 -23.812  1.00  0.00    -0.254 OA
ENDROOT
BRANCH   1  14
HETATM   14  C1  UNL     1     -23.403 -25.004 -22.029  1.00  0.00     0.328 C
HETATM   15  F1  UNL     1     -23.554 -25.929 -23.049  1.00  0.00    -0.247 F
ENDBRANCH   1  14
TORSDOF 1
ENDMDL