MODEL 4
REMARK VINA RESULT: -6.041352058      1.931      3.342
REMARK  2 active torsions:
REMARK  status: ('A' for Active; 'I' for Inactive)
REMARK    1  A    between atoms: N1_1  and  N2_4
REMARK    2  A    between atoms: N2_4  and  C1_6
ROOT
HETATM    1  C1  UNL     1     -22.404 -23.009 -22.350  1.00  0.00     0.131 A
HETATM    2  C2  UNL     1     -22.545 -22.135 -23.388  1.00  0.00     0.189 A
HETATM    3  F1  UNL     1     -21.503 -21.330 -23.691  1.00  0.00    -0.200 F
HETATM    4  C3  UNL     1     -23.737 -22.095 -24.109  1.00  0.00     0.199 A
HETATM    5  F2  UNL     1     -23.853 -21.220 -25.123  1.00  0.00    -0.199 F
HETATM    6  C4  UNL     1     -24.767 -22.941 -23.770  1.00  0.00     0.199 A
HETATM    7  F3  UNL     1     -25.901 -22.876 -24.502  1.00  0.00    -0.199 F
HETATM    8  C5  UNL     1     -24.596 -23.816 -22.713  1.00  0.00     0.199 A
HETATM    9  F4  UNL     1     -25.598 -24.633 -22.391  1.00  0.00    -0.199 F
HETATM   10  C6  UNL     1     -23.421 -23.853 -22.005  1.00  0.00     0.189 A
HETATM   11  F5  UNL     1     -23.313 -24.740 -20.963  1.00  0.00    -0.200 F
ENDROOT
BRANCH   1  12
HETATM   12  N2  UNL     1     -21.202 -23.048 -21.611  1.00  0.00    -0.301 N
ATOM     13  H2  UNL     1     -20.968 -22.335 -20.921  1.00  0.00     0.186 HD
BRANCH  12  14
HETATM   14  N1  UNL     1     -20.350 -24.126 -21.884  1.00  0.00    -0.344 N
ATOM     15  H12 UNL     1     -19.538 -24.015 -22.491  1.00  0.00     0.176 HD
ATOM     16  H11 UNL     1     -20.595 -25.012 -21.442  1.00  0.00     0.176 HD
ENDBRANCH  12  14
ENDBRANCH   1  12
TORSDOF 2
ENDMDL