MODEL 1
REMARK VINA RESULT: -7.521111431      0.000      0.000
REMARK  2 active torsions:
REMARK  status: ('A' for Active; 'I' for Inactive)
REMARK    1  A    between atoms: O1_1  and  C1_3
REMARK    2  A    between atoms: C3_8  and  C4_10
ROOT
HETATM    1  C1  UNL     1     -21.667 -21.574 -23.022  1.00  0.00     0.340 C
HETATM    2  O2  UNL     1     -22.812 -20.833 -23.152  1.00  0.00    -0.286 OA
HETATM    3  C2  UNL     1     -23.869 -21.700 -23.408  1.00  0.00     0.404 C
HETATM    4  F1  UNL     1     -24.291 -21.423 -24.709  1.00  0.00    -0.171 F
HETATM    5  F2  UNL     1     -24.875 -21.350 -22.504  1.00  0.00    -0.171 F
HETATM    6  C3  UNL     1     -23.391 -23.091 -23.230  1.00  0.00     0.322 C
HETATM    7  F3  UNL     1     -22.946 -23.591 -24.439  1.00  0.00    -0.221 F
HETATM    8  C5  UNL     1     -22.148 -22.878 -22.376  1.00  0.00     0.341 C
HETATM    9  F6  UNL     1     -22.532 -22.635 -21.079  1.00  0.00    -0.197 F
HETATM   10  F7  UNL     1     -21.244 -23.883 -22.503  1.00  0.00    -0.197 F
ENDROOT
BRANCH   6  11
HETATM   11  C4  UNL     1     -24.357 -24.033 -22.596  1.00  0.00     0.408 C
HETATM   12  F4  UNL     1     -25.577 -23.882 -23.260  1.00  0.00    -0.210 F
HETATM   13  F5  UNL     1     -24.004 -25.336 -22.609  1.00  0.00    -0.210 F
ENDBRANCH   6  11
BRANCH   1  14
HETATM   14  O1  UNL     1     -20.738 -20.926 -22.224  1.00  0.00    -0.366 OA
ATOM     15  H1  UNL     1     -19.924 -20.784 -22.691  1.00  0.00     0.212 HD
ENDBRANCH   1  14
TORSDOF 2
ENDMDL