MODEL 4
REMARK VINA RESULT: -6.554210087      2.010      3.199
REMARK  2 active torsions:
REMARK  status: ('A' for Active; 'I' for Inactive)
REMARK    1  A    between atoms: N1_1  and  C1_5
REMARK    2  A    between atoms: C5_14  and  O1_15
ROOT
HETATM    1  C1  UNL     1     -24.003 -22.025 -23.231  1.00  0.00     0.296 C
HETATM    2  C2  UNL     1     -24.487 -23.443 -23.099  1.00  0.00     0.285 C
HETATM    3  F1  UNL     1     -25.013 -23.596 -21.836  1.00  0.00    -0.240 F
HETATM    4  C3  UNL     1     -23.206 -24.254 -23.145  1.00  0.00     0.346 C
HETATM    5  F2  UNL     1     -23.359 -25.536 -22.735  1.00  0.00    -0.196 F
HETATM    6  F3  UNL     1     -22.591 -24.175 -24.385  1.00  0.00    -0.196 F
HETATM    7  C4  UNL     1     -22.329 -23.430 -22.197  1.00  0.00     0.372 C
HETATM    8  F4  UNL     1     -22.752 -23.510 -20.902  1.00  0.00    -0.193 F
HETATM    9  F5  UNL     1     -21.016 -23.787 -22.265  1.00  0.00    -0.193 F
HETATM   10  C5  UNL     1     -22.565 -22.035 -22.794  1.00  0.00     0.306 C
HETATM   11  F6  UNL     1     -21.745 -21.859 -23.894  1.00  0.00    -0.202 F
ENDROOT
BRANCH   1  12
HETATM   12  N1  UNL     1     -24.198 -21.580 -24.578  1.00  0.00    -0.066 N
ATOM     13  H13 UNL     1     -23.722 -22.175 -25.255  1.00  0.00     0.275 HD
ATOM     14  H12 UNL     1     -25.155 -21.731 -24.900  1.00  0.00     0.275 HD
ATOM     15  H11 UNL     1     -23.916 -20.603 -24.656  1.00  0.00     0.275 HD
ENDBRANCH   1  12
BRANCH  10  16
HETATM   16  O1  UNL     1     -22.303 -21.108 -21.790  1.00  0.00    -0.355 OA
ATOM     17  H1  UNL     1     -21.569 -21.359 -21.242  1.00  0.00     0.213 HD
ENDBRANCH  10  16
TORSDOF 2
ENDMDL