MODEL 4
REMARK VINA RESULT: -6.814787389      2.824      5.159
REMARK  4 active torsions:
REMARK  status: ('A' for Active; 'I' for Inactive)
REMARK    1  A    between atoms: C2_2  and  C3_4
REMARK    2  A    between atoms: C3_4  and  O2_5
REMARK    3  A    between atoms: N1_7  and  C4_9
REMARK    4  A    between atoms: C16_22  and  C17_23
ROOT
HETATM    1  C4  UNL     1      22.447  13.401  21.796  1.00  0.00     0.119 C
HETATM    2  C5  UNL     1      22.041  12.056  21.285  1.00  0.00     0.058 C
HETATM    3  C6  UNL     1      23.317  11.386  20.786  1.00  0.00     0.028 C
HETATM    4  C7  UNL     1      23.319   9.985  21.413  1.00  0.00     0.038 C
HETATM    5  C8  UNL     1      23.201  11.192  19.304  1.00  0.00     0.031 C
HETATM    6  C9  UNL     1      23.644  12.430  18.601  1.00  0.00     0.013 C
HETATM    7  C10 UNL     1      25.077  12.765  18.947  1.00  0.00    -0.023 C
HETATM    8  C11 UNL     1      25.266  14.242  18.579  1.00  0.00     0.017 C
HETATM    9  C12 UNL     1      25.959  11.995  17.961  1.00  0.00     0.017 C
HETATM   10  C13 UNL     1      25.426  12.487  20.367  1.00  0.00     0.029 C
HETATM   11  C14 UNL     1      26.270  13.632  20.882  1.00  0.00     0.039 C
HETATM   12  C15 UNL     1      26.318  11.257  20.392  1.00  0.00     0.039 C
HETATM   13  N2  UNL     1      24.340  12.215  21.230  1.00  0.00    -0.380 N
HETATM   14  C16 UNL     1      23.915  13.202  22.118  1.00  0.00     0.205 C
ENDROOT
BRANCH   1  15
HETATM   15  N1  UNL     1      21.676  13.774  22.941  1.00  0.00    -0.361 N
HETATM   16  C3  UNL     1      21.387  14.981  23.267  1.00  0.00     0.183 C
ATOM     17  H1  UNL     1      21.329  13.025  23.542  1.00  0.00     0.162 HD
BRANCH  16  18
HETATM   18  C2  UNL     1      20.600  15.293  24.441  1.00  0.00     0.195 C
HETATM   19  C1  UNL     1      21.139  15.054  25.792  1.00  0.00     0.101 C
HETATM   20  O1  UNL     1      19.436  15.773  24.358  1.00  0.00    -0.289 OA
ENDBRANCH  16  18
BRANCH  16  21
HETATM   21  O2  UNL     1      21.846  16.009  22.469  1.00  0.00    -0.344 OA
ATOM     22  H2  UNL     1      21.312  16.307  21.741  1.00  0.00     0.219 HD
ENDBRANCH  16  21
ENDBRANCH   1  15
BRANCH  14  23
HETATM   23  C17 UNL     1      24.114  12.754  23.520  1.00  0.00     0.198 C
HETATM   24  O3  UNL     1      25.056  13.225  24.192  1.00  0.00    -0.646 OA
HETATM   25  O4  UNL     1      23.290  11.821  24.135  1.00  0.00    -0.646 OA
ENDBRANCH  14  23
TORSDOF 4
ENDMDL