MODEL 2
REMARK VINA RESULT: -7.114067063      2.858      5.200
REMARK  3 active torsions:
REMARK  status: ('A' for Active; 'I' for Inactive)
REMARK    1  A    between atoms: C2_2  and  C3_3
REMARK    2  A    between atoms: C3_3  and  O1_4
REMARK    3  A    between atoms: C13_15  and  C14_16
ROOT
HETATM    1  C3  UNL     1      23.670  10.845  20.559  1.00  0.00     0.066 C
HETATM    2  C4  UNL     1      22.169  10.897  20.905  1.00  0.00     0.039 C
HETATM    3  C5  UNL     1      22.000  12.211  21.547  1.00  0.00     0.009 C
HETATM    4  C6  UNL     1      23.404  12.869  21.608  1.00  0.00     0.002 C
HETATM    5  C7  UNL     1      23.268  14.238  21.968  1.00  0.00    -0.005 C
HETATM    6  C8  UNL     1      23.695  14.437  23.436  1.00  0.00     0.007 C
HETATM    7  C9  UNL     1      25.095  14.020  23.749  1.00  0.00     0.027 C
HETATM    8  C10 UNL     1      26.187  14.624  23.012  1.00  0.00     0.097 C
HETATM    9  C11 UNL     1      26.908  13.846  21.939  1.00  0.00     0.048 C
HETATM   10  C12 UNL     1      26.318  12.603  21.462  1.00  0.00     0.028 C
HETATM   11  C13 UNL     1      25.495  12.579  20.220  1.00  0.00     0.099 C
HETATM   12  C15 UNL     1      24.023  12.294  20.391  1.00  0.00     0.004 C
HETATM   13  C16 UNL     1      23.225  12.785  19.186  1.00  0.00     0.020 C
HETATM   14  C17 UNL     1      26.888  15.118  21.149  1.00  0.00     0.070 C
HETATM   15  N1  UNL     1      25.940  15.609  22.062  1.00  0.00    -0.368 N
HETATM   16  C18 UNL     1      24.790  16.257  21.810  1.00  0.00     0.064 C
HETATM   17  C19 UNL     1      23.683  15.407  21.177  1.00  0.00     0.049 C
ENDROOT
BRANCH   1  18
HETATM   18  C2  UNL     1      23.760   9.917  19.425  1.00  0.00     0.034 C
HETATM   19  C1  UNL     1      22.427   9.136  19.226  1.00  0.00     0.008 C
ENDBRANCH   1  18
BRANCH   1  20
HETATM   20  O1  UNL     1      24.242  10.248  21.690  1.00  0.00    -0.389 OA
ATOM     21  H1  UNL     1      23.561   9.819  22.195  1.00  0.00     0.210 HD
ENDBRANCH   1  20
BRANCH  11  22
HETATM   22  C14 UNL     1      26.156  11.771  19.153  1.00  0.00     0.177 C
HETATM   23  O2  UNL     1      26.944  10.834  19.461  1.00  0.00    -0.648 OA
HETATM   24  O3  UNL     1      26.000  11.936  17.793  1.00  0.00    -0.648 OA
ENDBRANCH  11  22
TORSDOF 3
ENDMDL