MODEL 3
REMARK VINA RESULT: -7.722034155      3.018      6.986
REMARK  3 active torsions:
REMARK  status: ('A' for Active; 'I' for Inactive)
REMARK    1  A    between atoms: C2_2  and  C3_3
REMARK       I    between atoms: C3_3  and  N1_5
REMARK    2  A    between atoms: N1_5  and  C4_7
REMARK    3  A    between atoms: C4_7  and  C5_8
ROOT
HETATM    1  C5  UNL     1      21.156  10.388  24.990  1.00  0.00     0.096 C
HETATM    2  C6  UNL     1      21.881  11.664  24.807  1.00  0.00     0.031 C
HETATM    3  C7  UNL     1      20.984  12.865  24.981  1.00  0.00    -0.006 C
HETATM    4  C8  UNL     1      21.676  14.157  24.732  1.00  0.00     0.005 C
HETATM    5  C9  UNL     1      20.670  15.234  25.156  1.00  0.00     0.000 C
HETATM    6  C10 UNL     1      19.524  15.208  24.219  1.00  0.00     0.001 C
HETATM    7  C11 UNL     1      18.984  13.894  23.852  1.00  0.00     0.008 C
HETATM    8  C12 UNL     1      19.846  12.709  24.025  1.00  0.00     0.026 C
HETATM    9  C13 UNL     1      19.055  11.516  24.539  1.00  0.00     0.189 C
HETATM   10  C14 UNL     1      18.579  11.877  25.879  1.00  0.00     0.084 C
HETATM   11  N2  UNL     1      18.187  12.176  26.940  1.00  0.00    -0.195 NA
HETATM   12  N3  UNL     1      19.811  10.320  24.636  1.00  0.00    -0.400 N
ATOM     13  H3  UNL     1      19.374   9.419  24.448  1.00  0.00     0.155 HD
ENDROOT
BRANCH   1  14
HETATM   14  C4  UNL     1      21.923   9.298  24.240  1.00  0.00     0.147 C
BRANCH  14  15
HETATM   15  N1  UNL     1      22.647   9.844  23.126  1.00  0.00    -0.358 N
HETATM   16  C3  UNL     1      22.017   9.994  21.871  1.00  0.00     0.226 C
HETATM   17  O1  UNL     1      20.802   9.639  21.743  1.00  0.00    -0.273 OA
ATOM     18  H1  UNL     1      23.620  10.126  23.242  1.00  0.00     0.162 HD
BRANCH  16  19
HETATM   19  C2  UNL     1      22.723  10.556  20.685  1.00  0.00     0.041 C
HETATM   20  C1  UNL     1      22.227   9.853  19.449  1.00  0.00     0.025 C
HETATM   21  C15 UNL     1      22.409  12.035  20.562  1.00  0.00     0.045 C
HETATM   22  C16 UNL     1      23.368  12.709  19.624  1.00  0.00     0.168 C
HETATM   23  O2  UNL     1      24.680  12.562  20.078  1.00  0.00    -0.391 OA
HETATM   24  C17 UNL     1      25.019  11.227  19.922  1.00  0.00     0.168 C
HETATM   25  C18 UNL     1      24.202  10.417  20.899  1.00  0.00     0.045 C
ENDBRANCH  16  19
ENDBRANCH  14  15
ENDBRANCH   1  14
TORSDOF 3
ENDMDL