MODEL 4
REMARK VINA RESULT: -6.829403687      3.807      4.564
REMARK  3 active torsions:
REMARK  status: ('A' for Active; 'I' for Inactive)
REMARK    1  A    between atoms: C3_4  and  N2_5
REMARK       I    between atoms: N2_5  and  C4_7
REMARK       I    between atoms: C4_7  and  N3_9
REMARK    2  A    between atoms: C8_13  and  C9_14
REMARK       I    between atoms: C9_14  and  N4_16
REMARK    3  A    between atoms: N4_16  and  C10_18
ROOT
HETATM    1  N2  UNL     1      27.451  14.900  22.415  1.00  0.00    -0.306 N
ATOM      2  H2  UNL     1      28.247  14.500  21.919  1.00  0.00     0.171 HD
HETATM    3  C4  UNL     1      26.336  15.240  21.624  1.00  0.00     0.323 C
HETATM    4  O1  UNL     1      25.325  15.742  22.214  1.00  0.00    -0.247 OA
HETATM    5  N3  UNL     1      26.302  15.043  20.210  1.00  0.00    -0.320 N
HETATM    6  C5  UNL     1      27.362  14.493  19.429  1.00  0.00     0.129 C
HETATM    7  C6  UNL     1      27.120  15.006  18.045  1.00  0.00     0.022 C
HETATM    8  C7  UNL     1      25.885  15.870  18.107  1.00  0.00     0.037 C
HETATM    9  C8  UNL     1      25.206  15.368  19.360  1.00  0.00     0.181 C
ENDROOT
BRANCH   9  10
HETATM   10  C9  UNL     1      24.347  14.206  18.995  1.00  0.00     0.241 C
HETATM   11  O2  UNL     1      23.756  14.201  17.861  1.00  0.00    -0.271 OA
HETATM   12  N4  UNL     1      24.125  13.075  19.821  1.00  0.00    -0.355 N
ATOM     13  H4  UNL     1      24.576  13.038  20.735  1.00  0.00     0.162 HD
BRANCH  12  14
HETATM   14  C10 UNL     1      23.277  11.964  19.412  1.00  0.00     0.084 C
HETATM   15  C11 UNL     1      22.334  11.622  20.507  1.00  0.00     0.025 C
HETATM   16  C12 UNL     1      22.192  10.176  20.821  1.00  0.00     0.002 C
HETATM   17  C13 UNL     1      22.070   9.452  19.471  1.00  0.00     0.000 C
HETATM   18  C14 UNL     1      23.451   9.501  18.888  1.00  0.00     0.002 C
HETATM   19  C15 UNL     1      24.091  10.828  18.882  1.00  0.00     0.025 C
ENDBRANCH  12  14
ENDBRANCH   9  10
BRANCH   1  20
HETATM   20  C3  UNL     1      27.598  15.044  23.802  1.00  0.00     0.070 A
HETATM   21  C2  UNL     1      28.245  16.008  24.538  1.00  0.00     0.140 A
HETATM   22  N1  UNL     1      28.103  15.705  25.831  1.00  0.00    -0.306 N
HETATM   23  C1  UNL     1      28.663  16.511  26.930  1.00  0.00     0.177 C
HETATM   24  N5  UNL     1      27.403  14.601  25.931  1.00  0.00    -0.308 N
HETATM   25  C16 UNL     1      27.064  14.148  24.723  1.00  0.00     0.138 A
ATOM     26  H5  UNL     1      27.151  14.151  26.811  1.00  0.00     0.186 HD
ENDBRANCH   1  20
TORSDOF 3
ENDMDL