MODEL 4
REMARK VINA RESULT: -6.845329566      5.666      8.742
REMARK  3 active torsions:
REMARK  status: ('A' for Active; 'I' for Inactive)
REMARK    1  A    between atoms: C3_4  and  N2_5
REMARK       I    between atoms: N2_5  and  C4_7
REMARK       I    between atoms: C4_7  and  N3_9
REMARK    2  A    between atoms: C8_13  and  N4_14
REMARK       I    between atoms: N4_14  and  C9_16
REMARK    3  A    between atoms: C9_16  and  C10_18
ROOT
HETATM    1  N2  UNL     1      21.259  13.881  25.154  1.00  0.00    -0.306 N
ATOM      2  H2  UNL     1      20.689  14.319  24.431  1.00  0.00     0.171 HD
HETATM    3  C4  UNL     1      22.534  13.382  24.814  1.00  0.00     0.323 C
HETATM    4  O1  UNL     1      23.305  12.822  25.662  1.00  0.00    -0.247 OA
HETATM    5  N3  UNL     1      22.982  13.511  23.455  1.00  0.00    -0.332 N
HETATM    6  C5  UNL     1      22.136  14.132  22.497  1.00  0.00     0.127 C
HETATM    7  C6  UNL     1      22.755  14.180  21.129  1.00  0.00     0.022 C
HETATM    8  C7  UNL     1      23.455  12.943  20.722  1.00  0.00     0.028 C
HETATM    9  C8  UNL     1      24.276  12.282  21.775  1.00  0.00     0.102 C
HETATM   10  C15 UNL     1      24.259  13.017  23.097  1.00  0.00     0.152 C
ENDROOT
BRANCH   1  11
HETATM   11  C3  UNL     1      20.750  13.790  26.469  1.00  0.00     0.070 A
HETATM   12  C2  UNL     1      20.055  12.807  27.106  1.00  0.00     0.140 A
HETATM   13  N1  UNL     1      19.774  13.174  28.395  1.00  0.00    -0.306 N
HETATM   14  C1  UNL     1      19.039  12.349  29.359  1.00  0.00     0.177 C
HETATM   15  N5  UNL     1      20.286  14.374  28.570  1.00  0.00    -0.308 N
HETATM   16  C16 UNL     1      20.885  14.795  27.448  1.00  0.00     0.138 A
ATOM     17  H5  UNL     1      20.234  14.908  29.437  1.00  0.00     0.186 HD
ENDBRANCH   1  11
BRANCH   9  18
HETATM   18  N4  UNL     1      25.643  12.032  21.335  1.00  0.00    -0.355 N
HETATM   19  C9  UNL     1      25.994  10.878  20.584  1.00  0.00     0.222 C
HETATM   20  O2  UNL     1      25.086  10.030  20.282  1.00  0.00    -0.273 OA
ATOM     21  H4  UNL     1      26.370  12.705  21.575  1.00  0.00     0.162 HD
BRANCH  19  22
HETATM   22  C10 UNL     1      27.391  10.682  20.170  1.00  0.00     0.078 C
HETATM   23  C11 UNL     1      27.946   9.512  20.936  1.00  0.00     0.014 C
HETATM   24  C12 UNL     1      29.292   9.962  21.495  1.00  0.00     0.001 C
HETATM   25  C13 UNL     1      29.640  11.160  20.605  1.00  0.00     0.001 C
HETATM   26  C14 UNL     1      28.271  11.850  20.554  1.00  0.00     0.014 C
ENDBRANCH  19  22
ENDBRANCH   9  18
TORSDOF 3
ENDMDL