MODEL 4
REMARK VINA RESULT: -6.337742073      2.593      5.424
REMARK  5 active torsions:
REMARK  status: ('A' for Active; 'I' for Inactive)
REMARK    1  A    between atoms: C2_2  and  O1_5
REMARK    2  A    between atoms: O1_5  and  C5_6
REMARK       I    between atoms: C5_6  and  N1_8
REMARK       I    between atoms: N1_8  and  C6_10
REMARK       I    between atoms: C6_10  and  N2_12
REMARK    3  A    between atoms: C10_16  and  C11_17
REMARK    4  A    between atoms: C11_17  and  N3_18
REMARK       I    between atoms: N3_18  and  C12_20
REMARK    5  A    between atoms: C12_20  and  C13_22
ROOT
HETATM    1  C5  UNL     1      24.290  14.943  25.270  1.00  0.00     0.369 C
HETATM    2  O2  UNL     1      24.936  15.263  26.306  1.00  0.00    -0.238 OA
HETATM    3  N1  UNL     1      23.193  14.019  25.371  1.00  0.00    -0.254 N
ATOM      4  H1  UNL     1      22.670  13.759  24.535  1.00  0.00     0.175 HD
HETATM    5  C6  UNL     1      22.836  13.465  26.633  1.00  0.00     0.327 C
HETATM    6  O3  UNL     1      23.476  13.784  27.646  1.00  0.00    -0.247 OA
HETATM    7  N2  UNL     1      21.762  12.563  26.708  1.00  0.00    -0.328 N
HETATM    8  C7  UNL     1      21.306  11.937  27.925  1.00  0.00     0.128 C
HETATM    9  C8  UNL     1      20.271  10.917  27.516  1.00  0.00     0.022 C
HETATM   10  C9  UNL     1      19.702  11.495  26.257  1.00  0.00     0.028 C
HETATM   11  C10 UNL     1      20.946  12.115  25.609  1.00  0.00     0.106 C
ENDROOT
BRANCH  11  12
HETATM   12  C11 UNL     1      21.600  11.055  24.781  1.00  0.00     0.147 C
BRANCH  12  13
HETATM   13  N3  UNL     1      21.375  11.350  23.375  1.00  0.00    -0.359 N
HETATM   14  C12 UNL     1      22.389  11.950  22.600  1.00  0.00     0.221 C
HETATM   15  O4  UNL     1      23.491  12.232  23.119  1.00  0.00    -0.273 OA
ATOM     16  H3  UNL     1      20.478  11.122  22.947  1.00  0.00     0.162 HD
BRANCH  14  17
HETATM   17  C13 UNL     1      22.158  12.247  21.182  1.00  0.00     0.078 C
HETATM   18  C14 UNL     1      23.201  13.150  20.558  1.00  0.00     0.014 C
HETATM   19  C15 UNL     1      23.111  12.282  19.310  1.00  0.00     0.002 C
HETATM   20  C16 UNL     1      22.640  11.154  20.222  1.00  0.00     0.014 C
ENDBRANCH  14  17
ENDBRANCH  12  13
ENDBRANCH  11  12
BRANCH   1  21
HETATM   21  O1  UNL     1      24.671  15.504  24.074  1.00  0.00    -0.294 OA
BRANCH  21  22
HETATM   22  C2  UNL     1      24.016  16.602  23.476  1.00  0.00     0.061 C
HETATM   23  C1  UNL     1      22.735  16.210  22.785  1.00  0.00     0.046 C
HETATM   24  C3  UNL     1      23.732  17.706  24.459  1.00  0.00     0.046 C
HETATM   25  C4  UNL     1      24.959  17.116  22.381  1.00  0.00     0.046 C
ENDBRANCH  21  22
ENDBRANCH   1  21
TORSDOF 5
ENDMDL