MODEL 3
REMARK VINA RESULT: -6.600319852      3.830      8.016
REMARK  6 active torsions:
REMARK  status: ('A' for Active; 'I' for Inactive)
REMARK    1  A    between atoms: C2_2  and  C3_3
REMARK    2  A    between atoms: C3_3  and  C4_4
REMARK    3  A    between atoms: C4_4  and  O1_5
REMARK    4  A    between atoms: N1_11  and  C9_12
REMARK    5  A    between atoms: C9_12  and  O2_13
REMARK    6  A    between atoms: C9_12  and  C10_15
ROOT
HETATM    1  C3  UNL     1      24.737  13.592  18.735  1.00  0.00     0.029 C
HETATM    2  C5  UNL     1      24.383  14.179  20.033  1.00  0.00     0.033 C
HETATM    3  C6  UNL     1      23.779  13.215  20.984  1.00  0.00    -0.027 C
HETATM    4  C7  UNL     1      24.825  12.777  21.989  1.00  0.00     0.030 C
HETATM    5  C8  UNL     1      24.473  13.212  23.383  1.00  0.00     0.125 C
HETATM    6  N1  UNL     1      23.095  12.850  23.719  1.00  0.00    -0.364 N
HETATM    7  C15 UNL     1      22.067  13.088  22.748  1.00  0.00     0.125 C
HETATM    8  C16 UNL     1      22.664  13.985  21.672  1.00  0.00     0.030 C
HETATM    9  C17 UNL     1      23.180  12.041  20.338  1.00  0.00     0.084 C
HETATM   10  S1  UNL     1      23.670  12.116  18.574  1.00  0.00    -0.156 SA
ENDROOT
BRANCH   6  11
HETATM   11  C9  UNL     1      22.830  12.307  24.983  1.00  0.00     0.144 C
BRANCH  11  12
HETATM   12  O2  UNL     1      23.509  11.204  25.207  1.00  0.00    -0.348 OA
ATOM     13  H2  UNL     1      23.955  10.888  24.430  1.00  0.00     0.219 HD
ENDBRANCH  11  12
BRANCH  11  14
HETATM   14  C10 UNL     1      21.957  12.738  26.064  1.00  0.00     0.259 C
HETATM   15  C11 UNL     1      21.783  14.175  26.343  1.00  0.00     0.041 C
HETATM   16  C12 UNL     1      20.823  14.346  27.522  1.00  0.00     0.004 C
HETATM   17  C13 UNL     1      21.455  13.673  28.717  1.00  0.00     0.027 C
HETATM   18  C14 UNL     1      21.525  12.184  28.377  1.00  0.00     0.233 C
HETATM   19  N2  UNL     1      22.403  12.040  27.268  1.00  0.00    -0.064 N
ATOM     20  H22 UNL     1      22.570  11.053  27.069  1.00  0.00     0.278 HD
ATOM     21  H21 UNL     1      23.348  12.327  27.519  1.00  0.00     0.278 HD
ENDBRANCH  11  14
ENDBRANCH   6  11
BRANCH   1  22
HETATM   22  C2  UNL     1      26.177  13.191  18.591  1.00  0.00     0.018 C
HETATM   23  C1  UNL     1      26.389  11.716  18.668  1.00  0.00     0.006 C
ENDBRANCH   1  22
BRANCH   1  24
HETATM   24  C4  UNL     1      24.396  14.560  17.624  1.00  0.00     0.184 C
BRANCH  24  25
HETATM   25  O1  UNL     1      23.030  14.757  17.463  1.00  0.00    -0.399 OA
ATOM     26  H1  UNL     1      22.793  15.666  17.323  1.00  0.00     0.209 HD
ENDBRANCH  24  25
ENDBRANCH   1  24
TORSDOF 6
ENDMDL