MODEL 1
REMARK VINA RESULT: -6.887877792      0.000      0.000
REMARK  4 active torsions:
REMARK  status: ('A' for Active; 'I' for Inactive)
REMARK    1  A    between atoms: N3_7  and  C4_8
REMARK    2  A    between atoms: N4_11  and  C7_12
REMARK    3  A    between atoms: C13_18  and  N5_19
REMARK       I    between atoms: N5_19  and  C14_21
REMARK    4  A    between atoms: C14_21  and  C15_23
ROOT
HETATM    1  N1  UNL     1      19.634  13.065  30.431  1.00  0.00    -0.191 NA
HETATM    2  C1  UNL     1      20.178  12.804  29.431  1.00  0.00     0.105 C
HETATM    3  C2  UNL     1      20.871  12.486  28.210  1.00  0.00     0.107 A
HETATM    4  C3  UNL     1      22.232  12.610  27.996  1.00  0.00     0.134 A
HETATM    5  N2  UNL     1      22.457  12.216  26.752  1.00  0.00    -0.306 N
ATOM      6  H2  UNL     1      23.383  12.204  26.324  1.00  0.00     0.186 HD
HETATM    7  N3  UNL     1      21.366  11.843  26.127  1.00  0.00    -0.266 N
HETATM    8  C13 UNL     1      20.351  12.006  27.033  1.00  0.00     0.148 A
ENDROOT
BRANCH   8   9
HETATM    9  N5  UNL     1      19.127  11.747  26.790  1.00  0.00    -0.310 N
HETATM   10  C14 UNL     1      18.075  12.599  26.490  1.00  0.00     0.233 C
HETATM   11  O1  UNL     1      17.386  13.166  27.374  1.00  0.00    -0.272 OA
ATOM     12  H5  UNL     1      18.882  10.758  26.823  1.00  0.00     0.170 HD
BRANCH  10  13
HETATM   13  C15 UNL     1      17.738  12.862  25.068  1.00  0.00     0.189 C
HETATM   14  S1  UNL     1      17.431  11.375  24.124  1.00  0.00    -0.088 SA
ENDBRANCH  10  13
ENDBRANCH   8   9
BRANCH   7  15
HETATM   15  C4  UNL     1      21.156  11.362  24.815  1.00  0.00     0.149 C
HETATM   16  C5  UNL     1      21.557   9.926  24.583  1.00  0.00     0.052 C
HETATM   17  C6  UNL     1      21.543   9.922  23.036  1.00  0.00     0.125 C
HETATM   18  N4  UNL     1      21.789  11.242  22.652  1.00  0.00    -0.387 N
HETATM   19  C12 UNL     1      22.003  12.071  23.759  1.00  0.00     0.086 C
BRANCH  18  20
HETATM   20  C7  UNL     1      21.891  11.652  21.346  1.00  0.00     0.083 C
HETATM   21  C8  UNL     1      22.620  10.563  20.540  1.00  0.00     0.025 C
HETATM   22  C9  UNL     1      22.968  11.267  19.261  1.00  0.00     0.002 C
HETATM   23  C10 UNL     1      23.054  12.736  19.606  1.00  0.00     0.002 C
HETATM   24  C11 UNL     1      22.860  12.818  21.107  1.00  0.00     0.025 C
ENDBRANCH  18  20
ENDBRANCH   7  15
TORSDOF 4
ENDMDL