MODEL 1
REMARK VINA RESULT: -7.284050431      0.000      0.000
REMARK  5 active torsions:
REMARK  status: ('A' for Active; 'I' for Inactive)
REMARK    1  A    between atoms: C2_2  and  C3_3
REMARK    2  A    between atoms: C2_2  and  N2_16
REMARK    3  A    between atoms: C17_19  and  N3_20
REMARK    4  A    between atoms: C17_19  and  C18_24
REMARK    5  A    between atoms: C18_24  and  O1_25
ROOT
HETATM    1  C1  UNL     1      20.916  14.395  24.620  1.00  0.00     0.043 C
HETATM    2  C2  UNL     1      22.119  13.525  24.709  1.00  0.00     0.223 C
ENDROOT
BRANCH   2   3
HETATM    3  C3  UNL     1      22.313  12.576  23.579  1.00  0.00     0.018 C
HETATM    4  C4  UNL     1      23.795  12.443  23.313  1.00  0.00     0.007 C
HETATM    5  C5  UNL     1      24.210  13.164  22.051  1.00  0.00     0.012 C
HETATM    6  C6  UNL     1      23.438  12.680  20.844  1.00  0.00    -0.008 C
HETATM    7  C7  UNL     1      22.120  12.062  21.227  1.00  0.00     0.012 C
HETATM    8  C9  UNL     1      23.116  13.904  19.988  1.00  0.00     0.042 C
HETATM    9  C14 UNL     1      24.309  11.802  20.007  1.00  0.00     0.231 C
HETATM   10  C8  UNL     1      21.541  12.950  22.336  1.00  0.00     0.007 C
HETATM   11  C10 UNL     1      23.500  13.415  18.607  1.00  0.00     0.273 C
HETATM   12  N1  UNL     1      24.696  12.610  18.873  1.00  0.00     0.093 N
HETATM   13  C11 UNL     1      24.892  11.738  17.752  1.00  0.00     0.273 C
HETATM   14  C12 UNL     1      24.447  10.357  18.165  1.00  0.00     0.032 C
HETATM   15  C13 UNL     1      23.622  10.613  19.422  1.00  0.00     0.038 C
ENDBRANCH   2   3
BRANCH   2  16
HETATM   16  N2  UNL     1      22.193  12.758  25.929  1.00  0.00     0.095 N
HETATM   17  C15 UNL     1      21.317  11.630  25.966  1.00  0.00     0.275 C
HETATM   18  C16 UNL     1      20.490  11.795  27.221  1.00  0.00     0.073 C
HETATM   19  C17 UNL     1      21.494  12.532  28.111  1.00  0.00     0.172 C
HETATM   20  C19 UNL     1      22.093  13.509  27.123  1.00  0.00     0.313 C
BRANCH  19  21
HETATM   21  N3  UNL     1      22.453  11.622  28.665  1.00  0.00    -0.067 N
ATOM     22  H33 UNL     1      22.010  10.932  29.272  1.00  0.00     0.275 HD
ATOM     23  H32 UNL     1      22.824  10.989  27.957  1.00  0.00     0.275 HD
ATOM     24  H31 UNL     1      23.197  12.126  29.148  1.00  0.00     0.275 HD
ENDBRANCH  19  21
BRANCH  19  25
HETATM   25  C18 UNL     1      20.807  13.334  29.185  1.00  0.00     0.204 C
BRANCH  25  26
HETATM   26  O1  UNL     1      21.461  14.548  29.288  1.00  0.00    -0.398 OA
ATOM     27  H1  UNL     1      20.820  15.202  29.544  1.00  0.00     0.209 HD
ENDBRANCH  25  26
ENDBRANCH  19  25
ENDBRANCH   2  16
TORSDOF 5
ENDMDL