MODEL 1
REMARK VINA RESULT: -8.931383009      0.000      0.000
REMARK  3 active torsions:
REMARK  status: ('A' for Active; 'I' for Inactive)
REMARK       I    between atoms: C1_2  and  N1_3
REMARK    1  A    between atoms: C1_2  and  C14_17
REMARK    2  A    between atoms: N1_3  and  C2_5
REMARK    3  A    between atoms: C16_19  and  C17_20
ROOT
HETATM    1  O1  UNL     1      20.732   9.059  20.632  1.00  0.00    -0.273 OA
HETATM    2  C1  UNL     1      21.054   9.976  21.431  1.00  0.00     0.222 C
HETATM    3  N1  UNL     1      21.989  10.991  21.094  1.00  0.00    -0.355 N
ATOM      4  H1  UNL     1      22.195  11.698  21.800  1.00  0.00     0.162 HD
ENDROOT
BRANCH   2   5
HETATM    5  C14 UNL     1      20.405   9.959  22.765  1.00  0.00     0.079 C
HETATM    6  C15 UNL     1      21.453   9.656  23.818  1.00  0.00     0.026 C
HETATM    7  C16 UNL     1      20.731  10.678  24.704  1.00  0.00     0.058 C
HETATM    8  C18 UNL     1      20.227  11.313  23.406  1.00  0.00     0.026 C
BRANCH   7   9
HETATM    9  C17 UNL     1      21.612  11.530  25.496  1.00  0.00     0.117 A
HETATM   10  N2  UNL     1      21.665  11.562  26.838  1.00  0.00    -0.272 N
HETATM   11  N3  UNL     1      22.571  12.447  27.216  1.00  0.00    -0.227 N
ATOM     12  H2  UNL     1      21.096  10.994  27.465  1.00  0.00     0.190 HD
HETATM   13  N4  UNL     1      23.100  12.983  26.135  1.00  0.00    -0.227 N
ATOM     14  H3  UNL     1      22.817  12.675  28.179  1.00  0.00     0.210 HD
HETATM   15  N5  UNL     1      22.517  12.427  25.074  1.00  0.00    -0.272 N
ATOM     16  H4  UNL     1      23.828  13.697  26.114  1.00  0.00     0.210 HD
ATOM     17  H5  UNL     1      22.725  12.648  24.101  1.00  0.00     0.190 HD
ENDBRANCH   7   9
ENDBRANCH   2   5
BRANCH   3  18
HETATM   18  C2  UNL     1      22.659  11.088  19.843  1.00  0.00     0.092 C
HETATM   19  C3  UNL     1      23.093  12.517  19.603  1.00  0.00     0.009 C
HETATM   20  C4  UNL     1      23.707  13.167  20.796  1.00  0.00     0.007 C
HETATM   21  C10 UNL     1      23.790  12.741  18.315  1.00  0.00     0.015 C
HETATM   22  C5  UNL     1      24.974  12.722  21.318  1.00  0.00     0.009 C
HETATM   23  C6  UNL     1      25.650  11.506  20.784  1.00  0.00     0.008 C
HETATM   24  C7  UNL     1      26.416  11.845  19.555  1.00  0.00    -0.026 C
HETATM   25  C13 UNL     1      24.845  10.278  20.702  1.00  0.00     0.015 C
HETATM   26  C8  UNL     1      26.050  11.921  18.268  1.00  0.00    -0.026 C
HETATM   27  C9  UNL     1      24.647  11.644  17.815  1.00  0.00     0.009 C
HETATM   28  C11 UNL     1      24.298  10.275  18.248  1.00  0.00     0.015 C
HETATM   29  C12 UNL     1      23.812  10.164  19.661  1.00  0.00     0.010 C
ENDBRANCH   3  18
TORSDOF 3
ENDMDL