MODEL 1
REMARK VINA RESULT: -8.360092432      0.000      0.000
REMARK  7 active torsions:
REMARK  status: ('A' for Active; 'I' for Inactive)
REMARK    1  A    between atoms: C7_9  and  N2_10
REMARK    2  A    between atoms: C8_13  and  C9_14
REMARK    3  A    between atoms: C9_14  and  N3_15
REMARK    4  A    between atoms: C12_18  and  O1_19
REMARK    5  A    between atoms: O1_19  and  C13_20
REMARK    6  A    between atoms: C15_22  and  N4_23
REMARK    7  A    between atoms: N4_23  and  C16_25
ROOT
HETATM    1  N3  UNL     1      -5.554  15.783  34.967  1.00  0.00     0.092 N
HETATM    2  C10 UNL     1      -6.265  14.746  35.755  1.00  0.00     0.275 C
HETATM    3  C11 UNL     1      -6.162  13.390  35.155  1.00  0.00     0.062 C
HETATM    4  C12 UNL     1      -4.761  12.909  34.995  1.00  0.00     0.132 C
HETATM    5  C22 UNL     1      -4.010  13.962  34.164  1.00  0.00     0.062 C
HETATM    6  C23 UNL     1      -4.188  15.284  34.765  1.00  0.00     0.275 C
ENDROOT
BRANCH   4   7
HETATM    7  O1  UNL     1      -4.715  11.694  34.316  1.00  0.00    -0.344 OA
BRANCH   7   8
HETATM    8  C13 UNL     1      -3.563  10.986  33.982  1.00  0.00     0.091 A
HETATM    9  C14 UNL     1      -2.457  10.977  34.763  1.00  0.00     0.086 A
HETATM   10  C15 UNL     1      -1.296  10.248  34.388  1.00  0.00     0.103 A
HETATM   11  N6  UNL     1      -1.325   9.565  33.229  1.00  0.00    -0.351 N
HETATM   12  C20 UNL     1      -2.434   9.580  32.457  1.00  0.00     0.111 A
ATOM     13  H6  UNL     1      -0.506   9.032  32.933  1.00  0.00     0.166 HD
HETATM   14  C21 UNL     1      -3.573  10.269  32.785  1.00  0.00     0.059 A
HETATM   15 BR1  UNL     1      -5.094  10.235  31.636  1.00  0.00    -0.047 Br
BRANCH  10  16
HETATM   16  N4  UNL     1      -0.321  10.278  35.167  1.00  0.00    -0.370 N
ATOM     17  H4  UNL     1      -0.511   9.732  36.007  1.00  0.00     0.161 HD
BRANCH  16  18
HETATM   18  C16 UNL     1       0.959  10.844  35.219  1.00  0.00     0.110 C
HETATM   19  C17 UNL     1       1.211  11.749  33.994  1.00  0.00     0.054 C
HETATM   20  C18 UNL     1       2.313  12.627  34.471  1.00  0.00     0.234 C
HETATM   21  N5  UNL     1       2.058  12.866  35.870  1.00  0.00    -0.073 N
HETATM   22  C19 UNL     1       1.272  11.762  36.354  1.00  0.00     0.257 C
ATOM     23  H52 UNL     1       2.910  13.017  36.410  1.00  0.00     0.277 HD
ATOM     24  H51 UNL     1       1.626  13.773  36.048  1.00  0.00     0.277 HD
ENDBRANCH  16  18
ENDBRANCH  10  16
ENDBRANCH   7   8
ENDBRANCH   4   7
BRANCH   1  25
HETATM   25  C9  UNL     1      -6.240  15.867  33.661  1.00  0.00     0.315 C
BRANCH  25  26
HETATM   26  C8  UNL     1      -6.935  17.116  33.404  1.00  0.00     0.024 A
HETATM   27  C4  UNL     1      -6.291  18.015  32.575  1.00  0.00    -0.021 A
HETATM   28  C2  UNL     1      -5.101  17.804  31.796  1.00  0.00    -0.077 C
HETATM   29  C5  UNL     1      -6.984  19.241  32.368  1.00  0.00     0.029 A
HETATM   30  C1  UNL     1      -4.246  19.045  31.539  1.00  0.00     0.044 C
HETATM   31  C3  UNL     1      -4.358  16.563  31.632  1.00  0.00     0.044 C
HETATM   32  C6  UNL     1      -8.191  19.508  32.937  1.00  0.00     0.090 A
HETATM   33  N1  UNL     1      -8.780  18.639  33.711  1.00  0.00    -0.352 N
HETATM   34  C7  UNL     1      -8.187  17.405  33.981  1.00  0.00     0.107 A
ATOM     35  H1  UNL     1      -9.685  18.864  34.124  1.00  0.00     0.166 HD
BRANCH  34  36
HETATM   36  N2  UNL     1      -8.862  16.615  34.639  1.00  0.00    -0.385 N
ATOM     37  H22 UNL     1      -9.815  16.327  34.413  1.00  0.00     0.157 HD
ATOM     38  H21 UNL     1      -8.447  16.295  35.514  1.00  0.00     0.157 HD
ENDBRANCH  34  36
ENDBRANCH  25  26
ENDBRANCH   1  25
TORSDOF 7
ENDMDL