MODEL 1
REMARK VINA RESULT: -7.491502611      0.000      0.000
REMARK  9 active torsions:
REMARK  status: ('A' for Active; 'I' for Inactive)
REMARK    1  A    between atoms: C2_2  and  C3_3
REMARK    2  A    between atoms: C3_3  and  C4_4
REMARK    3  A    between atoms: C5_5  and  N1_6
REMARK    4  A    between atoms: N1_6  and  C6_9
REMARK    5  A    between atoms: C6_9  and  O1_10
REMARK    6  A    between atoms: C6_9  and  C7_12
REMARK    7  A    between atoms: C15_21  and  O3_22
REMARK    8  A    between atoms: C18_26  and  O4_28
REMARK    9  A    between atoms: C23_33  and  O5_34
ROOT
HETATM    1  C4  UNL     1       0.804  10.326  30.447  1.00  0.00     0.052 C
HETATM    2  C5  UNL     1       0.295  11.011  31.695  1.00  0.00     0.226 C
HETATM    3  C13 UNL     1       0.182  12.416  31.324  1.00  0.00     0.170 C
HETATM    4  O2  UNL     1       0.604  13.424  32.099  1.00  0.00    -0.379 OA
HETATM    5  C14 UNL     1       0.717  14.519  31.200  1.00  0.00     0.209 C
HETATM    6  C15 UNL     1       0.812  13.936  29.804  1.00  0.00     0.113 C
HETATM    7  C17 UNL     1       1.847  14.662  28.997  1.00  0.00     0.133 C
HETATM    8 BR1  UNL     1       1.964  16.473  29.718  1.00  0.00    -0.084 Br
HETATM    9  C18 UNL     1       3.197  14.046  28.962  1.00  0.00     0.088 C
HETATM   10  C19 UNL     1       4.306  15.087  28.868  1.00  0.00     0.051 C
HETATM   11  C20 UNL     1       3.534  13.146  30.076  1.00  0.00     0.008 C
HETATM   12  C21 UNL     1       2.583  12.429  30.654  1.00  0.00    -0.010 C
HETATM   13  C22 UNL     1       1.214  12.543  30.175  1.00  0.00     0.066 C
HETATM   14  C23 UNL     1       0.762  11.409  29.352  1.00  0.00     0.142 C
ENDROOT
BRANCH   2  15
HETATM   15  N1  UNL     1      -1.084  10.529  31.897  1.00  0.00    -0.037 N
ATOM     16  H12 UNL     1      -1.770  11.168  31.494  1.00  0.00     0.281 HD
ATOM     17  H11 UNL     1      -1.283   9.709  31.325  1.00  0.00     0.281 HD
BRANCH  15  18
HETATM   18  C6  UNL     1      -1.344  10.279  33.298  1.00  0.00     0.353 C
BRANCH  18  19
HETATM   19  O1  UNL     1      -1.177   8.913  33.515  1.00  0.00    -0.366 OA
ATOM     20  H1  UNL     1      -0.458   8.808  34.128  1.00  0.00     0.212 HD
ENDBRANCH  18  19
BRANCH  18  21
HETATM   21  C7  UNL     1      -2.740  10.671  33.614  1.00  0.00    -0.003 A
HETATM   22  C8  UNL     1      -3.033  11.146  34.892  1.00  0.00     0.011 A
HETATM   23  C9  UNL     1      -4.300  11.526  35.252  1.00  0.00     0.001 A
HETATM   24  C10 UNL     1      -5.339  11.454  34.358  1.00  0.00     0.000 A
HETATM   25  C11 UNL     1      -5.071  10.986  33.082  1.00  0.00     0.001 A
HETATM   26  C12 UNL     1      -3.785  10.602  32.727  1.00  0.00     0.011 A
ENDBRANCH  18  21
ENDBRANCH  15  18
ENDBRANCH   2  15
BRANCH   1  27
HETATM   27  C3  UNL     1       0.170   9.057  30.077  1.00  0.00     0.035 C
BRANCH  27  28
HETATM   28  C2  UNL     1       1.085   8.249  29.211  1.00  0.00    -0.036 C
HETATM   29  C1  UNL     1       2.396   8.237  29.410  1.00  0.00     0.007 C
ENDBRANCH  27  28
ENDBRANCH   1  27
BRANCH  14  30
HETATM   30  O5  UNL     1      -0.541  11.498  28.943  1.00  0.00    -0.394 OA
ATOM     31  H5  UNL     1      -0.702  12.414  28.749  1.00  0.00     0.210 HD
ENDBRANCH  14  30
BRANCH   6  32
HETATM   32  O3  UNL     1      -0.417  13.886  29.217  1.00  0.00    -0.380 OA
HETATM   33  C16 UNL     1      -1.139  15.041  29.139  1.00  0.00     0.202 C
ENDBRANCH   6  32
BRANCH   9  34
HETATM   34  O4  UNL     1       3.325  13.273  27.783  1.00  0.00    -0.385 OA
ATOM     35  H4  UNL     1       3.686  12.423  28.005  1.00  0.00     0.211 HD
ENDBRANCH   9  34
TORSDOF 9
ENDMDL