MODEL 5
REMARK VINA RESULT: -6.711188548      8.281     10.853
REMARK  8 active torsions:
REMARK  status: ('A' for Active; 'I' for Inactive)
REMARK    1  A    between atoms: C4_4  and  C5_5
REMARK    2  A    between atoms: C5_5  and  C6_6
REMARK    3  A    between atoms: C6_6  and  C7_7
REMARK    4  A    between atoms: C7_7  and  C8_8
REMARK    5  A    between atoms: C13_15  and  O3_16
REMARK    6  A    between atoms: C18_23  and  C19_24
REMARK    7  A    between atoms: C19_24  and  O4_25
REMARK    8  A    between atoms: C20_27  and  C21_28
ROOT
HETATM    1  C7  UNL     1       0.323  12.121  31.531  1.00  0.00     0.081 C
HETATM    2  C9  UNL     1      -0.631  13.133  30.957  1.00  0.00     0.024 C
HETATM    3  C10 UNL     1      -0.503  13.479  29.535  1.00  0.00     0.014 C
HETATM    4  C11 UNL     1       0.761  13.167  28.839  1.00  0.00    -0.006 C
HETATM    5  C12 UNL     1       1.854  12.793  29.806  1.00  0.00     0.053 C
HETATM    6  C13 UNL     1       1.199  11.568  30.415  1.00  0.00     0.089 C
HETATM    7  C14 UNL     1       0.277  11.002  29.315  1.00  0.00     0.098 C
HETATM    8 BR1  UNL     1       0.417   9.101  29.182  1.00  0.00    -0.088 Br
HETATM    9  C15 UNL     1       0.721  11.766  28.173  1.00  0.00     0.014 C
HETATM   10  C16 UNL     1      -0.054  12.038  26.990  1.00  0.00     0.014 C
HETATM   11  C17 UNL     1       0.831  13.171  26.432  1.00  0.00     0.025 C
HETATM   12  C18 UNL     1       0.105  14.048  25.479  1.00  0.00     0.055 C
HETATM   13  C20 UNL     1       0.035  15.357  26.262  1.00  0.00     0.229 C
HETATM   14  O7  UNL     1       0.196  15.039  27.581  1.00  0.00    -0.368 OA
HETATM   15  C22 UNL     1       1.124  13.999  27.683  1.00  0.00     0.136 C
ENDROOT
BRANCH   1  16
HETATM   16  C6  UNL     1      -0.346  10.957  32.159  1.00  0.00     0.027 C
BRANCH  16  17
HETATM   17  C5  UNL     1      -1.791  11.008  32.439  1.00  0.00     0.028 C
BRANCH  17  18
HETATM   18  C4  UNL     1      -2.719  10.257  31.610  1.00  0.00    -0.025 C
HETATM   19  C2  UNL     1      -4.035  10.214  31.920  1.00  0.00    -0.091 C
HETATM   20  C1  UNL     1      -4.956   9.452  31.073  1.00  0.00     0.042 C
HETATM   21  C3  UNL     1      -4.547  10.941  33.118  1.00  0.00     0.042 C
ENDBRANCH  17  18
ENDBRANCH  16  17
ENDBRANCH   1  16
BRANCH   1  22
HETATM   22  C8  UNL     1       1.257  12.761  32.483  1.00  0.00     0.185 C
HETATM   23  O1  UNL     1       1.251  14.021  32.706  1.00  0.00    -0.647 OA
HETATM   24  O2  UNL     1       2.194  12.019  33.186  1.00  0.00    -0.647 OA
ENDBRANCH   1  22
BRANCH   6  25
HETATM   25  O3  UNL     1       2.118  10.661  30.841  1.00  0.00    -0.387 OA
ATOM     26  H3  UNL     1       2.192   9.899  30.278  1.00  0.00     0.210 HD
ENDBRANCH   6  25
BRANCH  12  27
HETATM   27  C19 UNL     1       1.018  14.307  24.295  1.00  0.00     0.172 C
BRANCH  27  28
HETATM   28  O4  UNL     1       1.883  15.366  24.530  1.00  0.00    -0.400 OA
ATOM     29  H4  UNL     1       2.550  15.144  25.169  1.00  0.00     0.209 HD
ENDBRANCH  27  28
ENDBRANCH  12  27
BRANCH  13  30
HETATM   30  C21 UNL     1      -1.304  15.937  25.980  1.00  0.00     0.203 C
HETATM   31  O5  UNL     1      -2.360  15.535  26.532  1.00  0.00    -0.646 OA
HETATM   32  O6  UNL     1      -1.424  16.975  25.065  1.00  0.00    -0.646 OA
ENDBRANCH  13  30
TORSDOF 8
ENDMDL