MODEL 4
REMARK VINA RESULT: -8.473023995      3.581      5.245
REMARK  9 active torsions:
REMARK  status: ('A' for Active; 'I' for Inactive)
REMARK    1  A    between atoms: C6_6  and  C7_7
REMARK       I    between atoms: C7_7  and  N1_9
REMARK    2  A    between atoms: N1_9  and  C8_10
REMARK    3  A    between atoms: C8_10  and  C9_11
REMARK    4  A    between atoms: C9_11  and  C10_12
REMARK    5  A    between atoms: C13_15  and  N2_16
REMARK    6  A    between atoms: N2_16  and  S1_18
REMARK    7  A    between atoms: S1_18  and  C14_21
REMARK    8  A    between atoms: C22_30  and  O4_31
REMARK    9  A    between atoms: C23_33  and  O5_34
ROOT
HETATM    1  C7  UNL     1      -4.729  18.328  28.725  1.00  0.00     0.295 C
HETATM    2  O1  UNL     1      -5.342  19.072  27.899  1.00  0.00    -0.257 OA
HETATM    3  N1  UNL     1      -3.830  17.304  28.454  1.00  0.00    -0.387 NA
ENDROOT
BRANCH   1   4
HETATM    4  C6  UNL     1      -5.057  18.640  30.164  1.00  0.00     0.097 C
HETATM    5  C5  UNL     1      -6.310  17.949  30.613  1.00  0.00     0.004 C
HETATM    6  C4  UNL     1      -7.238  18.889  31.323  1.00  0.00     0.007 C
HETATM    7  C19 UNL     1      -5.782  16.845  31.482  1.00  0.00    -0.005 C
HETATM    8  C3  UNL     1      -7.426  18.624  32.780  1.00  0.00     0.012 C
HETATM    9  C2  UNL     1      -7.621  17.200  33.151  1.00  0.00    -0.011 C
HETATM   10  C1  UNL     1      -9.109  16.883  32.948  1.00  0.00     0.018 C
HETATM   11  C20 UNL     1      -6.757  16.236  32.416  1.00  0.00     0.003 C
HETATM   12  C23 UNL     1      -7.359  17.035  34.633  1.00  0.00     0.155 C
HETATM   13  C21 UNL     1      -6.065  15.371  33.444  1.00  0.00     0.040 C
HETATM   14  C22 UNL     1      -6.217  16.060  34.764  1.00  0.00     0.148 C
HETATM   15  C18 UNL     1      -4.524  17.337  32.125  1.00  0.00     0.006 C
HETATM   16  C17 UNL     1      -3.933  18.277  31.072  1.00  0.00     0.016 C
BRANCH  14  17
HETATM   17  O4  UNL     1      -6.525  15.177  35.805  1.00  0.00    -0.393 OA
ATOM     18  H4  UNL     1      -7.103  15.560  36.454  1.00  0.00     0.210 HD
ENDBRANCH  14  17
BRANCH  12  19
HETATM   19  O5  UNL     1      -6.956  18.232  35.241  1.00  0.00    -0.392 OA
ATOM     20  H5  UNL     1      -7.420  18.400  36.053  1.00  0.00     0.210 HD
ENDBRANCH  12  19
ENDBRANCH   1   4
BRANCH   3  21
HETATM   21  C8  UNL     1      -2.953  16.308  28.189  1.00  0.00     0.159 C
BRANCH  21  22
HETATM   22  C9  UNL     1      -1.654  16.427  28.972  1.00  0.00     0.064 C
BRANCH  22  23
HETATM   23  C10 UNL     1      -1.330  15.126  29.656  1.00  0.00    -0.009 C
HETATM   24  C11 UNL     1       0.171  14.942  29.473  1.00  0.00     0.007 C
HETATM   25  C12 UNL     1       0.873  15.158  30.828  1.00  0.00     0.026 C
HETATM   26  C13 UNL     1       0.379  14.044  31.702  1.00  0.00     0.092 C
HETATM   27  C15 UNL     1      -1.052  14.252  32.019  1.00  0.00     0.026 C
HETATM   28  C16 UNL     1      -1.671  15.263  31.122  1.00  0.00     0.007 C
BRANCH  26  29
HETATM   29  N2  UNL     1       1.228  13.773  32.830  1.00  0.00    -0.314 N
ATOM     30  H2  UNL     1       1.655  14.505  33.397  1.00  0.00     0.172 HD
BRANCH  29  31
HETATM   31  S1  UNL     1       1.454  12.103  33.132  1.00  0.00     0.239 S
HETATM   32  O2  UNL     1       2.247  11.468  32.033  1.00  0.00    -0.205 OA
HETATM   33  O3  UNL     1       0.196  11.356  33.334  1.00  0.00    -0.205 OA
BRANCH  31  34
HETATM   34  C14 UNL     1       2.407  11.958  34.640  1.00  0.00     0.277 C
HETATM   35 CL1  UNL     1       2.403  13.534  35.490  1.00  0.00    -0.113 Cl
ENDBRANCH  31  34
ENDBRANCH  29  31
ENDBRANCH  26  29
ENDBRANCH  22  23
ENDBRANCH  21  22
ENDBRANCH   3  21
TORSDOF 9
ENDMDL