MODEL 1
REMARK VINA RESULT: -8.780232356      0.000      0.000
REMARK  8 active torsions:
REMARK  status: ('A' for Active; 'I' for Inactive)
REMARK    1  A    between atoms: C2_2  and  C3_3
REMARK    2  A    between atoms: C5_5  and  O1_6
REMARK    3  A    between atoms: C7_9  and  C8_10
REMARK    4  A    between atoms: C8_10  and  N1_11
REMARK    5  A    between atoms: N1_11  and  S1_13
REMARK    6  A    between atoms: S1_13  and  C9_16
REMARK    7  A    between atoms: C9_16  and  C10_17
REMARK    8  A    between atoms: C10_17  and  O4_18
ROOT
HETATM    1  C3  UNL     1      -6.392  18.329  31.523  1.00  0.00     0.009 C
HETATM    2  C4  UNL     1      -7.106  19.577  31.963  1.00  0.00     0.074 C
HETATM    3  C5  UNL     1      -8.152  19.294  33.014  1.00  0.00     0.163 C
HETATM    4  C6  UNL     1      -7.660  18.203  33.924  1.00  0.00     0.079 C
HETATM    5  C7  UNL     1      -7.977  16.814  33.548  1.00  0.00    -0.018 C
HETATM    6  C11 UNL     1      -9.493  16.626  33.737  1.00  0.00     0.014 C
HETATM    7  C12 UNL     1     -10.172  16.849  32.427  1.00  0.00     0.033 C
HETATM    8  C13 UNL     1      -9.737  18.126  31.762  1.00  0.00     0.125 C
HETATM    9  C14 UNL     1      -8.727  17.874  30.671  1.00  0.00     0.037 C
HETATM   10  C15 UNL     1      -7.412  17.333  31.121  1.00  0.00    -0.006 C
HETATM   11  C16 UNL     1      -7.530  16.319  32.224  1.00  0.00     0.016 C
HETATM   12  O5  UNL     1      -9.425  19.155  32.588  1.00  0.00    -0.350 OA
ENDROOT
BRANCH   1  13
HETATM   13  C2  UNL     1      -5.349  18.692  30.511  1.00  0.00     0.007 A
HETATM   14  C1  UNL     1      -5.012  20.190  30.733  1.00  0.00     0.022 C
HETATM   15  C17 UNL     1      -5.539  18.421  29.094  1.00  0.00     0.057 A
HETATM   16  C18 UNL     1      -4.323  17.598  29.161  1.00  0.00    -0.021 A
HETATM   17  C19 UNL     1      -4.169  17.858  30.466  1.00  0.00     0.026 A
HETATM   18  C25 UNL     1      -3.282  16.758  28.744  1.00  0.00     0.002 A
HETATM   19  N2  UNL     1      -3.045  17.198  30.891  1.00  0.00    -0.358 N
HETATM   20  C20 UNL     1      -2.517  16.545  29.870  1.00  0.00     0.043 A
ATOM     21  H2  UNL     1      -2.676  17.209  31.842  1.00  0.00     0.166 HD
HETATM   22  C21 UNL     1      -1.402  15.718  29.679  1.00  0.00     0.033 A
HETATM   23  C22 UNL     1      -1.122  15.172  28.429  1.00  0.00     0.044 A
HETATM   24  C23 UNL     1      -1.920  15.422  27.351  1.00  0.00     0.117 A
HETATM   25  F1  UNL     1      -1.704  14.922  26.107  1.00  0.00    -0.206 F
HETATM   26  C24 UNL     1      -3.028  16.236  27.518  1.00  0.00     0.056 A
ENDBRANCH   1  13
BRANCH   3  27
HETATM   27  O1  UNL     1      -8.181  20.462  33.829  1.00  0.00    -0.365 OA
ATOM     28  H1  UNL     1      -8.879  20.308  34.455  1.00  0.00     0.213 HD
ENDBRANCH   3  27
BRANCH   5  29
HETATM   29  C8  UNL     1      -7.362  15.895  34.587  1.00  0.00     0.141 C
BRANCH  29  30
HETATM   30  N1  UNL     1      -6.111  16.333  35.115  1.00  0.00    -0.319 N
ATOM     31  H1  UNL     1      -5.964  17.137  35.725  1.00  0.00     0.172 HD
BRANCH  30  32
HETATM   32  S1  UNL     1      -4.879  15.249  34.530  1.00  0.00     0.228 S
HETATM   33  O2  UNL     1      -3.724  15.242  35.491  1.00  0.00    -0.206 OA
HETATM   34  O3  UNL     1      -4.370  15.693  33.197  1.00  0.00    -0.206 OA
BRANCH  32  35
HETATM   35  C9  UNL     1      -5.523  13.603  34.348  1.00  0.00     0.189 C
BRANCH  35  36
HETATM   36  C10 UNL     1      -4.365  12.621  34.344  1.00  0.00     0.180 C
BRANCH  36  37
HETATM   37  O4  UNL     1      -3.245  13.128  33.714  1.00  0.00    -0.400 OA
ATOM     38  H4  UNL     1      -3.225  12.921  32.787  1.00  0.00     0.209 HD
ENDBRANCH  36  37
ENDBRANCH  35  36
ENDBRANCH  32  35
ENDBRANCH  30  32
ENDBRANCH  29  30
ENDBRANCH   5  29
TORSDOF 8
ENDMDL