MODEL 2
REMARK VINA RESULT: -7.003523973      2.285      7.868
REMARK  11 active torsions:
REMARK  status: ('A' for Active; 'I' for Inactive)
REMARK    1  A    between atoms: C2_2  and  O1_4
REMARK    2  A    between atoms: C2_2  and  C4_6
REMARK    3  A    between atoms: C4_6  and  N1_7
REMARK    4  A    between atoms: N2_15  and  C12_16
REMARK    5  A    between atoms: C14_18  and  C15_19
REMARK    6  A    between atoms: C15_19  and  C16_20
REMARK    7  A    between atoms: C16_20  and  C17_21
REMARK    8  A    between atoms: C17_21  and  C18_22
REMARK       I    between atoms: N4_28  and  C21_30
REMARK       I    between atoms: C21_30  and  N5_32
REMARK    9  A    between atoms: N5_32  and  C22_34
REMARK   10  A    between atoms: C22_34  and  C23_35
REMARK   11  A    between atoms: C23_35  and  O3_36
ROOT
HETATM    1  C12 UNL     1       0.643  11.201  30.991  1.00  0.00     0.076 A
HETATM    2  C13 UNL     1       1.075  12.384  30.434  1.00  0.00     0.055 A
HETATM    3  C14 UNL     1       0.778  13.578  31.057  1.00  0.00     0.035 A
HETATM    4  C19 UNL     1       0.060  13.642  32.229  1.00  0.00     0.110 A
HETATM    5  N3  UNL     1      -0.356  12.500  32.766  1.00  0.00    -0.349 N
ATOM      6  H3  UNL     1      -0.891  12.519  33.635  1.00  0.00     0.167 HD
HETATM    7  C20 UNL     1      -0.080  11.303  32.177  1.00  0.00     0.136 A
HETATM    8  N4  UNL     1      -0.509  10.258  32.760  1.00  0.00    -0.293 N
ATOM      9  H4  UNL     1      -0.329   9.330  32.375  1.00  0.00     0.172 HD
HETATM   10  C21 UNL     1      -1.255  10.424  33.982  1.00  0.00     0.325 C
HETATM   11  O2  UNL     1      -0.609  10.583  35.075  1.00  0.00    -0.247 OA
HETATM   12  N5  UNL     1      -2.652  10.416  34.021  1.00  0.00    -0.320 N
ATOM     13  H5  UNL     1      -3.103  10.273  33.118  1.00  0.00     0.169 HD
ENDROOT
BRANCH   1  14
HETATM   14  N2  UNL     1       0.916   9.994  30.367  1.00  0.00    -0.378 N
HETATM   15  C11 UNL     1       2.232   9.644  29.847  1.00  0.00     0.125 C
HETATM   16  C10 UNL     1       1.964   9.375  28.378  1.00  0.00     0.054 C
HETATM   17  C4  UNL     1       1.421   7.930  28.232  1.00  0.00     0.068 C
HETATM   18  C25 UNL     1       0.568   7.724  29.435  1.00  0.00     0.054 C
HETATM   19  C24 UNL     1      -0.025   8.905  30.114  1.00  0.00     0.125 C
BRANCH  17  20
HETATM   20  C2  UNL     1       0.690   8.006  26.923  1.00  0.00     0.076 C
HETATM   21  C1  UNL     1       0.785   6.739  26.103  1.00  0.00     0.048 C
HETATM   22  C3  UNL     1       1.099   9.128  26.049  1.00  0.00     0.048 C
BRANCH  20  23
HETATM   23  O1  UNL     1      -0.701   8.149  27.179  1.00  0.00    -0.388 OA
ATOM     24  H1  UNL     1      -0.920   8.994  26.804  1.00  0.00     0.210 HD
ENDBRANCH  20  23
ENDBRANCH  17  20
BRANCH  17  25
HETATM   25  N1  UNL     1       2.463   6.982  28.266  1.00  0.00    -0.361 N
HETATM   26  C5  UNL     1       3.739   7.219  27.794  1.00  0.00     0.064 C
HETATM   27  C6  UNL     1       4.351   6.018  27.124  1.00  0.00     0.045 C
HETATM   28  C7  UNL     1       3.605   4.746  27.339  1.00  0.00     0.010 C
HETATM   29  C8  UNL     1       2.935   4.654  28.665  1.00  0.00     0.045 C
HETATM   30  C9  UNL     1       2.447   5.961  29.230  1.00  0.00     0.064 C
ENDBRANCH  17  25
ENDBRANCH   1  14
BRANCH   3  31
HETATM   31  C15 UNL     1       1.234  14.819  30.452  1.00  0.00    -0.066 C
BRANCH  31  32
HETATM   32  C16 UNL     1       1.597  15.855  29.924  1.00  0.00    -0.100 C
BRANCH  32  33
HETATM   33  C17 UNL     1       2.019  17.097  29.260  1.00  0.00     0.109 C
BRANCH  33  34
HETATM   34  C18 UNL     1       2.352  16.822  27.805  1.00  0.00     0.126 C
HETATM   35 CL1  UNL     1       3.810  15.841  27.649  1.00  0.00    -0.130 Cl
ENDBRANCH  33  34
ENDBRANCH  32  33
ENDBRANCH  31  32
ENDBRANCH   3  31
BRANCH  12  36
HETATM   36  C22 UNL     1      -3.535  10.574  35.105  1.00  0.00     0.091 C
BRANCH  36  37
HETATM   37  C23 UNL     1      -3.986  11.990  35.375  1.00  0.00     0.208 C
BRANCH  37  38
HETATM   38  O3  UNL     1      -3.254  12.436  36.523  1.00  0.00    -0.396 OA
ATOM     39  H3  UNL     1      -2.834  13.251  36.274  1.00  0.00     0.209 HD
ENDBRANCH  37  38
ENDBRANCH  36  37
ENDBRANCH  12  36
TORSDOF 11
ENDMDL