MODEL 5
REMARK VINA RESULT: -7.203580927      5.659     10.875
REMARK  7 active torsions:
REMARK  status: ('A' for Active; 'I' for Inactive)
REMARK    1  A    between atoms: C2_2  and  N1_3
REMARK    2  A    between atoms: N1_3  and  C3_4
REMARK       I    between atoms: N1_3  and  C4_6
REMARK       I    between atoms: C4_6  and  N3_10
REMARK    3  A    between atoms: C6_15  and  C7_16
REMARK    4  A    between atoms: C7_16  and  C8_17
REMARK    5  A    between atoms: C8_17  and  C9_18
REMARK    6  A    between atoms: C9_18  and  C10_19
REMARK    7  A    between atoms: C10_19  and  N5_20
ROOT
HETATM    1  N1  UNL     1       0.713   8.842  27.819  1.00  0.00    -0.205 N
HETATM    2  C4  UNL     1       1.360   9.462  28.916  1.00  0.00     0.684 C
HETATM    3  N2  UNL     1       2.315   8.831  29.502  1.00  0.00    -0.234 N
ATOM      4  H21 UNL     1       2.781   9.278  30.292  1.00  0.00     0.174 HD
ATOM      5  H22 UNL     1       2.554   7.895  29.174  1.00  0.00     0.174 HD
HETATM    6  N3  UNL     1       1.032  10.749  29.366  1.00  0.00    -0.120 N
HETATM    7  C5  UNL     1       1.591  11.742  28.524  1.00  0.00     0.195 C
HETATM    8  S1  UNL     1       2.434  11.127  27.262  1.00  0.00    -0.040 SA
HETATM    9  N4  UNL     1       1.583  13.154  28.539  1.00  0.00    -0.353 N
ATOM     10  H4  UNL     1       1.929  13.473  27.635  1.00  0.00     0.162 HD
HETATM   11  C6  UNL     1       1.283  14.305  29.316  1.00  0.00     0.176 C
HETATM   12  C15 UNL     1       0.897  14.117  30.705  1.00  0.00     0.245 C
HETATM   13  O2  UNL     1       1.281  15.085  31.424  1.00  0.00    -0.271 OA
HETATM   14  N6  UNL     1       0.218  13.178  31.512  1.00  0.00    -0.323 N
ATOM     15  H6  UNL     1      -0.137  13.597  32.372  1.00  0.00     0.169 HD
HETATM   16  C16 UNL     1      -0.095  11.798  31.425  1.00  0.00     0.064 A
HETATM   17  C17 UNL     1      -0.906  11.529  32.512  1.00  0.00     0.058 A
HETATM   18  C18 UNL     1      -1.397  10.269  32.743  1.00  0.00     0.048 A
HETATM   19  N7  UNL     1      -2.223   9.970  33.839  1.00  0.00    -0.102 NA
HETATM   20  C19 UNL     1      -1.063   9.279  31.864  1.00  0.00     0.029 A
HETATM   21  C20 UNL     1      -0.251   9.545  30.774  1.00  0.00     0.035 A
HETATM   22  C21 UNL     1       0.254  10.797  30.521  1.00  0.00     0.086 A
ENDROOT
BRANCH  11  23
HETATM   23  C7  UNL     1       0.371  15.304  28.615  1.00  0.00     0.035 C
BRANCH  23  24
HETATM   24  C8  UNL     1      -1.086  14.947  28.728  1.00  0.00     0.004 C
BRANCH  24  25
HETATM   25  C9  UNL     1      -2.023  16.103  28.591  1.00  0.00     0.030 C
BRANCH  25  26
HETATM   26  C10 UNL     1      -2.474  16.520  29.990  1.00  0.00     0.272 C
BRANCH  26  27
HETATM   27  N5  UNL     1      -3.865  16.966  29.989  1.00  0.00     0.092 N
HETATM   28  C11 UNL     1      -4.144  17.362  28.624  1.00  0.00     0.298 C
HETATM   29  C12 UNL     1      -5.377  18.202  28.548  1.00  0.00     0.198 C
HETATM   30  O1  UNL     1      -5.103  19.382  29.275  1.00  0.00    -0.388 OA
HETATM   31  C13 UNL     1      -5.012  19.051  30.639  1.00  0.00     0.198 C
HETATM   32  C14 UNL     1      -3.932  18.067  30.928  1.00  0.00     0.298 C
ENDBRANCH  26  27
ENDBRANCH  25  26
ENDBRANCH  24  25
ENDBRANCH  23  24
ENDBRANCH  11  23
BRANCH   1  33
HETATM   33  C2  UNL     1       1.191   7.542  27.327  1.00  0.00     0.138 C
HETATM   34  C1  UNL     1       0.510   6.382  27.977  1.00  0.00     0.027 C
ENDBRANCH   1  33
BRANCH   1  35
HETATM   35  C3  UNL     1      -0.425   9.404  27.120  1.00  0.00     0.256 C
HETATM   36 CL1  UNL     1      -0.738   8.620  25.558  1.00  0.00    -0.108 Cl
ENDBRANCH   1  35
TORSDOF 7
ENDMDL