MODEL 4
REMARK VINA RESULT: -8.397353391      3.142      8.272
REMARK  11 active torsions:
REMARK  status: ('A' for Active; 'I' for Inactive)
REMARK    1  A    between atoms: C2_2  and  C3_3
REMARK    2  A    between atoms: C2_2  and  C10_15
REMARK    3  A    between atoms: C3_3  and  O1_4
REMARK    4  A    between atoms: C3_3  and  N1_6
REMARK    5  A    between atoms: C4_7  and  C5_8
REMARK    6  A    between atoms: C10_15  and  O4_16
REMARK    7  A    between atoms: C10_15  and  C11_18
REMARK    8  A    between atoms: C11_18  and  O5_20
REMARK    9  A    between atoms: C11_18  and  C13_22
REMARK   10  A    between atoms: C16_25  and  C17_26
REMARK       I    between atoms: C17_26  and  N2_28
REMARK   11  A    between atoms: N2_28  and  C18_30
ROOT
HETATM    1  C11 UNL     1      -2.862   9.934  33.479  1.00  0.00     0.088 C
HETATM    2  C12 UNL     1      -3.408   9.588  32.126  1.00  0.00     0.049 C
ENDROOT
BRANCH   1   3
HETATM    3  C10 UNL     1      -1.464  10.451  33.371  1.00  0.00     0.189 C
BRANCH   3   4
HETATM    4  C2  UNL     1      -0.918  10.667  32.038  1.00  0.00     0.015 C
HETATM    5  C1  UNL     1      -0.571   9.510  31.380  1.00  0.00     0.026 C
BRANCH   4   6
HETATM    6  C3  UNL     1      -0.754  11.859  31.271  1.00  0.00     0.147 C
BRANCH   6   7
HETATM    7  O1  UNL     1      -1.606  12.802  31.570  1.00  0.00    -0.346 OA
ATOM      8  H1  UNL     1      -1.274  13.680  31.429  1.00  0.00     0.219 HD
ENDBRANCH   6   7
BRANCH   6   9
HETATM    9  N1  UNL     1       0.129  12.229  30.257  1.00  0.00    -0.342 N
HETATM   10  C4  UNL     1       1.517  12.634  30.539  1.00  0.00     0.188 C
HETATM   11  C6  UNL     1       2.219  12.742  29.224  1.00  0.00     0.043 C
HETATM   12  C7  UNL     1       1.167  12.752  28.166  1.00  0.00     0.013 A
HETATM   13  C8  UNL     1       0.011  13.648  28.157  1.00  0.00     0.032 A
HETATM   14  C9  UNL     1      -0.103  12.332  28.839  1.00  0.00     0.092 A
BRANCH  10  15
HETATM   15  C5  UNL     1       1.544  13.904  31.299  1.00  0.00     0.196 C
HETATM   16  O2  UNL     1       1.774  15.036  30.751  1.00  0.00    -0.646 OA
HETATM   17  O3  UNL     1       1.313  13.928  32.667  1.00  0.00    -0.646 OA
ENDBRANCH  10  15
ENDBRANCH   6   9
ENDBRANCH   4   6
ENDBRANCH   3   4
BRANCH   3  18
HETATM   18  O4  UNL     1      -0.592   9.682  34.168  1.00  0.00    -0.388 OA
ATOM     19  H4  UNL     1      -1.056   9.253  34.877  1.00  0.00     0.210 HD
ENDBRANCH   3  18
ENDBRANCH   1   3
BRANCH   1  20
HETATM   20  O5  UNL     1      -2.870   8.735  34.254  1.00  0.00    -0.387 OA
ATOM     21  H5  UNL     1      -2.494   8.025  33.746  1.00  0.00     0.210 HD
ENDBRANCH   1  20
BRANCH   1  22
HETATM   22  C13 UNL     1      -3.798  10.910  34.133  1.00  0.00     0.022 C
HETATM   23  C14 UNL     1      -5.047  11.207  33.378  1.00  0.00     0.008 C
HETATM   24  C15 UNL     1      -5.461  12.632  33.545  1.00  0.00     0.014 C
HETATM   25  C16 UNL     1      -5.342  13.223  34.895  1.00  0.00     0.078 C
HETATM   26  C23 UNL     1      -4.107  12.735  35.650  1.00  0.00     0.014 C
HETATM   27  C24 UNL     1      -3.184  12.206  34.536  1.00  0.00     0.008 C
BRANCH  25  28
HETATM   28  C17 UNL     1      -5.102  14.707  34.748  1.00  0.00     0.227 C
HETATM   29  O6  UNL     1      -3.979  15.132  35.146  1.00  0.00    -0.273 OA
HETATM   30  N2  UNL     1      -6.075  15.557  34.201  1.00  0.00    -0.313 N
ATOM     31  H2  UNL     1      -6.957  15.674  34.700  1.00  0.00     0.170 HD
BRANCH  30  32
HETATM   32  C18 UNL     1      -5.906  16.188  33.113  1.00  0.00     0.107 A
HETATM   33  C19 UNL     1      -6.618  15.870  31.987  1.00  0.00     0.050 A
HETATM   34  C20 UNL     1      -6.436  16.547  30.781  1.00  0.00     0.029 A
HETATM   35  C21 UNL     1      -5.514  17.562  30.729  1.00  0.00     0.049 A
HETATM   36 CL1  UNL     1      -5.236  18.456  29.228  1.00  0.00    -0.083 Cl
HETATM   37  C22 UNL     1      -4.807  17.867  31.878  1.00  0.00     0.113 A
HETATM   38  N3  UNL     1      -5.010  17.191  33.023  1.00  0.00    -0.351 N
ATOM     39  H3  UNL     1      -4.468  17.445  33.849  1.00  0.00     0.166 HD
ENDBRANCH  30  32
ENDBRANCH  25  28
ENDBRANCH   1  22
TORSDOF 11
ENDMDL