MODEL 1
REMARK VINA RESULT: -8.319856008      0.000      0.000
REMARK  8 active torsions:
REMARK  status: ('A' for Active; 'I' for Inactive)
REMARK    1  A    between atoms: C2_2  and  C3_3
REMARK    2  A    between atoms: C3_3  and  C4_4
REMARK    3  A    between atoms: C3_3  and  C6_9
REMARK    4  A    between atoms: C4_4  and  C5_6
REMARK    5  A    between atoms: C5_6  and  O2_7
REMARK    6  A    between atoms: C14_18  and  C15_19
REMARK    7  A    between atoms: C15_19  and  C16_20
REMARK       I    between atoms: C16_20  and  N1_22
REMARK       I    between atoms: N1_22  and  C17_24
REMARK       I    between atoms: C17_24  and  N2_26
REMARK    8  A    between atoms: N2_26  and  N3_28
ROOT
HETATM    1  C6  UNL     1       1.382  12.363  29.390  1.00  0.00     0.007 C
HETATM    2  C7  UNL     1       2.401  11.875  28.421  1.00  0.00     0.022 C
HETATM    3  C8  UNL     1       2.218  10.346  28.313  1.00  0.00     0.063 C
HETATM    4 BR1  UNL     1       3.896   9.425  28.289  1.00  0.00    -0.091 Br
HETATM    5  C9  UNL     1       1.415  10.073  29.558  1.00  0.00     0.009 C
HETATM    6  C10 UNL     1       0.791   8.742  29.637  1.00  0.00     0.007 C
HETATM    7  C11 UNL     1      -0.303   8.742  30.680  1.00  0.00     0.005 C
HETATM    8  C12 UNL     1      -1.273   9.874  30.524  1.00  0.00    -0.009 C
HETATM    9  C13 UNL     1      -2.329   9.811  31.568  1.00  0.00     0.010 C
HETATM   10  C14 UNL     1      -1.745  10.131  32.951  1.00  0.00    -0.005 C
HETATM   11  C18 UNL     1      -1.112  11.509  32.891  1.00  0.00     0.005 C
HETATM   12  C19 UNL     1       0.075  11.429  31.919  1.00  0.00     0.006 C
HETATM   13  C20 UNL     1      -0.549  11.229  30.558  1.00  0.00    -0.002 C
HETATM   14  C21 UNL     1       0.403  11.230  29.422  1.00  0.00    -0.031 C
HETATM   15  C22 UNL     1      -0.329  10.978  28.150  1.00  0.00     0.016 C
ENDROOT
BRANCH  10  16
HETATM   16  C15 UNL     1      -2.886  10.047  33.899  1.00  0.00     0.108 C
BRANCH  16  17
HETATM   17  C16 UNL     1      -3.234  11.308  34.598  1.00  0.00     0.226 C
HETATM   18  O3  UNL     1      -2.850  11.464  35.776  1.00  0.00    -0.273 OA
HETATM   19  N1  UNL     1      -3.982  12.292  33.926  1.00  0.00    -0.278 N
HETATM   20  C17 UNL     1      -4.403  13.537  34.413  1.00  0.00     0.341 C
ATOM     21  H1  UNL     1      -4.252  12.072  32.967  1.00  0.00     0.173 HD
HETATM   22  O4  UNL     1      -5.091  14.328  33.651  1.00  0.00    -0.245 OA
HETATM   23  N2  UNL     1      -4.151  14.056  35.708  1.00  0.00    -0.258 N
ATOM     24  H2  UNL     1      -3.616  13.499  36.375  1.00  0.00     0.191 HD
BRANCH  23  25
HETATM   25  N3  UNL     1      -4.629  15.336  36.094  1.00  0.00    -0.341 N
ATOM     26  H32 UNL     1      -4.928  15.981  35.364  1.00  0.00     0.177 HD
ATOM     27  H31 UNL     1      -4.675  15.609  37.076  1.00  0.00     0.177 HD
ENDBRANCH  23  25
ENDBRANCH  16  17
ENDBRANCH  10  16
BRANCH   1  28
HETATM   28  C3  UNL     1       0.874  13.720  29.283  1.00  0.00     0.062 C
BRANCH  28  29
HETATM   29  C2  UNL     1       0.750  14.362  27.944  1.00  0.00     0.008 C
HETATM   30  C1  UNL     1      -0.736  14.762  27.805  1.00  0.00     0.006 C
ENDBRANCH  28  29
BRANCH  28  31
HETATM   31  C4  UNL     1       1.599  14.647  30.186  1.00  0.00     0.154 C
HETATM   32  O1  UNL     1       1.565  14.463  31.402  1.00  0.00    -0.295 OA
BRANCH  31  33
HETATM   33  C5  UNL     1       2.383  15.809  29.724  1.00  0.00     0.242 C
BRANCH  33  34
HETATM   34  O2  UNL     1       2.045  16.979  30.407  1.00  0.00    -0.394 OA
ATOM     35  H2  UNL     1       2.511  17.737  30.074  1.00  0.00     0.209 HD
ENDBRANCH  33  34
ENDBRANCH  31  33
ENDBRANCH  28  31
ENDBRANCH   1  28
TORSDOF 8
ENDMDL