MODEL 3
REMARK VINA RESULT: -7.028944465      7.592      9.890
REMARK  7 active torsions:
REMARK  status: ('A' for Active; 'I' for Inactive)
REMARK    1  A    between atoms: N1_1  and  C1_4
REMARK    2  A    between atoms: C2_7  and  C3_8
REMARK    3  A    between atoms: C6_13  and  C7_14
REMARK    4  A    between atoms: C8_17  and  C9_18
REMARK    5  A    between atoms: C9_18  and  C10_19
REMARK    6  A    between atoms: C11_20  and  C12_21
REMARK    7  A    between atoms: C15_26  and  N4_27
ROOT
HETATM    1  C3  UNL     1       4.186  12.173  29.379  1.00  0.00     0.045 C
HETATM    2  C4  UNL     1       3.093  11.947  30.043  1.00  0.00     0.040 A
HETATM    3  C5  UNL     1       2.042  12.790  30.600  1.00  0.00     0.258 A
HETATM    4  O1  UNL     1       1.827  14.054  30.686  1.00  0.00    -0.267 OA
HETATM    5  N3  UNL     1       1.349  11.632  31.009  1.00  0.00    -0.293 N
HETATM    6  C6  UNL     1       0.189  11.001  31.602  1.00  0.00     0.126 C
HETATM    7  C8  UNL     1      -0.226   9.832  31.169  1.00  0.00     0.030 C
HETATM    8  C13 UNL     1       0.547   9.192  30.073  1.00  0.00     0.191 C
HETATM    9  O4  UNL     1       0.224   8.066  29.598  1.00  0.00    -0.287 OA
HETATM   10  C14 UNL     1       1.709   9.888  29.543  1.00  0.00     0.036 C
HETATM   11  C15 UNL     1       2.076   9.770  28.314  1.00  0.00     0.099 C
HETATM   12  C19 UNL     1       2.417  10.752  30.542  1.00  0.00     0.171 A
ENDROOT
BRANCH   1  13
HETATM   13  C2  UNL     1       4.678  13.531  28.988  1.00  0.00     0.041 A
HETATM   14  N2  UNL     1       4.044  14.239  28.083  1.00  0.00    -0.337 N
HETATM   15  C1  UNL     1       4.531  15.431  27.741  1.00  0.00     0.142 A
ATOM     16  H2  UNL     1       3.193  13.882  27.649  1.00  0.00     0.168 HD
HETATM   17  S1  UNL     1       5.920  15.570  28.715  1.00  0.00    -0.064 SA
HETATM   18  C20 UNL     1       5.814  14.075  29.526  1.00  0.00     0.082 A
BRANCH  15  19
HETATM   19  N1  UNL     1       4.022  16.253  26.861  1.00  0.00    -0.380 N
ATOM     20  H12 UNL     1       3.050  16.458  26.626  1.00  0.00     0.158 HD
ATOM     21  H11 UNL     1       4.542  16.862  26.229  1.00  0.00     0.158 HD
ENDBRANCH  15  19
ENDBRANCH   1  13
BRANCH   6  22
HETATM   22  C7  UNL     1      -0.409  11.772  32.671  1.00  0.00     0.227 C
HETATM   23  O2  UNL     1      -0.201  11.578  33.863  1.00  0.00    -0.643 OA
HETATM   24  O3  UNL     1      -1.290  12.814  32.389  1.00  0.00    -0.643 OA
ENDBRANCH   6  22
BRANCH  11  25
HETATM   25  N4  UNL     1       1.404   8.958  27.343  1.00  0.00    -0.389 N
HETATM   26  C16 UNL     1       1.642   7.637  26.809  1.00  0.00     0.123 A
HETATM   27  C17 UNL     1       0.397   7.727  25.992  1.00  0.00     0.040 A
HETATM   28  C18 UNL     1       0.250   9.109  26.489  1.00  0.00     0.123 A
ENDBRANCH  11  25
BRANCH   7  29
HETATM   29  C9  UNL     1      -1.380   9.079  31.671  1.00  0.00     0.072 C
BRANCH  29  30
HETATM   30  C10 UNL     1      -2.672   9.620  31.171  1.00  0.00    -0.025 C
HETATM   31  C11 UNL     1      -3.640  10.145  31.825  1.00  0.00    -0.020 C
BRANCH  31  32
HETATM   32  C12 UNL     1      -3.706  10.339  33.277  1.00  0.00     0.112 C
HETATM   33 BR1  UNL     1      -5.132  11.594  33.723  1.00  0.00    -0.092 Br
ENDBRANCH  31  32
ENDBRANCH  29  30
ENDBRANCH   7  29
TORSDOF 7
ENDMDL