MODEL 5
REMARK VINA RESULT: -4.914419880      1.108      1.494
REMARK  5 active torsions:
REMARK  status: ('A' for Active; 'I' for Inactive)
REMARK    1  A    between atoms: N1_1  and  C1_5
REMARK    2  A    between atoms: C1_5  and  C2_6
REMARK    3  A    between atoms: C2_6  and  N2_7
REMARK    4  A    between atoms: C2_6  and  C3_11
REMARK    5  A    between atoms: C3_11  and  C4_12
ROOT
HETATM    1  C2  UNL     1      74.392  39.492  78.171  1.00  0.00     0.210 C
ENDROOT
BRANCH   1   2
HETATM    2  C1  UNL     1      73.296  40.446  77.884  1.00  0.00     0.262 C
BRANCH   2   3
HETATM    3  N1  UNL     1      73.236  40.759  76.435  1.00  0.00    -0.077 N
ATOM      4  H13 UNL     1      73.936  41.452  76.169  1.00  0.00     0.274 HD
ATOM      5  H12 UNL     1      73.566  39.980  75.867  1.00  0.00     0.274 HD
ATOM      6  H11 UNL     1      72.296  41.050  76.166  1.00  0.00     0.274 HD
ENDBRANCH   2   3
ENDBRANCH   1   2
BRANCH   1   7
HETATM    7  N2  UNL     1      73.844  38.127  77.900  1.00  0.00    -0.073 N
ATOM      8  H23 UNL     1      72.844  38.049  78.085  1.00  0.00     0.274 HD
ATOM      9  H22 UNL     1      73.808  37.895  76.907  1.00  0.00     0.274 HD
ATOM     10  H21 UNL     1      74.408  37.477  78.446  1.00  0.00     0.274 HD
ENDBRANCH   1   7
BRANCH   1  11
HETATM   11  C3  UNL     1      74.927  39.452  79.543  1.00  0.00     0.059 C
BRANCH  11  12
HETATM   12  C4  UNL     1      76.355  39.131  79.788  1.00  0.00     0.080 C
HETATM   13  C5  UNL     1      77.188  39.215  78.577  1.00  0.00     0.051 C
HETATM   14  C6  UNL     1      78.432  39.943  78.993  1.00  0.00     0.103 A
HETATM   15  N3  UNL     1      79.711  39.508  79.187  1.00  0.00    -0.407 N
HETATM   16  C7  UNL     1      78.880  39.076  80.176  1.00  0.00     0.116 A
ATOM     17  H3  UNL     1      80.666  39.508  78.828  1.00  0.00     0.154 HD
HETATM   18  C8  UNL     1      78.170  39.725  81.295  1.00  0.00     0.141 C
HETATM   19  N4  UNL     1      76.789  39.858  80.935  1.00  0.00    -0.415 N
ATOM     20  H4  UNL     1      76.149  40.444  81.471  1.00  0.00     0.153 HD
ENDBRANCH  11  12
ENDBRANCH   1  11
TORSDOF 5
ENDMDL