MODEL 1
REMARK VINA RESULT: -5.018585473      0.000      0.000
REMARK  6 active torsions:
REMARK  status: ('A' for Active; 'I' for Inactive)
REMARK    1  A    between atoms: N1_2  and  C2_4
REMARK    2  A    between atoms: C3_7  and  N3_8
REMARK    3  A    between atoms: N5_13  and  C4_14
REMARK    4  A    between atoms: C4_14  and  C5_15
REMARK    5  A    between atoms: C5_15  and  C6_16
REMARK    6  A    between atoms: C6_16  and  N6_17
ROOT
HETATM    1  C2  UNL     1      71.059  44.037  77.259  1.00  0.00     0.709 A
HETATM    2  N2  UNL     1      71.185  42.928  76.486  1.00  0.00    -0.020 N
ATOM      3  H2  UNL     1      70.436  42.473  75.963  1.00  0.00     0.203 HD
HETATM    4  C3  UNL     1      72.469  42.536  76.528  1.00  0.00     0.705 A
HETATM    5  N4  UNL     1      73.119  43.404  77.324  1.00  0.00    -0.115 N
ATOM      6  H4  UNL     1      74.113  43.365  77.548  1.00  0.00     0.206 HD
HETATM    7  N5  UNL     1      72.268  44.322  77.775  1.00  0.00    -0.109 N
ENDROOT
BRANCH   7   8
HETATM    8  C4  UNL     1      72.594  45.409  78.646  1.00  0.00     0.170 C
BRANCH   8   9
HETATM    9  C5  UNL     1      73.432  46.408  77.835  1.00  0.00     0.050 C
BRANCH   9  10
HETATM   10  C6  UNL     1      72.586  47.687  77.780  1.00  0.00     0.231 C
BRANCH  10  11
HETATM   11  N6  UNL     1      71.769  47.568  76.586  1.00  0.00    -0.079 N
ATOM     12  H63 UNL     1      72.265  47.801  75.726  1.00  0.00     0.274 HD
ATOM     13  H62 UNL     1      71.544  46.604  76.339  1.00  0.00     0.274 HD
ATOM     14  H61 UNL     1      70.947  48.148  76.754  1.00  0.00     0.274 HD
ENDBRANCH  10  11
ENDBRANCH   9  10
ENDBRANCH   8   9
ENDBRANCH   7   8
BRANCH   1  15
HETATM   15  N1  UNL     1      69.992  44.720  77.482  1.00  0.00    -0.228 N
HETATM   16  C1  UNL     1      69.063  44.418  78.530  1.00  0.00     0.165 C
ATOM     17  H1  UNL     1      69.797  45.520  76.880  1.00  0.00     0.177 HD
ENDBRANCH   1  15
BRANCH   4  18
HETATM   18  N3  UNL     1      72.944  41.506  75.901  1.00  0.00    -0.233 N
ATOM     19  H32 UNL     1      72.436  40.716  75.502  1.00  0.00     0.174 HD
ATOM     20  H31 UNL     1      73.935  41.346  75.719  1.00  0.00     0.174 HD
ENDBRANCH   4  18
TORSDOF 6
ENDMDL