MODEL 2
REMARK VINA RESULT: -5.390575405      0.116      2.177
REMARK  5 active torsions:
REMARK  status: ('A' for Active; 'I' for Inactive)
REMARK    1  A    between atoms: N1_2  and  C3_4
REMARK    2  A    between atoms: C3_4  and  C4_5
REMARK    3  A    between atoms: C4_5  and  C5_6
REMARK    4  A    between atoms: C6_9  and  N3_10
REMARK    5  A    between atoms: C7_15  and  N5_16
ROOT
HETATM    1  C5  UNL     1      73.384  40.728  77.110  1.00  0.00     0.115 A
HETATM    2  N2  UNL     1      73.121  40.598  78.423  1.00  0.00    -0.180 N
ATOM      3  H2  UNL     1      72.426  41.201  78.862  1.00  0.00     0.185 HD
HETATM    4  C6  UNL     1      73.771  39.676  79.167  1.00  0.00     0.691 A
HETATM    5  N4  UNL     1      74.701  38.857  78.625  1.00  0.00    -0.023 N
ATOM      6  H4  UNL     1      75.189  38.162  79.190  1.00  0.00     0.203 HD
HETATM    7  C7  UNL     1      74.955  38.995  77.323  1.00  0.00     0.691 A
HETATM    8  N6  UNL     1      74.299  39.924  76.576  1.00  0.00    -0.180 N
ATOM      9  H6  UNL     1      74.515  40.005  75.583  1.00  0.00     0.185 HD
ENDROOT
BRANCH   1  10
HETATM   10  C4  UNL     1      72.705  41.727  76.247  1.00  0.00     0.108 C
BRANCH  10  11
HETATM   11  C3  UNL     1      71.802  42.620  77.015  1.00  0.00     0.279 C
BRANCH  11  12
HETATM   12  N1  UNL     1      72.067  44.003  77.006  1.00  0.00     0.080 N
HETATM   13  C1  UNL     1      73.269  44.446  77.633  1.00  0.00     0.309 C
HETATM   14  C2  UNL     1      70.955  44.737  77.636  1.00  0.00     0.309 C
ENDBRANCH  11  12
ENDBRANCH  10  11
ENDBRANCH   1  10
BRANCH   4  15
HETATM   15  N3  UNL     1      73.541  39.529  80.426  1.00  0.00    -0.234 N
ATOM     16  H32 UNL     1      73.784  40.316  81.028  1.00  0.00     0.174 HD
ATOM     17  H31 UNL     1      73.136  38.673  80.806  1.00  0.00     0.174 HD
ENDBRANCH   4  15
BRANCH   7  18
HETATM   18  N5  UNL     1      75.844  38.218  76.795  1.00  0.00    -0.234 N
ATOM     19  H52 UNL     1      76.837  38.347  76.984  1.00  0.00     0.174 HD
ATOM     20  H51 UNL     1      75.519  37.470  76.182  1.00  0.00     0.174 HD
ENDBRANCH   7  18
TORSDOF 5
ENDMDL