MODEL 1
REMARK VINA RESULT: -6.354758262      0.000      0.000
REMARK  6 active torsions:
REMARK  status: ('A' for Active; 'I' for Inactive)
REMARK    1  A    between atoms: C3_5  and  N2_6
REMARK    2  A    between atoms: N2_6  and  C4_8
REMARK    3  A    between atoms: C4_8  and  C5_9
REMARK    4  A    between atoms: C5_9  and  C6_10
REMARK    5  A    between atoms: C6_10  and  N3_11
REMARK    6  A    between atoms: C6_10  and  N4_15
ROOT
HETATM    1  N2  UNL     1      74.266  38.990  78.805  1.00  0.00    -0.225 N
ATOM      2  H2  UNL     1      73.811  38.084  78.920  1.00  0.00     0.177 HD
ENDROOT
BRANCH   1   3
HETATM    3  C3  UNL     1      73.943  39.696  77.781  1.00  0.00     0.694 A
HETATM    4  N1  UNL     1      73.114  40.754  77.820  1.00  0.00    -0.179 N
HETATM    5  C2  UNL     1      72.988  41.264  76.583  1.00  0.00     0.108 A
ATOM      6  H1  UNL     1      72.653  41.112  78.656  1.00  0.00     0.185 HD
HETATM    7  C1  UNL     1      72.157  42.450  76.179  1.00  0.00     0.091 C
HETATM    8  N6  UNL     1      73.757  40.493  75.794  1.00  0.00    -0.275 N
HETATM    9  N5  UNL     1      74.341  39.539  76.506  1.00  0.00    -0.131 N
ATOM     10  H6  UNL     1      73.875  40.624  74.789  1.00  0.00     0.189 HD
ATOM     11  H5  UNL     1      74.974  38.822  76.152  1.00  0.00     0.205 HD
ENDBRANCH   1   3
BRANCH   1  12
HETATM   12  C4  UNL     1      75.219  39.388  79.792  1.00  0.00     0.142 C
BRANCH  12  13
HETATM   13  C5  UNL     1      76.397  38.435  79.728  1.00  0.00     0.082 C
BRANCH  13  14
HETATM   14  C6  UNL     1      77.658  39.256  79.844  1.00  0.00     0.379 C
BRANCH  14  15
HETATM   15  N3  UNL     1      77.625  40.022  81.074  1.00  0.00    -0.050 N
ATOM     16  H33 UNL     1      77.697  39.427  81.899  1.00  0.00     0.276 HD
ATOM     17  H32 UNL     1      78.477  40.566  81.211  1.00  0.00     0.276 HD
ATOM     18  H31 UNL     1      76.788  40.604  81.090  1.00  0.00     0.276 HD
ENDBRANCH  14  15
BRANCH  14  19
HETATM   19  N4  UNL     1      77.723  40.178  78.746  1.00  0.00    -0.050 N
ATOM     20  H43 UNL     1      78.500  39.975  78.116  1.00  0.00     0.276 HD
ATOM     21  H42 UNL     1      76.961  40.044  78.082  1.00  0.00     0.276 HD
ATOM     22  H41 UNL     1      77.757  41.131  79.109  1.00  0.00     0.276 HD
ENDBRANCH  14  19
ENDBRANCH  13  14
ENDBRANCH  12  13
ENDBRANCH   1  12
TORSDOF 6
ENDMDL