MODEL 4
REMARK VINA RESULT: -5.631414432      2.031      3.020
REMARK  5 active torsions:
REMARK  status: ('A' for Active; 'I' for Inactive)
REMARK    1  A    between atoms: N3_10  and  C5_12
REMARK    2  A    between atoms: C5_12  and  C6_13
REMARK    3  A    between atoms: C6_13  and  N4_14
REMARK    4  A    between atoms: C6_13  and  C7_18
REMARK    5  A    between atoms: C7_18  and  N5_19
ROOT
HETATM    1  N1  UNL     1      77.739  39.982  78.533  1.00  0.00    -0.380 N
ATOM      2  H11 UNL     1      77.740  40.432  77.618  1.00  0.00     0.158 HD
ATOM      3  H12 UNL     1      78.624  39.706  78.958  1.00  0.00     0.158 HD
HETATM    4  C1  UNL     1      76.602  39.764  79.147  1.00  0.00     0.146 A
HETATM    5  C2  UNL     1      76.601  39.156  80.383  1.00  0.00     0.073 A
HETATM    6  C3  UNL     1      75.403  38.933  81.016  1.00  0.00     0.096 A
HETATM    7  N2  UNL     1      74.281  39.323  80.396  1.00  0.00    -0.332 N
ATOM      8  H2  UNL     1      73.381  39.165  80.850  1.00  0.00     0.168 HD
HETATM    9  C4  UNL     1      74.312  39.915  79.190  1.00  0.00     0.225 A
HETATM   10  N3  UNL     1      73.201  40.272  78.634  1.00  0.00    -0.354 N
ATOM     11  H3  UNL     1      72.321  40.099  79.119  1.00  0.00     0.163 HD
HETATM   12  O1  UNL     1      75.465  40.119  78.601  1.00  0.00    -0.263 OA
ENDROOT
BRANCH  10  13
HETATM   13  C5  UNL     1      73.182  40.905  77.352  1.00  0.00     0.157 C
BRANCH  13  14
HETATM   14  C6  UNL     1      72.452  42.230  77.418  1.00  0.00     0.226 C
BRANCH  14  15
HETATM   15  N4  UNL     1      73.319  43.328  77.740  1.00  0.00    -0.072 N
ATOM     16  H43 UNL     1      72.784  44.184  77.890  1.00  0.00     0.274 HD
ATOM     17  H42 UNL     1      73.719  43.218  78.672  1.00  0.00     0.274 HD
ATOM     18  H41 UNL     1      74.051  43.472  77.044  1.00  0.00     0.274 HD
ENDBRANCH  14  15
BRANCH  14  19
HETATM   19  C7  UNL     1      71.799  42.531  76.078  1.00  0.00     0.264 C
BRANCH  19  20
HETATM   20  N5  UNL     1      70.731  43.452  76.314  1.00  0.00    -0.077 N
ATOM     21  H53 UNL     1      69.994  43.392  75.611  1.00  0.00     0.274 HD
ATOM     22  H52 UNL     1      70.164  43.203  77.124  1.00  0.00     0.274 HD
ATOM     23  H51 UNL     1      71.137  44.385  76.384  1.00  0.00     0.274 HD
ENDBRANCH  19  20
ENDBRANCH  14  19
ENDBRANCH  13  14
ENDBRANCH  10  13
TORSDOF 5
ENDMDL