MODEL 2
REMARK VINA RESULT: -6.033504601      1.401      5.323
REMARK  5 active torsions:
REMARK  status: ('A' for Active; 'I' for Inactive)
REMARK    1  A    between atoms: N1_1  and  C1_5
REMARK    2  A    between atoms: C1_5  and  C2_6
REMARK    3  A    between atoms: C2_6  and  C3_7
REMARK    4  A    between atoms: C5_9  and  C6_10
REMARK    5  A    between atoms: C8_12  and  N2_13
ROOT
HETATM    1  C3  UNL     1      75.366  39.066  78.320  1.00  0.00     0.029 A
HETATM    2  C4  UNL     1      74.352  39.947  78.648  1.00  0.00     0.055 A
HETATM    3  C5  UNL     1      73.780  40.432  77.502  1.00  0.00     0.058 A
HETATM    4  N4  UNL     1      74.446  39.846  76.489  1.00  0.00    -0.303 N
ATOM      5  H4  UNL     1      74.260  39.998  75.498  1.00  0.00     0.186 HD
HETATM    6  N5  UNL     1      75.386  39.036  76.979  1.00  0.00    -0.305 N
ATOM      7  H5  UNL     1      76.026  38.477  76.417  1.00  0.00     0.186 HD
ENDROOT
BRANCH   3   8
HETATM    8  C6  UNL     1      72.677  41.387  77.392  1.00  0.00     0.243 C
HETATM    9  C7  UNL     1      72.395  41.877  75.968  1.00  0.00     0.102 C
HETATM   10  C8  UNL     1      72.006  43.155  76.726  1.00  0.00     0.383 C
HETATM   11  N3  UNL     1      73.065  42.778  77.677  1.00  0.00    -0.036 N
ATOM     12  H32 UNL     1      73.090  43.145  78.629  1.00  0.00     0.280 HD
ATOM     13  H31 UNL     1      74.026  43.102  77.569  1.00  0.00     0.280 HD
BRANCH  10  14
HETATM   14  N2  UNL     1      70.700  43.071  77.335  1.00  0.00    -0.050 N
ATOM     15  H23 UNL     1      69.990  42.837  76.642  1.00  0.00     0.276 HD
ATOM     16  H22 UNL     1      70.629  42.247  77.931  1.00  0.00     0.276 HD
ATOM     17  H21 UNL     1      70.446  43.915  77.847  1.00  0.00     0.276 HD
ENDBRANCH  10  14
ENDBRANCH   3   8
BRANCH   1  18
HETATM   18  C2  UNL     1      76.247  38.310  79.249  1.00  0.00     0.085 C
BRANCH  18  19
HETATM   19  C1  UNL     1      75.996  38.906  80.642  1.00  0.00     0.235 C
BRANCH  19  20
HETATM   20  N1  UNL     1      77.098  39.820  80.894  1.00  0.00    -0.079 N
ATOM     21  H13 UNL     1      78.015  39.384  80.803  1.00  0.00     0.274 HD
ATOM     22  H12 UNL     1      77.219  40.521  80.164  1.00  0.00     0.274 HD
ATOM     23  H11 UNL     1      76.929  40.220  81.818  1.00  0.00     0.274 HD
ENDBRANCH  19  20
ENDBRANCH  18  19
ENDBRANCH   1  18
TORSDOF 5
ENDMDL