MODEL 3
REMARK VINA RESULT: -5.695841420      1.944      5.597
REMARK  4 active torsions:
REMARK  status: ('A' for Active; 'I' for Inactive)
REMARK    1  A    between atoms: C3_5  and  N2_6
REMARK    2  A    between atoms: N4_12  and  C5_14
REMARK    3  A    between atoms: C5_14  and  C6_15
REMARK    4  A    between atoms: C6_15  and  N5_16
ROOT
HETATM    1  C1  UNL     1      73.720  46.266  77.547  1.00  0.00     0.090 C
HETATM    2  C2  UNL     1      72.927  44.996  77.511  1.00  0.00     0.109 A
HETATM    3  N1  UNL     1      71.614  45.101  77.283  1.00  0.00    -0.180 N
ATOM      4  H1  UNL     1      71.195  46.020  77.142  1.00  0.00     0.185 HD
HETATM    5  C3  UNL     1      70.849  44.007  77.240  1.00  0.00     0.691 A
HETATM    6  N3  UNL     1      71.445  42.792  77.435  1.00  0.00    -0.022 N
ATOM      7  H3  UNL     1      70.860  41.957  77.402  1.00  0.00     0.203 HD
HETATM    8  C4  UNL     1      72.751  42.638  77.666  1.00  0.00     0.697 A
HETATM    9  N4  UNL     1      73.334  41.587  77.846  1.00  0.00    -0.203 N
ATOM     10  H4  UNL     1      74.313  41.832  77.993  1.00  0.00     0.183 HD
HETATM   11  N6  UNL     1      73.482  43.801  77.698  1.00  0.00    -0.180 N
ATOM     12  H6  UNL     1      74.486  43.747  77.871  1.00  0.00     0.185 HD
ENDROOT
BRANCH   9  13
HETATM   13  C5  UNL     1      73.270  40.223  77.941  1.00  0.00     0.106 C
BRANCH  13  14
HETATM   14  C6  UNL     1      74.325  39.594  78.806  1.00  0.00     0.274 C
BRANCH  14  15
HETATM   15  N5  UNL     1      75.451  40.513  79.016  1.00  0.00    -0.075 N
ATOM     16  H53 UNL     1      75.262  41.173  79.770  1.00  0.00     0.274 HD
ATOM     17  H52 UNL     1      76.255  40.036  79.425  1.00  0.00     0.274 HD
ATOM     18  H51 UNL     1      75.700  40.991  78.151  1.00  0.00     0.274 HD
ENDBRANCH  14  15
ENDBRANCH  13  14
ENDBRANCH   9  13
BRANCH   5  19
HETATM   19  N2  UNL     1      69.559  44.084  77.017  1.00  0.00    -0.234 N
ATOM     20  H22 UNL     1      69.131  43.537  76.271  1.00  0.00     0.174 HD
ATOM     21  H21 UNL     1      68.958  44.688  77.579  1.00  0.00     0.174 HD
ENDBRANCH   5  19
TORSDOF 4
ENDMDL