MODEL 3
REMARK VINA RESULT: -5.997222182      1.931      2.508
REMARK  5 active torsions:
REMARK  status: ('A' for Active; 'I' for Inactive)
REMARK    1  A    between atoms: C3_7  and  N3_8
REMARK    2  A    between atoms: N3_8  and  C4_10
REMARK    3  A    between atoms: C4_10  and  C5_11
REMARK    4  A    between atoms: C5_11  and  N4_12
REMARK    5  A    between atoms: C6_18  and  N6_19
ROOT
HETATM    1  C1  UNL     1      78.301  39.121  80.241  1.00  0.00     0.074 C
HETATM    2  C2  UNL     1      76.975  39.287  79.580  1.00  0.00     0.066 A
HETATM    3  N1  UNL     1      76.917  39.495  78.264  1.00  0.00    -0.287 N
ATOM      4  H1  UNL     1      77.767  39.542  77.701  1.00  0.00     0.187 HD
HETATM    5  N2  UNL     1      75.716  39.640  77.705  1.00  0.00    -0.132 N
ATOM      6  H2  UNL     1      75.652  39.800  76.699  1.00  0.00     0.205 HD
HETATM    7  C3  UNL     1      74.592  39.580  78.429  1.00  0.00     0.694 A
HETATM    8  N5  UNL     1      74.659  39.371  79.746  1.00  0.00    -0.174 N
ATOM      9  H5  UNL     1      73.797  39.327  80.290  1.00  0.00     0.186 HD
HETATM   10  C6  UNL     1      75.858  39.215  80.380  1.00  0.00     0.138 A
ENDROOT
BRANCH   7  11
HETATM   11  N3  UNL     1      73.460  39.723  77.857  1.00  0.00    -0.223 N
ATOM     12  H3  UNL     1      72.919  38.899  77.595  1.00  0.00     0.177 HD
BRANCH  11  13
HETATM   13  C4  UNL     1      72.947  41.024  77.578  1.00  0.00     0.165 C
BRANCH  13  14
HETATM   14  C5  UNL     1      72.882  41.332  76.101  1.00  0.00     0.249 C
BRANCH  14  15
HETATM   15  N4  UNL     1      73.418  40.296  75.284  1.00  0.00    -0.078 N
ATOM     16  H43 UNL     1      74.333  40.004  75.624  1.00  0.00     0.274 HD
ATOM     17  H42 UNL     1      72.903  39.426  75.418  1.00  0.00     0.274 HD
ATOM     18  H41 UNL     1      73.460  40.542  74.295  1.00  0.00     0.274 HD
ENDBRANCH  14  15
ENDBRANCH  13  14
ENDBRANCH  11  13
ENDBRANCH   7  11
BRANCH  10  19
HETATM   19  N6  UNL     1      75.943  39.014  81.641  1.00  0.00    -0.383 N
ATOM     20  H62 UNL     1      76.717  38.498  82.059  1.00  0.00     0.157 HD
ATOM     21  H61 UNL     1      75.238  39.364  82.290  1.00  0.00     0.157 HD
ENDBRANCH  10  19
TORSDOF 5
ENDMDL