MODEL 1
REMARK VINA RESULT: -5.753362366      0.000      0.000
REMARK  6 active torsions:
REMARK  status: ('A' for Active; 'I' for Inactive)
REMARK    1  A    between atoms: N1_1  and  C1_5
REMARK    2  A    between atoms: C1_5  and  C2_6
REMARK    3  A    between atoms: C2_6  and  N2_7
REMARK    4  A    between atoms: C2_6  and  C3_11
REMARK    5  A    between atoms: C3_11  and  N3_12
REMARK    6  A    between atoms: N3_12  and  C4_14
ROOT
HETATM    1  C2  UNL     1      72.662  41.254  76.419  1.00  0.00     0.226 C
ENDROOT
BRANCH   1   2
HETATM    2  C1  UNL     1      72.542  42.754  76.529  1.00  0.00     0.264 C
BRANCH   2   3
HETATM    3  N1  UNL     1      73.345  43.272  77.634  1.00  0.00    -0.077 N
ATOM      4  H13 UNL     1      72.792  43.370  78.486  1.00  0.00     0.274 HD
ATOM      5  H12 UNL     1      74.019  42.580  77.963  1.00  0.00     0.274 HD
ATOM      6  H11 UNL     1      73.802  44.148  77.381  1.00  0.00     0.274 HD
ENDBRANCH   2   3
ENDBRANCH   1   2
BRANCH   1   7
HETATM    7  N2  UNL     1      73.441  40.825  75.299  1.00  0.00    -0.072 N
ATOM      8  H23 UNL     1      73.296  39.831  75.119  1.00  0.00     0.274 HD
ATOM      9  H22 UNL     1      73.068  41.210  74.431  1.00  0.00     0.274 HD
ATOM     10  H21 UNL     1      74.435  41.035  75.390  1.00  0.00     0.274 HD
ENDBRANCH   1   7
BRANCH   1  11
HETATM   11  C3  UNL     1      73.226  40.739  77.723  1.00  0.00     0.155 C
BRANCH  11  12
HETATM   12  N3  UNL     1      74.155  39.685  77.442  1.00  0.00    -0.374 N
ATOM     13  H3  UNL     1      74.085  39.184  76.557  1.00  0.00     0.161 HD
BRANCH  12  14
HETATM   14  C4  UNL     1      75.085  39.351  78.289  1.00  0.00     0.100 A
HETATM   15  C5  UNL     1      75.809  38.197  78.161  1.00  0.00     0.048 A
HETATM   16  C6  UNL     1      76.780  37.887  79.077  1.00  0.00     0.005 A
HETATM   17  C7  UNL     1      77.053  38.722  80.144  1.00  0.00     0.017 A
HETATM   18  C8  UNL     1      76.310  39.876  80.246  1.00  0.00     0.089 A
HETATM   19  N4  UNL     1      75.362  40.156  79.333  1.00  0.00    -0.353 N
ATOM     20  H4  UNL     1      74.826  41.018  79.437  1.00  0.00     0.166 HD
ENDBRANCH  12  14
ENDBRANCH  11  12
ENDBRANCH   1  11
TORSDOF 6
ENDMDL