MODEL 5
REMARK VINA RESULT: -7.520838913      4.928      8.116
REMARK  7 active torsions:
REMARK  status: ('A' for Active; 'I' for Inactive)
REMARK    1  A    between atoms: C3_3  and  C4_4
REMARK    2  A    between atoms: C5_8  and  N2_9
REMARK    3  A    between atoms: N2_9  and  C6_11
REMARK    4  A    between atoms: C11_25  and  N7_26
REMARK    5  A    between atoms: N7_26  and  N8_27
REMARK    6  A    between atoms: N8_27  and  C12_29
REMARK    7  A    between atoms: N9_31  and  N10_32
ROOT
HETATM    1  C6  UNL     1     -14.198  -9.049  11.700  1.00  0.00     0.250 C
HETATM    2  N3  UNL     1     -13.908  -9.277  10.291  1.00  0.00    -0.199 N
ATOM      3  H3  UNL     1     -12.987  -9.099   9.888  1.00  0.00     0.180 HD
HETATM    4  C7  UNL     1     -15.008  -9.768   9.507  1.00  0.00     0.707 A
HETATM    5  N4  UNL     1     -14.993  -9.592   8.181  1.00  0.00    -0.175 N
ATOM      6  H4  UNL     1     -14.206  -9.115   7.739  1.00  0.00     0.186 HD
HETATM    7  C8  UNL     1     -16.029 -10.051   7.416  1.00  0.00     0.116 A
HETATM    8  N5  UNL     1     -16.007  -9.879   6.146  1.00  0.00    -0.385 N
ATOM      9  H51 UNL     1     -16.781 -10.222   5.576  1.00  0.00     0.157 HD
ATOM     10  H52 UNL     1     -15.237  -9.407   5.672  1.00  0.00     0.157 HD
HETATM   11  C9  UNL     1     -17.076 -10.693   8.061  1.00  0.00     0.069 A
HETATM   12  C10 UNL     1     -17.086 -10.869   9.407  1.00  0.00     0.146 A
HETATM   13  N6  UNL     1     -16.026 -10.390  10.118  1.00  0.00    -0.060 N
HETATM   14  O3  UNL     1     -16.007 -10.551  11.472  1.00  0.00    -0.232 OA
HETATM   15  C11 UNL     1     -14.799 -10.384  12.187  1.00  0.00     0.308 C
ENDROOT
BRANCH  15  16
HETATM   16  N7  UNL     1     -13.893 -11.438  11.781  1.00  0.00    -0.101 NA
BRANCH  16  17
HETATM   17  N8  UNL     1     -14.247 -12.672  12.320  1.00  0.00    -0.286 N
ATOM     18  H8  UNL     1     -14.234 -12.770  13.335  1.00  0.00     0.184 HD
BRANCH  17  19
HETATM   19  C12 UNL     1     -14.620 -13.791  11.558  1.00  0.00     0.136 A
HETATM   20  C13 UNL     1     -14.355 -15.106  11.867  1.00  0.00     0.167 A
HETATM   21  N9  UNL     1     -14.841 -15.935  10.943  1.00  0.00    -0.258 N
HETATM   22  C14 UNL     1     -15.431 -15.140  10.021  1.00  0.00     0.100 A
HETATM   23  C15 UNL     1     -16.123 -15.606   8.784  1.00  0.00     0.091 C
HETATM   24  N11 UNL     1     -15.298 -13.851  10.391  1.00  0.00    -0.329 N
ATOM     25  H11 UNL     1     -15.653 -13.049   9.871  1.00  0.00     0.168 HD
BRANCH  21  26
HETATM   26  N10 UNL     1     -14.766 -17.331  10.918  1.00  0.00    -0.338 N
ATOM     27 2H10 UNL     1     -14.133 -17.918  11.460  1.00  0.00     0.177 HD
ATOM     28 1H10 UNL     1     -15.324 -17.978  10.360  1.00  0.00     0.177 HD
ENDBRANCH  21  26
ENDBRANCH  17  19
ENDBRANCH  16  17
ENDBRANCH  15  16
BRANCH   1  29
HETATM   29  N2  UNL     1     -15.205  -8.052  11.832  1.00  0.00    -0.344 N
ATOM     30  H2  UNL     1     -16.168  -8.353  11.679  1.00  0.00     0.163 HD
BRANCH  29  31
HETATM   31  C5  UNL     1     -15.010  -6.681  12.153  1.00  0.00     0.171 A
HETATM   32  O2  UNL     1     -15.809  -5.931  12.902  1.00  0.00    -0.286 OA
HETATM   33  C3  UNL     1     -15.357  -4.713  13.015  1.00  0.00     0.150 A
HETATM   34  C2  UNL     1     -14.178  -4.600  12.310  1.00  0.00     0.006 A
HETATM   35  C1  UNL     1     -13.306  -3.404  12.152  1.00  0.00     0.053 C
HETATM   36  C16 UNL     1     -13.968  -5.872  11.762  1.00  0.00     0.106 A
HETATM   37  N12 UNL     1     -12.846  -6.175  10.977  1.00  0.00    -0.097 NA
BRANCH  33  38
HETATM   38  C4  UNL     1     -15.975  -3.618  13.760  1.00  0.00     0.289 C
HETATM   39  N1  UNL     1     -17.233  -3.138  13.311  1.00  0.00    -0.055 NA
HETATM   40  O1  UNL     1     -15.430  -3.111  14.760  1.00  0.00    -0.269 OA
ENDBRANCH  33  38
ENDBRANCH  29  31
ENDBRANCH   1  29
TORSDOF 7
ENDMDL