MODEL 5
REMARK VINA RESULT: -7.273424026      5.569      8.870
REMARK  10 active torsions:
REMARK  status: ('A' for Active; 'I' for Inactive)
REMARK    1  A    between atoms: C2_2  and  O1_4
REMARK    2  A    between atoms: C2_2  and  C4_6
REMARK    3  A    between atoms: C5_10  and  C6_11
REMARK       I    between atoms: C6_11  and  N2_13
REMARK    4  A    between atoms: N2_13  and  C7_15
REMARK    5  A    between atoms: C9_18  and  N4_19
REMARK    6  A    between atoms: N4_19  and  C10_21
REMARK    7  A    between atoms: C10_21  and  C13_24
REMARK    8  A    between atoms: C13_24  and  O4_25
REMARK    9  A    between atoms: C13_24  and  O5_27
REMARK   10  A    between atoms: C14_29  and  O6_30
ROOT
HETATM    1  C7  UNL     1     -14.761  -8.964  10.713  1.00  0.00     0.136 A
HETATM    2  C8  UNL     1     -15.958  -8.962   9.970  1.00  0.00     0.171 A
HETATM    3  N3  UNL     1     -16.661 -10.068   9.723  1.00  0.00    -0.204 N
HETATM    4  C9  UNL     1     -16.278 -11.307  10.174  1.00  0.00     0.162 A
HETATM    5  C14 UNL     1     -15.123 -11.340  10.897  1.00  0.00     0.164 A
HETATM    6  C15 UNL     1     -14.371 -10.171  11.163  1.00  0.00     0.239 A
HETATM    7  O7  UNL     1     -13.319 -10.276  11.838  1.00  0.00    -0.283 OA
HETATM    8  N5  UNL     1     -17.801  -9.725   8.950  1.00  0.00     0.002 NA
HETATM    9  N6  UNL     1     -18.010  -8.355   9.120  1.00  0.00    -0.007 NA
HETATM   10  N7  UNL     1     -16.688  -7.896   9.332  1.00  0.00    -0.268 N
ATOM     11  H7  UNL     1     -16.320  -6.979   9.080  1.00  0.00     0.185 HD
ENDROOT
BRANCH   1  12
HETATM   12  N2  UNL     1     -14.152  -7.726  10.910  1.00  0.00    -0.313 N
HETATM   13  C6  UNL     1     -12.854  -7.269  10.733  1.00  0.00     0.299 C
HETATM   14  O3  UNL     1     -11.906  -7.928  10.322  1.00  0.00    -0.263 OA
ATOM     15  H2  UNL     1     -14.791  -7.010  11.255  1.00  0.00     0.169 HD
BRANCH  13  16
HETATM   16  C5  UNL     1     -12.556  -5.853  11.065  1.00  0.00     0.240 A
HETATM   17  O2  UNL     1     -11.412  -5.297  11.322  1.00  0.00    -0.212 OA
HETATM   18  N1  UNL     1     -11.555  -4.033  11.569  1.00  0.00    -0.243 N
HETATM   19  C4  UNL     1     -12.855  -3.706  11.479  1.00  0.00     0.138 A
ATOM     20  H1  UNL     1     -10.799  -3.387  11.796  1.00  0.00     0.196 HD
HETATM   21  N8  UNL     1     -13.477  -4.853  11.162  1.00  0.00    -0.316 N
ATOM     22  H8  UNL     1     -14.481  -4.959  11.016  1.00  0.00     0.169 HD
BRANCH  19  23
HETATM   23  C2  UNL     1     -13.484  -2.377  11.683  1.00  0.00     0.110 C
HETATM   24  C1  UNL     1     -12.462  -1.288  11.936  1.00  0.00     0.054 C
HETATM   25  C3  UNL     1     -14.468  -2.426  12.828  1.00  0.00     0.054 C
BRANCH  23  26
HETATM   26  O1  UNL     1     -14.219  -2.043  10.541  1.00  0.00    -0.383 OA
ATOM     27  H1  UNL     1     -14.701  -2.811  10.256  1.00  0.00     0.211 HD
ENDBRANCH  23  26
ENDBRANCH  19  23
ENDBRANCH  13  16
ENDBRANCH   1  12
BRANCH   5  28
HETATM   28  O6  UNL     1     -14.580 -12.480  11.431  1.00  0.00    -0.354 OA
ATOM     29  H6  UNL     1     -14.048 -12.500  12.217  1.00  0.00     0.218 HD
ENDBRANCH   5  28
BRANCH   4  30
HETATM   30  N4  UNL     1     -17.044 -12.430   9.890  1.00  0.00    -0.359 N
ATOM     31  H4  UNL     1     -17.588 -12.743  10.695  1.00  0.00     0.162 HD
BRANCH  30  32
HETATM   32  C10 UNL     1     -17.251 -13.244   8.750  1.00  0.00     0.073 C
HETATM   33  C11 UNL     1     -16.553 -12.879   7.491  1.00  0.00     0.043 C
HETATM   34  C12 UNL     1     -18.722 -13.444   8.482  1.00  0.00     0.043 C
BRANCH  32  35
HETATM   35  C13 UNL     1     -16.755 -14.689   9.081  1.00  0.00     0.281 C
BRANCH  35  36
HETATM   36  O4  UNL     1     -16.394 -15.237   7.853  1.00  0.00    -0.369 OA
ATOM     37  H4  UNL     1     -15.536 -14.875   7.664  1.00  0.00     0.212 HD
ENDBRANCH  35  36
BRANCH  35  38
HETATM   38  O5  UNL     1     -15.646 -14.662   9.888  1.00  0.00    -0.369 OA
ATOM     39  H5  UNL     1     -14.863 -14.457   9.392  1.00  0.00     0.212 HD
ENDBRANCH  35  38
ENDBRANCH  32  35
ENDBRANCH  30  32
ENDBRANCH   4  30
TORSDOF 10
ENDMDL