MODEL 3
REMARK VINA RESULT: -7.145510261      1.355      1.894
REMARK  11 active torsions:
REMARK  status: ('A' for Active; 'I' for Inactive)
REMARK    1  A    between atoms: C2_2  and  N1_3
REMARK    2  A    between atoms: C4_10  and  O1_11
REMARK    3  A    between atoms: C6_14  and  O2_15
REMARK    4  A    between atoms: O2_15  and  C7_16
REMARK    5  A    between atoms: C7_16  and  C8_17
REMARK    6  A    between atoms: C8_17  and  S1_18
REMARK    7  A    between atoms: S1_18  and  C9_19
REMARK    8  A    between atoms: N4_25  and  N5_26
REMARK    9  A    between atoms: C11_30  and  C12_31
REMARK   10  A    between atoms: C12_31  and  O5_32
REMARK   11  A    between atoms: C12_31  and  O6_34
ROOT
HETATM    1  C1  UNL     1     -15.395 -11.614  10.656  1.00  0.00     0.093 C
HETATM    2  C2  UNL     1     -15.192 -10.157  10.404  1.00  0.00     0.284 C
HETATM    3  N2  UNL     1     -15.697  -9.305  11.454  1.00  0.00    -0.326 N
ATOM      4  H2  UNL     1     -16.491  -9.488  12.067  1.00  0.00     0.165 HD
HETATM    5  C3  UNL     1     -14.850  -8.144  11.458  1.00  0.00     0.158 A
HETATM    6  C4  UNL     1     -14.803  -6.833  11.872  1.00  0.00     0.127 A
HETATM    7  C5  UNL     1     -13.557  -6.321  11.478  1.00  0.00     0.071 A
HETATM    8  C6  UNL     1     -12.939  -5.102  11.600  1.00  0.00     0.125 A
HETATM    9  S2  UNL     1     -11.439  -5.358  10.833  1.00  0.00    -0.062 SA
HETATM   10  C11 UNL     1     -11.634  -6.995  10.382  1.00  0.00     0.069 A
HETATM   11  C13 UNL     1     -12.886  -7.294  10.853  1.00  0.00     0.089 A
HETATM   12  N6  UNL     1     -13.685  -8.408  10.843  1.00  0.00    -0.235 N
HETATM   13  N7  UNL     1     -13.784  -9.761  10.437  1.00  0.00    -0.070 NA
ENDROOT
BRANCH   8  14
HETATM   14  O2  UNL     1     -13.387  -3.908  12.198  1.00  0.00    -0.342 OA
BRANCH  14  15
HETATM   15  C7  UNL     1     -13.805  -2.836  11.363  1.00  0.00     0.187 C
BRANCH  15  16
HETATM   16  C8  UNL     1     -13.569  -1.512  12.027  1.00  0.00     0.109 C
BRANCH  16  17
HETATM   17  S1  UNL     1     -14.469  -1.324  13.563  1.00  0.00    -0.088 SA
BRANCH  17  18
HETATM   18  C9  UNL     1     -15.805  -2.455  13.774  1.00  0.00     0.191 A
HETATM   19  N3  UNL     1     -15.764  -3.765  14.102  1.00  0.00    -0.232 N
HETATM   20  O3  UNL     1     -16.971  -4.236  14.158  1.00  0.00    -0.177 OA
ATOM     21  H3  UNL     1     -14.913  -4.300  14.279  1.00  0.00     0.197 HD
HETATM   22  C10 UNL     1     -17.828  -3.280  13.876  1.00  0.00     0.410 A
HETATM   23  O4  UNL     1     -19.080  -3.391  13.839  1.00  0.00    -0.234 OA
HETATM   24  N4  UNL     1     -17.109  -2.158  13.633  1.00  0.00    -0.179 N
BRANCH  24  25
HETATM   25  N5  UNL     1     -17.725  -0.947  13.301  1.00  0.00    -0.332 N
ATOM     26  H52 UNL     1     -18.401  -0.879  12.541  1.00  0.00     0.177 HD
ATOM     27  H51 UNL     1     -17.619  -0.022  13.717  1.00  0.00     0.177 HD
ENDBRANCH  24  25
ENDBRANCH  17  18
ENDBRANCH  16  17
ENDBRANCH  15  16
ENDBRANCH  14  15
ENDBRANCH   8  14
BRANCH   6  28
HETATM   28  O1  UNL     1     -15.830  -6.165  12.558  1.00  0.00    -0.356 OA
ATOM     29  H1  UNL     1     -16.358  -5.461  12.201  1.00  0.00     0.218 HD
ENDBRANCH   6  28
BRANCH  10  30
HETATM   30  C12 UNL     1     -10.628  -7.840   9.656  1.00  0.00     0.297 C
BRANCH  30  31
HETATM   31  O5  UNL     1      -9.335  -7.336   9.766  1.00  0.00    -0.367 OA
ATOM     32  H5  UNL     1      -8.688  -8.022   9.872  1.00  0.00     0.213 HD
ENDBRANCH  30  31
BRANCH  30  33
HETATM   33  O6  UNL     1     -10.694  -9.148  10.119  1.00  0.00    -0.367 OA
ATOM     34  H6  UNL     1     -10.024  -9.671   9.696  1.00  0.00     0.213 HD
ENDBRANCH  30  33
ENDBRANCH  10  30
BRANCH   2  35
HETATM   35  N1  UNL     1     -15.696  -9.747   9.093  1.00  0.00    -0.036 N
ATOM     36  H13 UNL     1     -16.301 -10.463   8.689  1.00  0.00     0.279 HD
ATOM     37  H12 UNL     1     -16.374  -8.991   9.178  1.00  0.00     0.279 HD
ATOM     38  H11 UNL     1     -14.943  -9.496   8.452  1.00  0.00     0.279 HD
ENDBRANCH   2  35
TORSDOF 11
ENDMDL