MODEL 4
REMARK VINA RESULT: -8.843545460      1.782      2.243
REMARK  9 active torsions:
REMARK  status: ('A' for Active; 'I' for Inactive)
REMARK    1  A    between atoms: N1_1  and  N2_4
REMARK    2  A    between atoms: N2_4  and  C1_6
REMARK    3  A    between atoms: C3_8  and  N3_9
REMARK    4  A    between atoms: N3_9  and  C4_11
REMARK    5  A    between atoms: C4_11  and  C5_12
REMARK    6  A    between atoms: C5_12  and  N4_13
REMARK    7  A    between atoms: N4_13  and  C6_15
REMARK    8  A    between atoms: C6_15  and  C7_16
REMARK    9  A    between atoms: C8_17  and  O1_18
ROOT
HETATM    1  C1  UNL     1     -16.435  -9.580   9.238  1.00  0.00     0.052 C
HETATM    2  C2  UNL     1     -16.135  -8.475  10.028  1.00  0.00     0.079 C
HETATM    3  C3  UNL     1     -15.231  -8.316  11.045  1.00  0.00     0.104 C
HETATM    4  N7  UNL     1     -14.771  -9.279  11.889  1.00  0.00    -0.328 N
ATOM      5  H7  UNL     1     -14.382  -8.935  12.767  1.00  0.00     0.169 HD
HETATM    6  C11 UNL     1     -14.751 -10.618  11.738  1.00  0.00     0.121 A
HETATM    7  N8  UNL     1     -14.158 -11.516  12.546  1.00  0.00    -0.325 N
ATOM      8  H8  UNL     1     -13.638 -11.290  13.394  1.00  0.00     0.169 HD
HETATM    9  C12 UNL     1     -14.357 -12.765  12.064  1.00  0.00     0.152 A
HETATM   10  C13 UNL     1     -15.109 -12.685  10.894  1.00  0.00     0.108 A
HETATM   11  C14 UNL     1     -15.381 -11.353  10.647  1.00  0.00     0.041 A
HETATM   12  C15 UNL     1     -16.110 -10.880   9.564  1.00  0.00     0.048 C
HETATM   13  N9  UNL     1     -15.471 -13.850  10.165  1.00  0.00    -0.182 N
ATOM     14  H9  UNL     1     -16.021 -13.777   9.309  1.00  0.00     0.184 HD
HETATM   15  C16 UNL     1     -15.051 -15.119  10.650  1.00  0.00     0.736 A
HETATM   16  N10 UNL     1     -15.228 -16.395  10.199  1.00  0.00    -0.113 N
ATOM     17  H10 UNL     1     -15.738 -16.672   9.361  1.00  0.00     0.207 HD
HETATM   18  N11 UNL     1     -14.623 -17.200  11.040  1.00  0.00    -0.212 N
ATOM     19  H11 UNL     1     -14.578 -18.217  10.971  1.00  0.00     0.210 HD
HETATM   20  N12 UNL     1     -14.087 -16.463  11.985  1.00  0.00    -0.191 N
ATOM     21  H12 UNL     1     -13.554 -16.833  12.772  1.00  0.00     0.212 HD
HETATM   22  N13 UNL     1     -14.327 -15.178  11.781  1.00  0.00    -0.001 N
HETATM   23  N14 UNL     1     -13.955 -14.052  12.521  1.00  0.00    -0.246 N
ATOM     24  H14 UNL     1     -13.405 -14.151  13.374  1.00  0.00     0.191 HD
ENDROOT
BRANCH   3  25
HETATM   25  N3  UNL     1     -14.697  -7.045  11.282  1.00  0.00    -0.375 N
ATOM     26  H3  UNL     1     -13.924  -6.727  10.699  1.00  0.00     0.161 HD
BRANCH  25  27
HETATM   27  C4  UNL     1     -15.187  -6.166  12.311  1.00  0.00     0.141 C
BRANCH  27  28
HETATM   28  C5  UNL     1     -14.207  -5.127  12.746  1.00  0.00     0.138 C
BRANCH  28  29
HETATM   29  N4  UNL     1     -13.928  -4.234  11.656  1.00  0.00    -0.396 N
ATOM     30  H4  UNL     1     -13.692  -4.639  10.751  1.00  0.00     0.158 HD
BRANCH  29  31
HETATM   31  C6  UNL     1     -13.958  -2.973  11.755  1.00  0.00     0.104 C
BRANCH  31  32
HETATM   32  C7  UNL     1     -15.238  -2.346  12.154  1.00  0.00     0.098 A
HETATM   33  C8  UNL     1     -16.358  -2.532  11.352  1.00  0.00     0.158 A
HETATM   34  N5  UNL     1     -17.509  -1.953  11.732  1.00  0.00    -0.332 N
HETATM   35  C9  UNL     1     -17.589  -1.215  12.853  1.00  0.00     0.185 A
ATOM     36  H5  UNL     1     -18.342  -2.077  11.156  1.00  0.00     0.168 HD
HETATM   37  N6  UNL     1     -16.503  -1.044  13.617  1.00  0.00    -0.319 N
HETATM   38  C10 UNL     1     -15.337  -1.587  13.298  1.00  0.00     0.262 A
ATOM     39  H6  UNL     1     -16.575  -0.482  14.465  1.00  0.00     0.169 HD
HETATM   40  O2  UNL     1     -14.326  -1.413  14.030  1.00  0.00    -0.267 OA
BRANCH  33  41
HETATM   41  O1  UNL     1     -16.259  -3.293  10.204  1.00  0.00    -0.345 OA
ATOM     42  H1  UNL     1     -15.435  -3.325   9.731  1.00  0.00     0.219 HD
ENDBRANCH  33  41
ENDBRANCH  31  32
ENDBRANCH  29  31
ENDBRANCH  28  29
ENDBRANCH  27  28
ENDBRANCH  25  27
ENDBRANCH   3  25
BRANCH   1  43
HETATM   43  N2  UNL     1     -17.119  -9.340   8.022  1.00  0.00    -0.307 N
ATOM     44  H2  UNL     1     -18.040  -8.904   8.045  1.00  0.00     0.186 HD
BRANCH  43  45
HETATM   45  N1  UNL     1     -16.561  -9.686   6.796  1.00  0.00    -0.345 N
ATOM     46  H12 UNL     1     -16.951 -10.485   6.297  1.00  0.00     0.176 HD
ATOM     47  H11 UNL     1     -15.783  -9.161   6.398  1.00  0.00     0.176 HD
ENDBRANCH  43  45
ENDBRANCH   1  43
TORSDOF 9
ENDMDL