MODEL 4
REMARK VINA RESULT: -7.442383994      2.674      4.347
REMARK  11 active torsions:
REMARK  status: ('A' for Active; 'I' for Inactive)
REMARK    1  A    between atoms: N2_5  and  N3_6
REMARK    2  A    between atoms: C2_9  and  C3_10
REMARK    3  A    between atoms: C3_10  and  S1_11
REMARK    4  A    between atoms: S1_11  and  C4_12
REMARK    5  A    between atoms: C6_18  and  N6_19
REMARK    6  A    between atoms: N6_19  and  C7_21
REMARK    7  A    between atoms: C11_25  and  N7_26
REMARK    8  A    between atoms: C13_31  and  O1_32
REMARK    9  A    between atoms: C14_37  and  N10_38
REMARK   10  A    between atoms: N10_38  and  N11_40
REMARK   11  A    between atoms: N12_43  and  N13_44
ROOT
HETATM    1  C4  UNL     1     -15.478  -9.214  11.208  1.00  0.00     0.175 A
HETATM    2  N4  UNL     1     -16.071 -10.034  10.336  1.00  0.00    -0.167 N
ATOM      3  H4  UNL     1     -16.703  -9.739   9.592  1.00  0.00     0.186 HD
HETATM    4  C5  UNL     1     -15.714 -11.293  10.585  1.00  0.00     0.709 A
HETATM    5  N5  UNL     1     -15.990 -12.437   9.948  1.00  0.00    -0.175 N
ATOM      6  H5  UNL     1     -16.630 -12.414   9.154  1.00  0.00     0.186 HD
HETATM    7  C6  UNL     1     -15.441 -13.651  10.326  1.00  0.00     0.121 A
HETATM    8  C12 UNL     1     -14.600 -13.636  11.384  1.00  0.00     0.107 A
HETATM    9  C13 UNL     1     -14.323 -12.428  12.038  1.00  0.00     0.183 A
HETATM   10  N8  UNL     1     -14.875 -11.282  11.638  1.00  0.00    -0.061 N
HETATM   11  N9  UNL     1     -14.710 -10.054  12.044  1.00  0.00    -0.256 N
ATOM     12  H9  UNL     1     -14.130  -9.754  12.827  1.00  0.00     0.190 HD
ENDROOT
BRANCH   1  13
HETATM   13  S1  UNL     1     -15.327  -7.500  11.269  1.00  0.00    -0.086 SA
BRANCH  13  14
HETATM   14  C3  UNL     1     -14.874  -6.636  12.742  1.00  0.00     0.146 C
BRANCH  14  15
HETATM   15  C2  UNL     1     -14.255  -5.305  12.378  1.00  0.00     0.109 A
HETATM   16  N2  UNL     1     -13.287  -4.909  11.628  1.00  0.00    -0.091 N
HETATM   17  C1  UNL     1     -13.204  -3.542  11.666  1.00  0.00     0.719 A
HETATM   18  N1  UNL     1     -12.321  -2.796  11.033  1.00  0.00    -0.231 N
HETATM   19  N12 UNL     1     -14.155  -3.041  12.460  1.00  0.00    -0.071 N
ATOM     20  H12 UNL     1     -11.595  -3.178  10.428  1.00  0.00     0.174 HD
ATOM     21  H11 UNL     1     -12.259  -1.779  11.062  1.00  0.00     0.174 HD
HETATM   22  C14 UNL     1     -14.821  -4.117  12.911  1.00  0.00     0.185 A
BRANCH  16  23
HETATM   23  N3  UNL     1     -12.449  -5.665  10.788  1.00  0.00    -0.324 N
ATOM     24  H32 UNL     1     -11.915  -5.363   9.971  1.00  0.00     0.178 HD
ATOM     25  H31 UNL     1     -12.244  -6.643  10.990  1.00  0.00     0.178 HD
ENDBRANCH  16  23
BRANCH  19  26
HETATM   26  N13 UNL     1     -14.421  -1.703  12.829  1.00  0.00    -0.322 N
ATOM     27 2H13 UNL     1     -14.447  -0.910  12.188  1.00  0.00     0.178 HD
ATOM     28 1H13 UNL     1     -14.662  -1.309  13.737  1.00  0.00     0.178 HD
ENDBRANCH  19  26
BRANCH  22  29
HETATM   29  N10 UNL     1     -15.893  -4.183  13.819  1.00  0.00    -0.288 N
ATOM     30  H10 UNL     1     -15.665  -4.256  14.810  1.00  0.00     0.188 HD
BRANCH  29  31
HETATM   31  N11 UNL     1     -17.252  -4.156  13.469  1.00  0.00    -0.344 N
ATOM     32 2H11 UNL     1     -17.465  -4.236  12.475  1.00  0.00     0.176 HD
ATOM     33 1H11 UNL     1     -18.027  -4.064  14.127  1.00  0.00     0.176 HD
ENDBRANCH  29  31
ENDBRANCH  22  29
ENDBRANCH  14  15
ENDBRANCH  13  14
ENDBRANCH   1  13
BRANCH   9  34
HETATM   34  O1  UNL     1     -13.462 -12.387  13.118  1.00  0.00    -0.344 OA
ATOM     35  H1  UNL     1     -13.679 -12.826  13.933  1.00  0.00     0.219 HD
ENDBRANCH   9  34
BRANCH   7  36
HETATM   36  N6  UNL     1     -15.880 -14.765   9.591  1.00  0.00    -0.369 N
ATOM     37  H6  UNL     1     -15.318 -15.610   9.703  1.00  0.00     0.161 HD
BRANCH  36  38
HETATM   38  C7  UNL     1     -17.000 -14.888   8.710  1.00  0.00     0.113 C
HETATM   39  C8  UNL     1     -17.420 -16.384   8.796  1.00  0.00     0.027 C
HETATM   40  C9  UNL     1     -16.292 -16.968   7.963  1.00  0.00     0.004 C
HETATM   41  C10 UNL     1     -15.893 -15.873   6.957  1.00  0.00     0.035 C
HETATM   42  C11 UNL     1     -16.858 -14.775   7.244  1.00  0.00     0.206 C
BRANCH  42  43
HETATM   43  N7  UNL     1     -16.586 -13.495   6.707  1.00  0.00    -0.073 N
ATOM     44  H73 UNL     1     -16.029 -12.962   7.373  1.00  0.00     0.274 HD
ATOM     45  H72 UNL     1     -15.926 -13.589   5.935  1.00  0.00     0.274 HD
ATOM     46  H71 UNL     1     -17.379 -12.929   6.404  1.00  0.00     0.274 HD
ENDBRANCH  42  43
ENDBRANCH  36  38
ENDBRANCH   7  36
TORSDOF 11
ENDMDL