MODEL 1
REMARK VINA RESULT: -7.321239033      0.000      0.000
REMARK  12 active torsions:
REMARK  status: ('A' for Active; 'I' for Inactive)
REMARK    1  A    between atoms: C3_8  and  N3_9
REMARK    2  A    between atoms: C4_10  and  O2_11
REMARK    3  A    between atoms: C5_13  and  O3_14
REMARK    4  A    between atoms: C6_16  and  O4_17
REMARK    5  A    between atoms: C7_19  and  C8_20
REMARK    6  A    between atoms: N7_27  and  C9_28
REMARK    7  A    between atoms: C9_28  and  C10_29
REMARK    8  A    between atoms: C10_29  and  O5_30
REMARK    9  A    between atoms: C10_29  and  C11_32
REMARK   10  A    between atoms: C12_33  and  O6_34
REMARK   11  A    between atoms: C13_38  and  N9_39
REMARK   12  A    between atoms: C14_44  and  N11_45
ROOT
HETATM    1  C8  UNL     1     -13.853  -8.703  10.864  1.00  0.00     0.170 A
HETATM    2  N4  UNL     1     -12.862  -8.424   9.932  1.00  0.00    -0.267 N
ATOM      3  H4  UNL     1     -12.390  -9.118   9.353  1.00  0.00     0.190 HD
HETATM    4  N5  UNL     1     -12.629  -7.177   9.910  1.00  0.00    -0.226 N
ATOM      5  H5  UNL     1     -11.948  -6.707   9.314  1.00  0.00     0.210 HD
HETATM    6  N6  UNL     1     -13.411  -6.601  10.777  1.00  0.00    -0.224 N
ATOM      7  H6  UNL     1     -13.446  -5.602  10.978  1.00  0.00     0.210 HD
HETATM    8  N7  UNL     1     -14.174  -7.563  11.373  1.00  0.00    -0.252 N
ENDROOT
BRANCH   8   9
HETATM    9  C9  UNL     1     -15.067  -7.074  12.418  1.00  0.00     0.217 C
BRANCH   9  10
HETATM   10  C10 UNL     1     -15.719  -5.842  11.949  1.00  0.00     0.081 C
BRANCH  10  11
HETATM   11  O5  UNL     1     -16.442  -5.964  10.871  1.00  0.00    -0.362 OA
ATOM     12  H5  UNL     1     -16.030  -5.673  10.066  1.00  0.00     0.217 HD
ENDBRANCH  10  11
BRANCH  10  13
HETATM   13  C11 UNL     1     -15.643  -4.529  12.551  1.00  0.00     0.090 A
HETATM   14  C12 UNL     1     -14.566  -3.702  12.479  1.00  0.00     0.171 A
HETATM   15  N8  UNL     1     -14.559  -2.476  13.076  1.00  0.00    -0.170 N
HETATM   16  C13 UNL     1     -15.612  -2.024  13.761  1.00  0.00     0.679 A
ATOM     17  H8  UNL     1     -13.728  -1.890  12.997  1.00  0.00     0.186 HD
HETATM   18  N10 UNL     1     -16.688  -2.830  13.840  1.00  0.00    -0.176 N
HETATM   19  C14 UNL     1     -16.750  -4.039  13.276  1.00  0.00     0.131 A
ATOM     20  H10 UNL     1     -17.501  -2.498  14.360  1.00  0.00     0.186 HD
BRANCH  14  21
HETATM   21  O6  UNL     1     -13.372  -3.993  11.809  1.00  0.00    -0.345 OA
ATOM     22  H6  UNL     1     -12.773  -3.347  11.454  1.00  0.00     0.219 HD
ENDBRANCH  14  21
BRANCH  16  23
HETATM   23  N9  UNL     1     -15.565  -0.850  14.310  1.00  0.00    -0.234 N
ATOM     24  H92 UNL     1     -16.056  -0.039  13.933  1.00  0.00     0.174 HD
ATOM     25  H91 UNL     1     -15.013  -0.710  15.157  1.00  0.00     0.174 HD
ENDBRANCH  16  23
BRANCH  19  26
HETATM   26  N11 UNL     1     -17.821  -4.794  13.370  1.00  0.00    -0.384 N
ATOM     27 2H11 UNL     1     -18.755  -4.426  13.187  1.00  0.00     0.157 HD
ATOM     28 1H11 UNL     1     -17.706  -5.773  13.630  1.00  0.00     0.157 HD
ENDBRANCH  19  26
ENDBRANCH  10  13
ENDBRANCH   9  10
ENDBRANCH   8   9
BRANCH   1  29
HETATM   29  C7  UNL     1     -14.390 -10.040  11.026  1.00  0.00     0.126 A
HETATM   30  N3  UNL     1     -15.598 -10.374  10.457  1.00  0.00    -0.266 N
HETATM   31  C4  UNL     1     -15.964 -11.608  10.773  1.00  0.00     0.186 A
HETATM   32  C5  UNL     1     -15.010 -12.167  11.577  1.00  0.00     0.153 A
HETATM   33  C6  UNL     1     -14.012 -11.131  11.719  1.00  0.00     0.135 A
BRANCH  30  34
HETATM   34  C3  UNL     1     -16.414  -9.542   9.640  1.00  0.00     0.161 A
HETATM   35  C2  UNL     1     -16.499  -9.698   8.270  1.00  0.00     0.077 A
HETATM   36  C1  UNL     1     -15.777 -10.715   7.469  1.00  0.00     0.074 C
HETATM   37  N1  UNL     1     -17.355  -8.741   7.853  1.00  0.00    -0.242 N
HETATM   38  O1  UNL     1     -17.755  -8.056   8.896  1.00  0.00    -0.155 OA
ATOM     39  H1  UNL     1     -17.641  -8.578   6.887  1.00  0.00     0.196 HD
HETATM   40  N2  UNL     1     -17.212  -8.505   9.988  1.00  0.00    -0.223 N
ATOM     41  H2  UNL     1     -17.360  -8.144  10.931  1.00  0.00     0.198 HD
ENDBRANCH  30  34
BRANCH  31  42
HETATM   42  O2  UNL     1     -17.124 -12.291  10.385  1.00  0.00    -0.344 OA
ATOM     43  H2  UNL     1     -17.723 -12.786  10.931  1.00  0.00     0.219 HD
ENDBRANCH  31  42
BRANCH  32  44
HETATM   44  O3  UNL     1     -14.976 -13.418  12.137  1.00  0.00    -0.354 OA
ATOM     45  H3  UNL     1     -14.423 -13.748  12.835  1.00  0.00     0.218 HD
ENDBRANCH  32  44
BRANCH  33  46
HETATM   46  O4  UNL     1     -12.953 -11.437  12.472  1.00  0.00    -0.356 OA
ATOM     47  H4  UNL     1     -12.369 -10.718  12.681  1.00  0.00     0.218 HD
ENDBRANCH  33  46
ENDBRANCH   1  29
TORSDOF 12
ENDMDL