MODEL 5
REMARK VINA RESULT: -8.055676401      3.894      8.150
REMARK  10 active torsions:
REMARK  status: ('A' for Active; 'I' for Inactive)
REMARK    1  A    between atoms: O1_2  and  C2_3
REMARK    2  A    between atoms: C2_3  and  O2_4
REMARK    3  A    between atoms: C2_3  and  C3_6
REMARK    4  A    between atoms: C4_9  and  C5_10
REMARK    5  A    between atoms: C6_13  and  C7_14
REMARK    6  A    between atoms: C7_14  and  N3_15
REMARK    7  A    between atoms: N3_15  and  C8_17
REMARK    8  A    between atoms: C9_20  and  N5_21
REMARK    9  A    between atoms: C13_37  and  N10_38
REMARK   10  A    between atoms: C14_41  and  O5_42
ROOT
HETATM    1  C5  UNL     1     -14.849  -6.248  12.207  1.00  0.00     0.216 A
HETATM    2  N2  UNL     1     -14.451  -7.208  11.370  1.00  0.00    -0.314 N
ATOM      3  H2  UNL     1     -13.802  -7.100  10.591  1.00  0.00     0.169 HD
HETATM    4  C6  UNL     1     -15.063  -8.344  11.747  1.00  0.00     0.184 A
HETATM    5  N8  UNL     1     -15.808  -8.005  12.806  1.00  0.00    -0.240 N
ATOM      6  H8  UNL     1     -16.399  -8.655  13.325  1.00  0.00     0.196 HD
HETATM    7  O4  UNL     1     -15.685  -6.753  13.086  1.00  0.00    -0.214 OA
ENDROOT
BRANCH   1   8
HETATM    8  C4  UNL     1     -14.448  -4.856  12.187  1.00  0.00     0.162 A
HETATM    9  N1  UNL     1     -15.128  -3.967  12.940  1.00  0.00    -0.336 N
HETATM   10  C3  UNL     1     -14.803  -2.653  12.966  1.00  0.00     0.103 A
ATOM     11  H1  UNL     1     -15.911  -4.294  13.507  1.00  0.00     0.167 HD
HETATM   12  C14 UNL     1     -13.757  -2.221  12.206  1.00  0.00     0.137 A
HETATM   13  C13 UNL     1     -13.061  -3.137  11.432  1.00  0.00     0.136 A
HETATM   14  N9  UNL     1     -13.434  -4.408  11.457  1.00  0.00    -0.323 N
ATOM     15  H9  UNL     1     -12.917  -5.076  10.885  1.00  0.00     0.169 HD
BRANCH  10  16
HETATM   16  C2  UNL     1     -15.603  -1.755  13.825  1.00  0.00     0.310 C
BRANCH  16  17
HETATM   17  O1  UNL     1     -16.467  -0.972  13.020  1.00  0.00    -0.360 OA
HETATM   18  C1  UNL     1     -17.783  -1.453  13.110  1.00  0.00     0.205 C
ENDBRANCH  16  17
BRANCH  16  19
HETATM   19  O2  UNL     1     -14.714  -0.921  14.521  1.00  0.00    -0.366 OA
ATOM     20  H2  UNL     1     -14.655  -1.198  15.427  1.00  0.00     0.213 HD
ENDBRANCH  16  19
ENDBRANCH  10  16
BRANCH  12  21
HETATM   21  O5  UNL     1     -13.366  -0.913  12.175  1.00  0.00    -0.355 OA
ATOM     22  H5  UNL     1     -12.489  -0.638  12.418  1.00  0.00     0.218 HD
ENDBRANCH  12  21
BRANCH  13  23
HETATM   23  N10 UNL     1     -12.061  -2.757  10.699  1.00  0.00    -0.383 N
ATOM     24 2H10 UNL     1     -11.389  -3.437  10.343  1.00  0.00     0.157 HD
ATOM     25 1H10 UNL     1     -11.934  -1.772  10.466  1.00  0.00     0.157 HD
ENDBRANCH  13  23
ENDBRANCH   1   8
BRANCH   4  26
HETATM   26  C7  UNL     1     -14.859  -9.633  11.053  1.00  0.00     0.290 A
HETATM   27  N6  UNL     1     -13.524 -10.152  11.342  1.00  0.00    -0.302 N
HETATM   28  C12 UNL     1     -13.922 -11.161  11.997  1.00  0.00     0.235 A
ATOM     29  H6  UNL     1     -12.592  -9.817  11.100  1.00  0.00     0.168 HD
HETATM   30  N7  UNL     1     -13.371 -12.283  12.696  1.00  0.00    -0.056 NA
HETATM   31  O3  UNL     1     -15.230 -10.776  11.793  1.00  0.00    -0.266 OA
BRANCH  26  32
HETATM   32  N3  UNL     1     -15.164  -9.681   9.653  1.00  0.00    -0.319 N
ATOM     33  H3  UNL     1     -14.637  -9.079   9.021  1.00  0.00     0.166 HD
BRANCH  32  34
HETATM   34  C8  UNL     1     -16.195 -10.551   9.088  1.00  0.00     0.120 A
HETATM   35  N4  UNL     1     -16.028 -11.842   8.913  1.00  0.00    -0.322 N
HETATM   36  C9  UNL     1     -17.030 -12.555   8.398  1.00  0.00     0.144 A
ATOM     37  H4  UNL     1     -15.147 -12.290   9.166  1.00  0.00     0.169 HD
HETATM   38  S1  UNL     1     -18.246 -11.393   8.148  1.00  0.00    -0.056 SA
HETATM   39  C10 UNL     1     -17.413 -10.028   8.719  1.00  0.00     0.026 A
HETATM   40  C11 UNL     1     -17.893  -8.606   8.799  1.00  0.00     0.060 C
BRANCH  36  41
HETATM   41  N5  UNL     1     -17.036 -13.852   8.155  1.00  0.00    -0.380 N
ATOM     42  H52 UNL     1     -16.337 -14.561   8.372  1.00  0.00     0.158 HD
ATOM     43  H51 UNL     1     -17.773 -14.384   7.692  1.00  0.00     0.158 HD
ENDBRANCH  36  41
ENDBRANCH  32  34
ENDBRANCH  26  32
ENDBRANCH   4  26
TORSDOF 10
ENDMDL