MODEL 1
REMARK VINA RESULT: -9.869570539      0.000      0.000
REMARK  8 active torsions:
REMARK  status: ('A' for Active; 'I' for Inactive)
REMARK    1  A    between atoms: C4_11  and  C5_12
REMARK    2  A    between atoms: C5_12  and  N5_13
REMARK    3  A    between atoms: C6_16  and  C7_17
REMARK    4  A    between atoms: C8_22  and  S1_23
REMARK    5  A    between atoms: S1_23  and  C9_24
REMARK    6  A    between atoms: C9_24  and  C10_25
REMARK       I    between atoms: C10_25  and  N8_27
REMARK    7  A    between atoms: N8_27  and  C11_29
REMARK    8  A    between atoms: C13_37  and  N12_38
ROOT
HETATM    1  N5  UNL     1     -13.547 -12.067  13.340  1.00  0.00    -0.296 NA
HETATM    2  O1  UNL     1     -13.552 -12.857  14.303  1.00  0.00    -0.219 OA
ATOM      3  H1  UNL     1     -13.537 -13.457  15.040  1.00  0.00     0.261 HD
ENDROOT
BRANCH   1   4
HETATM    4  C5  UNL     1     -13.566 -11.311  12.411  1.00  0.00     0.232 C
BRANCH   4   5
HETATM    5  C4  UNL     1     -14.444 -11.405  11.249  1.00  0.00     0.041 A
HETATM    6  C3  UNL     1     -15.045 -12.615  10.900  1.00  0.00     0.101 A
HETATM    7  C2  UNL     1     -15.950 -12.754   9.861  1.00  0.00     0.143 A
HETATM    8  N4  UNL     1     -14.716 -13.773  11.650  1.00  0.00    -0.098 NA
HETATM    9  N2  UNL     1     -16.260 -11.665   9.161  1.00  0.00    -0.329 N
HETATM   10  N3  UNL     1     -16.507 -14.045   9.599  1.00  0.00    -0.081 NA
HETATM   11  C1  UNL     1     -15.707 -10.464   9.450  1.00  0.00     0.115 A
ATOM     12  H2  UNL     1     -16.926 -11.737   8.392  1.00  0.00     0.168 HD
HETATM   13  N1  UNL     1     -16.068  -9.523   8.657  1.00  0.00    -0.385 N
HETATM   14  C6  UNL     1     -14.798 -10.317  10.490  1.00  0.00     0.075 A
ATOM     15  H12 UNL     1     -16.736  -9.631   7.893  1.00  0.00     0.157 HD
ATOM     16  H11 UNL     1     -15.652  -8.618   8.875  1.00  0.00     0.157 HD
BRANCH  14  17
HETATM   17  C7  UNL     1     -14.330  -8.983  10.775  1.00  0.00     0.180 A
HETATM   18  N6  UNL     1     -14.999  -8.004  11.386  1.00  0.00    -0.276 N
HETATM   19  N7  UNL     1     -14.229  -6.959  11.474  1.00  0.00    -0.272 N
ATOM     20  H6  UNL     1     -15.957  -8.065  11.727  1.00  0.00     0.189 HD
HETATM   21  C8  UNL     1     -13.024  -7.255  10.904  1.00  0.00     0.204 A
ATOM     22  H7  UNL     1     -14.483  -6.068  11.898  1.00  0.00     0.189 HD
HETATM   23  O4  UNL     1     -13.134  -8.469  10.504  1.00  0.00    -0.267 OA
BRANCH  21  24
HETATM   24  S1  UNL     1     -11.721  -6.061  10.843  1.00  0.00    -0.075 SA
BRANCH  24  25
HETATM   25  C9  UNL     1     -12.113  -4.508  11.694  1.00  0.00     0.186 C
BRANCH  25  26
HETATM   26  C10 UNL     1     -12.680  -3.605  10.672  1.00  0.00     0.233 C
HETATM   27  O2  UNL     1     -12.243  -3.657   9.458  1.00  0.00    -0.272 OA
HETATM   28  N8  UNL     1     -13.685  -2.652  10.918  1.00  0.00    -0.309 N
ATOM     29  H8  UNL     1     -13.980  -2.058  10.143  1.00  0.00     0.170 HD
BRANCH  28  30
HETATM   30  C11 UNL     1     -14.312  -2.466  12.168  1.00  0.00     0.160 A
HETATM   31  N9  UNL     1     -13.961  -1.601  13.112  1.00  0.00    -0.223 N
HETATM   32  O3  UNL     1     -14.582  -1.513  14.232  1.00  0.00    -0.154 OA
ATOM     33  H9  UNL     1     -13.169  -0.983  12.940  1.00  0.00     0.198 HD
HETATM   34  N10 UNL     1     -15.602  -2.242  14.562  1.00  0.00    -0.225 N
HETATM   35  C12 UNL     1     -16.037  -3.152  13.672  1.00  0.00     0.168 A
ATOM     36  H10 UNL     1     -16.059  -2.130  15.467  1.00  0.00     0.198 HD
HETATM   37  N11 UNL     1     -17.167  -3.986  13.954  1.00  0.00    -0.078 NA
HETATM   38  C13 UNL     1     -15.414  -3.298  12.453  1.00  0.00     0.115 A
BRANCH  38  39
HETATM   39  N12 UNL     1     -15.814  -4.146  11.592  1.00  0.00    -0.393 N
ATOM     40 2H12 UNL     1     -16.119  -3.864  10.660  1.00  0.00     0.156 HD
ATOM     41 1H12 UNL     1     -15.829  -5.140  11.820  1.00  0.00     0.156 HD
ENDBRANCH  38  39
ENDBRANCH  28  30
ENDBRANCH  25  26
ENDBRANCH  24  25
ENDBRANCH  21  24
ENDBRANCH  14  17
ENDBRANCH   4   5
ENDBRANCH   1   4
TORSDOF 8
ENDMDL