MODEL 3
REMARK VINA RESULT: -8.274877281      2.024      2.671
REMARK  12 active torsions:
REMARK  status: ('A' for Active; 'I' for Inactive)
REMARK    1  A    between atoms: C2_3  and  O1_4
REMARK    2  A    between atoms: C3_8  and  N3_9
REMARK    3  A    between atoms: N4_11  and  C4_13
REMARK    4  A    between atoms: C4_13  and  C5_14
REMARK    5  A    between atoms: C4_13  and  C10_32
REMARK    6  A    between atoms: C5_14  and  O2_15
REMARK    7  A    between atoms: O2_15  and  C6_16
REMARK    8  A    between atoms: C6_16  and  C7_18
REMARK    9  A    between atoms: C7_18  and  N5_19
REMARK   10  A    between atoms: C8_22  and  N7_23
REMARK   11  A    between atoms: C12_34  and  O4_35
REMARK   12  A    between atoms: C13_37  and  O5_38
ROOT
HETATM    1  N1  UNL     1      -7.342 -10.632  10.633  1.00  0.00    -0.190 NA
HETATM    2  C1  UNL     1      -8.282 -10.060  11.029  1.00  0.00     0.142 C
HETATM    3  C2  UNL     1      -9.457  -9.350  11.497  1.00  0.00     0.324 C
HETATM    4  N2  UNL     1     -10.501  -9.523  10.511  1.00  0.00    -0.300 N
ATOM      5  H2  UNL     1     -10.781 -10.421  10.115  1.00  0.00     0.168 HD
HETATM    6  C3  UNL     1     -11.029  -8.390  10.201  1.00  0.00     0.210 C
HETATM    7  N10 UNL     1     -10.377  -7.377  10.957  1.00  0.00    -0.269 N
ATOM      8  H10 UNL     1     -10.683  -6.407  11.029  1.00  0.00     0.185 HD
HETATM    9  N11 UNL     1      -9.237  -7.922  11.593  1.00  0.00    -0.062 NA
ENDROOT
BRANCH   3  10
HETATM   10  O1  UNL     1      -9.809  -9.816  12.744  1.00  0.00    -0.344 OA
ATOM     11  H1  UNL     1     -10.314 -10.616  12.653  1.00  0.00     0.215 HD
ENDBRANCH   3  10
BRANCH   6  12
HETATM   12  N3  UNL     1     -12.080  -8.145   9.273  1.00  0.00    -0.274 N
HETATM   13  N4  UNL     1     -13.307  -8.134   9.593  1.00  0.00    -0.322 N
ATOM     14  H4  UNL     1     -13.987  -7.947   8.857  1.00  0.00     0.181 HD
ATOM     15  H3  UNL     1     -11.833  -7.970   8.299  1.00  0.00     0.189 HD
BRANCH  13  16
HETATM   16  C4  UNL     1     -13.798  -8.361  10.901  1.00  0.00     0.163 C
BRANCH  16  17
HETATM   17  C5  UNL     1     -14.767  -7.399  11.462  1.00  0.00     0.210 C
BRANCH  17  18
HETATM   18  O2  UNL     1     -14.331  -6.304  12.156  1.00  0.00    -0.318 OA
BRANCH  18  19
HETATM   19  C6  UNL     1     -13.585  -5.230  11.826  1.00  0.00     0.279 C
HETATM   20  O3  UNL     1     -12.576  -5.410  11.109  1.00  0.00    -0.263 OA
BRANCH  19  21
HETATM   21  C7  UNL     1     -13.879  -3.825  12.257  1.00  0.00     0.279 C
BRANCH  21  22
HETATM   22  N5  UNL     1     -14.731  -3.151  11.315  1.00  0.00    -0.100 N
HETATM   23  N6  UNL     1     -14.414  -2.830  10.076  1.00  0.00    -0.115 N
HETATM   24  C8  UNL     1     -15.467  -2.204   9.487  1.00  0.00     0.705 A
ATOM     25  H6  UNL     1     -13.517  -3.022   9.629  1.00  0.00     0.206 HD
HETATM   26  N8  UNL     1     -16.454  -2.135  10.378  1.00  0.00    -0.020 N
HETATM   27  C9  UNL     1     -15.988  -2.723  11.504  1.00  0.00     0.708 A
ATOM     28  H8  UNL     1     -17.376  -1.723  10.239  1.00  0.00     0.203 HD
HETATM   29  N9  UNL     1     -16.693  -2.838  12.594  1.00  0.00    -0.233 N
ATOM     30  H92 UNL     1     -16.342  -3.282  13.443  1.00  0.00     0.174 HD
ATOM     31  H91 UNL     1     -17.649  -2.513  12.737  1.00  0.00     0.174 HD
BRANCH  24  32
HETATM   32  N7  UNL     1     -15.509  -1.756   8.289  1.00  0.00    -0.233 N
ATOM     33  H72 UNL     1     -15.695  -0.790   8.021  1.00  0.00     0.174 HD
ATOM     34  H71 UNL     1     -15.363  -2.296   7.437  1.00  0.00     0.174 HD
ENDBRANCH  24  32
ENDBRANCH  21  22
ENDBRANCH  19  21
ENDBRANCH  18  19
ENDBRANCH  17  18
ENDBRANCH  16  17
BRANCH  16  35
HETATM   35  C10 UNL     1     -14.251  -9.791  11.089  1.00  0.00     0.014 A
HETATM   36  C11 UNL     1     -13.732 -10.747  11.911  1.00  0.00     0.056 A
HETATM   37  C12 UNL     1     -14.310 -11.955  11.904  1.00  0.00     0.107 A
HETATM   38  C13 UNL     1     -15.383 -12.133  11.070  1.00  0.00     0.141 A
HETATM   39  S1  UNL     1     -15.540 -10.607  10.328  1.00  0.00    -0.065 SA
BRANCH  37  40
HETATM   40  O4  UNL     1     -13.887 -13.051  12.700  1.00  0.00    -0.357 OA
ATOM     41  H4  UNL     1     -13.443 -13.821  12.362  1.00  0.00     0.217 HD
ENDBRANCH  37  40
BRANCH  38  42
HETATM   42  O5  UNL     1     -16.167 -13.260  10.859  1.00  0.00    -0.352 OA
ATOM     43  H5  UNL     1     -15.908 -14.167  10.738  1.00  0.00     0.218 HD
ENDBRANCH  38  42
ENDBRANCH  16  35
ENDBRANCH  13  16
ENDBRANCH   6  12
TORSDOF 12
ENDMDL