MODEL 5
REMARK VINA RESULT: -8.008506792      1.475      2.162
REMARK  12 active torsions:
REMARK  status: ('A' for Active; 'I' for Inactive)
REMARK    1  A    between atoms: C4_7  and  O4_8
REMARK    2  A    between atoms: C6_11  and  N1_12
REMARK    3  A    between atoms: N1_12  and  C7_14
REMARK    4  A    between atoms: C7_14  and  C8_15
REMARK    5  A    between atoms: C9_16  and  C10_17
REMARK    6  A    between atoms: C10_17  and  O5_18
REMARK    7  A    between atoms: C10_17  and  O6_20
REMARK    8  A    between atoms: C11_23  and  C12_24
REMARK    9  A    between atoms: C12_24  and  O8_25
REMARK   10  A    between atoms: C12_24  and  O9_27
REMARK   11  A    between atoms: C13_29  and  O10_30
REMARK   12  A    between atoms: C15_34  and  O12_35
ROOT
HETATM    1  C8  UNL     1     -14.523  -6.592  11.961  1.00  0.00     0.067 A
HETATM    2  C9  UNL     1     -13.288  -6.452  11.311  1.00  0.00     0.123 A
HETATM    3  O7  UNL     1     -12.732  -5.269  11.186  1.00  0.00    -0.305 OA
HETATM    4  C11 UNL     1     -13.214  -4.136  11.617  1.00  0.00     0.144 A
HETATM    5  C13 UNL     1     -14.414  -4.168  12.264  1.00  0.00     0.152 A
HETATM    6  C14 UNL     1     -15.064  -5.433  12.428  1.00  0.00     0.221 A
HETATM    7  O11 UNL     1     -16.160  -5.410  13.027  1.00  0.00    -0.284 OA
ENDROOT
BRANCH   1   8
HETATM    8  C7  UNL     1     -15.080  -7.917  12.094  1.00  0.00     0.106 C
BRANCH   8   9
HETATM    9  N1  UNL     1     -15.389  -8.688  10.922  1.00  0.00    -0.363 N
ATOM     10  H1  UNL     1     -15.730  -8.263  10.059  1.00  0.00     0.165 HD
BRANCH   9  11
HETATM   11  C6  UNL     1     -15.178 -10.115  11.059  1.00  0.00     0.071 A
HETATM   12  C5  UNL     1     -14.405 -10.648  12.065  1.00  0.00     0.070 A
HETATM   13  C4  UNL     1     -14.208 -12.016  12.194  1.00  0.00     0.087 A
HETATM   14  C3  UNL     1     -14.795 -12.875  11.298  1.00  0.00     0.110 A
HETATM   15  C2  UNL     1     -14.642 -14.253  11.366  1.00  0.00     0.308 A
HETATM   16  C16 UNL     1     -15.569 -12.348  10.290  1.00  0.00     0.136 A
HETATM   17  O2  UNL     1     -15.226 -15.024  10.483  1.00  0.00    -0.216 OA
HETATM   18  O3  UNL     1     -13.940 -14.707  12.282  1.00  0.00    -0.258 OA
HETATM   19  C1  UNL     1     -15.955 -14.481   9.540  1.00  0.00     0.419 A
HETATM   20  O1  UNL     1     -16.489 -15.282   8.722  1.00  0.00    -0.229 OA
HETATM   21  O13 UNL     1     -16.121 -13.179   9.446  1.00  0.00    -0.251 OA
HETATM   22  C15 UNL     1     -15.756 -10.963  10.176  1.00  0.00     0.128 A
BRANCH  13  23
HETATM   23  O4  UNL     1     -13.430 -12.551  13.205  1.00  0.00    -0.359 OA
ATOM     24  H4  UNL     1     -12.954 -11.954  13.771  1.00  0.00     0.217 HD
ENDBRANCH  13  23
BRANCH  22  25
HETATM   25  O12 UNL     1     -16.547 -10.568   9.133  1.00  0.00    -0.356 OA
ATOM     26  H12 UNL     1     -16.401  -9.783   8.618  1.00  0.00     0.218 HD
ENDBRANCH  22  25
ENDBRANCH   9  11
ENDBRANCH   8   9
ENDBRANCH   1   8
BRANCH   2  27
HETATM   27  C10 UNL     1     -12.617  -7.652  10.765  1.00  0.00     0.313 C
BRANCH  27  28
HETATM   28  O5  UNL     1     -11.258  -7.646  10.946  1.00  0.00    -0.365 OA
ATOM     29  H5  UNL     1     -10.768  -7.754  10.139  1.00  0.00     0.213 HD
ENDBRANCH  27  28
BRANCH  27  30
HETATM   30  O6  UNL     1     -12.900  -7.673   9.373  1.00  0.00    -0.365 OA
ATOM     31  H6  UNL     1     -12.062  -7.630   8.927  1.00  0.00     0.213 HD
ENDBRANCH  27  30
ENDBRANCH   2  27
BRANCH   5  32
HETATM   32  O10 UNL     1     -15.056  -3.101  12.777  1.00  0.00    -0.355 OA
ATOM     33  H10 UNL     1     -15.092  -2.869  13.698  1.00  0.00     0.218 HD
ENDBRANCH   5  32
BRANCH   4  34
HETATM   34  C12 UNL     1     -12.442  -2.867  11.380  1.00  0.00     0.315 C
BRANCH  34  35
HETATM   35  O8  UNL     1     -11.719  -3.088  10.157  1.00  0.00    -0.365 OA
ATOM     36  H8  UNL     1     -10.810  -2.912  10.369  1.00  0.00     0.213 HD
ENDBRANCH  34  35
BRANCH  34  37
HETATM   37  O9  UNL     1     -13.314  -1.840  11.120  1.00  0.00    -0.365 OA
ATOM     38  H9  UNL     1     -13.184  -1.530  10.231  1.00  0.00     0.213 HD
ENDBRANCH  34  37
ENDBRANCH   4  34
TORSDOF 12
ENDMDL