MODEL 4
REMARK VINA RESULT: -6.651437195      1.293      1.497
REMARK  3 active torsions:
REMARK  status: ('A' for Active; 'I' for Inactive)
REMARK    1  A    between atoms: C6_6  and  O1_7
REMARK    2  A    between atoms: O1_7  and  C7_8
REMARK       I    between atoms: C7_8  and  N1_10
REMARK       I    between atoms: N1_10  and  C8_12
REMARK    3  A    between atoms: C9_18  and  C10_19
ROOT
HETATM    1  C1  UNL     1     -40.622 -68.333  -3.164  1.00  0.00     0.050 C
HETATM    2  C2  UNL     1     -39.991 -69.082  -2.026  1.00  0.00     0.152 C
HETATM    3  C3  UNL     1     -39.269 -68.031  -1.166  1.00  0.00     0.044 C
HETATM    4  C4  UNL     1     -39.433 -68.519   0.257  1.00  0.00     0.041 C
HETATM    5  C5  UNL     1     -40.056 -69.884   0.040  1.00  0.00     0.246 C
HETATM    6  C6  UNL     1     -39.038 -70.929  -0.316  1.00  0.00     0.302 C
HETATM    7  O3  UNL     1     -38.427 -70.824  -1.512  1.00  0.00    -0.350 OA
HETATM    8  C9  UNL     1     -38.933 -70.027  -2.482  1.00  0.00     0.170 C
HETATM    9  N4  UNL     1     -40.928 -69.605  -1.088  1.00  0.00    -0.055 N
HETATM   10  C11 UNL     1     -41.688 -70.734  -1.517  1.00  0.00     0.273 C
HETATM   11  C12 UNL     1     -41.869 -68.562  -0.742  1.00  0.00     0.273 C
ENDROOT
BRANCH   6  12
HETATM   12  O1  UNL     1     -38.034 -70.931   0.680  1.00  0.00    -0.270 OA
BRANCH  12  13
HETATM   13  C7  UNL     1     -37.803 -72.092   1.398  1.00  0.00     0.369 C
HETATM   14  O2  UNL     1     -38.013 -73.211   0.854  1.00  0.00    -0.238 OA
HETATM   15  N1  UNL     1     -37.333 -72.081   2.744  1.00  0.00    -0.277 N
HETATM   16  C8  UNL     1     -37.118 -73.306   3.422  1.00  0.00     0.190 C
ATOM     17  H1  UNL     1     -37.151 -71.196   3.217  1.00  0.00     0.173 HD
HETATM   18  N2  UNL     1     -36.693 -73.277   4.638  1.00  0.00    -0.373 N
HETATM   19  N3  UNL     1     -37.341 -74.572   2.846  1.00  0.00    -0.064 NA
ATOM     20  H22 UNL     1     -36.532 -72.361   5.055  1.00  0.00     0.158 HD
ATOM     21  H21 UNL     1     -36.539 -74.159   5.126  1.00  0.00     0.158 HD
ENDBRANCH  12  13
ENDBRANCH   6  12
BRANCH   8  22
HETATM   22  C10 UNL     1     -39.287 -70.758  -3.759  1.00  0.00     0.120 C
HETATM   23 BR1  UNL     1     -38.307 -72.441  -3.867  1.00  0.00    -0.094 Br
ENDBRANCH   8  22
TORSDOF 3
ENDMDL