MODEL 3
REMARK VINA RESULT: -6.216918165      4.401      6.335
REMARK  4 active torsions:
REMARK  status: ('A' for Active; 'I' for Inactive)
REMARK    1  A    between atoms: C2_2  and  N1_5
REMARK       I    between atoms: N1_5  and  C5_7
REMARK       I    between atoms: C5_7  and  N2_9
REMARK    2  A    between atoms: N2_9  and  S1_11
REMARK    3  A    between atoms: S1_11  and  C6_14
REMARK    4  A    between atoms: C10_19  and  C12_21
ROOT
HETATM    1  S1  UNL     1     -41.442 -71.507  -2.011  1.00  0.00     0.246 S
HETATM    2  O2  UNL     1     -41.841 -70.953  -0.678  1.00  0.00    -0.205 OA
HETATM    3  O3  UNL     1     -42.459 -72.608  -2.307  1.00  0.00    -0.205 OA
ENDROOT
BRANCH   1   4
HETATM    4  N2  UNL     1     -39.931 -72.273  -1.865  1.00  0.00    -0.235 N
HETATM    5  C5  UNL     1     -38.996 -72.030  -0.822  1.00  0.00     0.330 C
HETATM    6  N1  UNL     1     -37.752 -72.706  -0.767  1.00  0.00    -0.334 N
HETATM    7  O1  UNL     1     -39.216 -71.205   0.107  1.00  0.00    -0.246 OA
ATOM      8  H1  UNL     1     -37.541 -73.380  -1.503  1.00  0.00     0.165 HD
ATOM      9  H2  UNL     1     -39.676 -72.957  -2.577  1.00  0.00     0.183 HD
BRANCH   6  10
HETATM   10  C2  UNL     1     -36.773 -72.501   0.260  1.00  0.00     0.023 C
HETATM   11  C1  UNL     1     -36.184 -71.089   0.189  1.00  0.00     0.037 C
HETATM   12  C3  UNL     1     -37.317 -72.672   1.662  1.00  0.00     0.037 C
HETATM   13  C4  UNL     1     -35.619 -73.443  -0.003  1.00  0.00     0.037 C
ENDBRANCH   6  10
ENDBRANCH   1   4
BRANCH   1  14
HETATM   14  C6  UNL     1     -41.515 -70.309  -3.292  1.00  0.00     0.207 C
HETATM   15  C7  UNL     1     -41.916 -69.005  -2.634  1.00  0.00     0.147 C
HETATM   16  O4  UNL     1     -42.998 -68.495  -2.565  1.00  0.00    -0.296 OA
HETATM   17  C8  UNL     1     -40.644 -68.471  -2.070  1.00  0.00     0.080 C
HETATM   18  C9  UNL     1     -39.531 -69.150  -2.804  1.00  0.00     0.019 C
HETATM   19  C10 UNL     1     -40.213 -69.922  -3.887  1.00  0.00    -0.009 C
HETATM   20  C11 UNL     1     -40.525 -68.919  -5.006  1.00  0.00     0.018 C
BRANCH  19  21
HETATM   21  C12 UNL     1     -39.394 -71.022  -4.472  1.00  0.00     0.096 C
HETATM   22 BR1  UNL     1     -40.397 -72.011  -5.795  1.00  0.00    -0.096 Br
ENDBRANCH  19  21
ENDBRANCH   1  14
TORSDOF 4
ENDMDL