MODEL 2
REMARK VINA RESULT: -7.766191440      3.009      7.164
REMARK  7 active torsions:
REMARK  status: ('A' for Active; 'I' for Inactive)
REMARK    1  A    between atoms: C3_3  and  C4_4
REMARK    2  A    between atoms: C5_6  and  C6_7
REMARK    3  A    between atoms: C7_10  and  N2_11
REMARK    4  A    between atoms: N2_11  and  C8_13
REMARK    5  A    between atoms: C11_19  and  C12_20
REMARK    6  A    between atoms: C13_21  and  C14_22
REMARK    7  A    between atoms: C14_22  and  N4_23
ROOT
HETATM    1  C1  UNL     1     -35.317 -78.244   6.408  1.00  0.00     0.112 C
HETATM    2  C2  UNL     1     -35.338 -78.008   4.970  1.00  0.00    -0.105 C
HETATM    3  C3  UNL     1     -35.337 -77.822   3.760  1.00  0.00    -0.060 C
ENDROOT
BRANCH   3   4
HETATM    4  C4  UNL     1     -35.369 -77.603   2.361  1.00  0.00     0.066 C
HETATM    5 BR1  UNL     1     -34.756 -79.031   1.226  1.00  0.00    -0.041 Br
HETATM    6  C5  UNL     1     -35.793 -76.487   1.829  1.00  0.00     0.060 C
BRANCH   6   7
HETATM    7  C6  UNL     1     -36.276 -75.337   2.555  1.00  0.00     0.075 A
HETATM    8  N1  UNL     1     -36.829 -75.448   3.787  1.00  0.00    -0.190 N
HETATM    9  C7  UNL     1     -37.303 -74.380   4.447  1.00  0.00     0.681 A
ATOM     10  H1  UNL     1     -36.887 -76.368   4.224  1.00  0.00     0.184 HD
HETATM   11  N3  UNL     1     -37.250 -73.147   3.918  1.00  0.00    -0.155 N
HETATM   12  C10 UNL     1     -36.710 -72.970   2.686  1.00  0.00     0.280 A
ATOM     13  H3  UNL     1     -37.614 -72.350   4.438  1.00  0.00     0.187 HD
HETATM   14  O1  UNL     1     -36.640 -71.840   2.150  1.00  0.00    -0.266 OA
HETATM   15  C11 UNL     1     -36.218 -74.092   2.002  1.00  0.00     0.113 A
BRANCH   9  16
HETATM   16  N2  UNL     1     -37.830 -74.523   5.612  1.00  0.00    -0.226 N
ATOM     17  H2  UNL     1     -38.760 -74.137   5.777  1.00  0.00     0.177 HD
BRANCH  16  18
HETATM   18  C8  UNL     1     -37.169 -75.199   6.689  1.00  0.00     0.133 C
HETATM   19  C9  UNL     1     -36.295 -74.236   7.489  1.00  0.00     0.027 C
ENDBRANCH  16  18
ENDBRANCH   9  16
BRANCH  15  20
HETATM   20  C12 UNL     1     -35.710 -73.907   0.657  1.00  0.00    -0.057 C
HETATM   21  C13 UNL     1     -35.248 -73.742  -0.460  1.00  0.00    -0.071 C
BRANCH  21  22
HETATM   22  C14 UNL     1     -34.673 -73.523  -1.786  1.00  0.00     0.365 C
BRANCH  22  23
HETATM   23  N4  UNL     1     -33.498 -74.341  -1.898  1.00  0.00     0.090 N
HETATM   24  C15 UNL     1     -33.197 -74.447  -3.338  1.00  0.00     0.310 C
HETATM   25  C16 UNL     1     -32.380 -73.593  -1.298  1.00  0.00     0.310 C
ENDBRANCH  22  23
ENDBRANCH  21  22
ENDBRANCH  15  20
ENDBRANCH   6   7
ENDBRANCH   3   4
TORSDOF 7
ENDMDL