MODEL 1
REMARK VINA RESULT: -6.378184423      0.000      0.000
REMARK  3 active torsions:
REMARK  status: ('A' for Active; 'I' for Inactive)
REMARK    1  A    between atoms: C2_2  and  C3_3
REMARK    2  A    between atoms: C3_3  and  C4_4
REMARK    3  A    between atoms: C4_4  and  C5_5
ROOT
HETATM    1  C4  UNL     1     -39.745 -69.202  -0.759  1.00  0.00     0.076 C
HETATM    2  C6  UNL     1     -38.891 -69.834  -1.836  1.00  0.00     0.131 C
HETATM    3 BR1  UNL     1     -39.155 -68.904  -3.512  1.00  0.00    -0.086 Br
HETATM    4  C7  UNL     1     -39.366 -71.255  -2.058  1.00  0.00     0.343 C
HETATM    5  N1  UNL     1     -38.458 -72.008  -2.887  1.00  0.00    -0.311 N
ATOM      6  H1  UNL     1     -37.482 -72.071  -2.598  1.00  0.00     0.166 HD
HETATM    7  C8  UNL     1     -38.843 -72.663  -4.074  1.00  0.00     0.321 C
HETATM    8  O3  UNL     1     -38.059 -73.290  -4.830  1.00  0.00    -0.247 OA
HETATM    9  N2  UNL     1     -40.235 -72.598  -4.424  1.00  0.00    -0.312 N
HETATM   10  C9  UNL     1     -40.689 -72.857  -5.777  1.00  0.00     0.156 C
HETATM   11  C10 UNL     1     -41.140 -72.256  -3.338  1.00  0.00     0.404 C
HETATM   12  N3  UNL     1     -40.672 -71.098  -2.654  1.00  0.00     0.130 N
HETATM   13  C11 UNL     1     -41.566 -70.729  -1.583  1.00  0.00     0.287 C
HETATM   14  C12 UNL     1     -41.194 -69.417  -0.941  1.00  0.00    -0.002 C
HETATM   15  C13 UNL     1     -41.851 -69.484   0.453  1.00  0.00     0.018 C
HETATM   16  C14 UNL     1     -41.966 -68.346  -1.663  1.00  0.00     0.018 C
ENDROOT
BRANCH   1  17
HETATM   17  C3  UNL     1     -39.338 -69.774   0.612  1.00  0.00     0.049 C
BRANCH  17  18
HETATM   18  C2  UNL     1     -37.915 -69.600   0.935  1.00  0.00    -0.035 C
HETATM   19  C1  UNL     1     -37.173 -70.574   1.447  1.00  0.00     0.007 C
ENDBRANCH  17  18
ENDBRANCH   1  17
BRANCH   1  20
HETATM   20  C5  UNL     1     -39.361 -67.780  -0.699  1.00  0.00     0.184 C
HETATM   21  O1  UNL     1     -38.465 -67.256  -1.390  1.00  0.00    -0.647 OA
HETATM   22  O2  UNL     1     -40.037 -66.952   0.185  1.00  0.00    -0.647 OA
ENDBRANCH   1  20
TORSDOF 3
ENDMDL