MODEL 1
REMARK VINA RESULT: -7.233979576      0.000      0.000
REMARK  4 active torsions:
REMARK  status: ('A' for Active; 'I' for Inactive)
REMARK    1  A    between atoms: C2_2  and  C4_4
REMARK    2  A    between atoms: C4_4  and  N1_5
REMARK       I    between atoms: N1_5  and  C5_7
REMARK    3  A    between atoms: C5_7  and  C6_9
REMARK       I    between atoms: C6_9  and  N2_11
REMARK    4  A    between atoms: N2_11  and  C7_13
ROOT
HETATM    1  C6  UNL     1     -36.842 -71.812   1.678  1.00  0.00     0.309 C
HETATM    2  O2  UNL     1     -35.883 -71.060   1.985  1.00  0.00    -0.262 OA
HETATM    3  N2  UNL     1     -38.024 -71.309   1.043  1.00  0.00    -0.348 N
ATOM      4  H2  UNL     1     -38.763 -71.976   0.821  1.00  0.00     0.163 HD
ENDROOT
BRANCH   3   5
HETATM    5  C7  UNL     1     -38.241 -69.940   0.699  1.00  0.00     0.093 C
HETATM    6  C8  UNL     1     -37.441 -69.602  -0.536  1.00  0.00     0.010 C
HETATM    7  C9  UNL     1     -37.511 -68.130  -0.874  1.00  0.00     0.011 C
HETATM    8  C16 UNL     1     -37.932 -70.362  -1.744  1.00  0.00     0.027 C
HETATM    9  C10 UNL     1     -38.962 -67.740  -1.109  1.00  0.00    -0.012 C
HETATM   10  C11 UNL     1     -39.738 -68.113   0.117  1.00  0.00     0.011 C
HETATM   11  C15 UNL     1     -39.507 -68.493  -2.284  1.00  0.00     0.025 C
HETATM   12  C12 UNL     1     -39.679 -69.598   0.416  1.00  0.00     0.010 C
HETATM   13  C13 UNL     1     -40.171 -70.358  -0.782  1.00  0.00     0.027 C
HETATM   14  C14 UNL     1     -39.367 -69.971  -2.004  1.00  0.00     0.019 C
HETATM   15 BR1  UNL     1     -40.006 -71.040  -3.481  1.00  0.00    -0.086 Br
ENDBRANCH   3   5
BRANCH   1  16
HETATM   16  C5  UNL     1     -36.686 -73.222   2.001  1.00  0.00     0.309 C
HETATM   17  N1  UNL     1     -36.535 -73.632   3.320  1.00  0.00    -0.353 N
ATOM     18  H1  UNL     1     -36.533 -72.915   4.046  1.00  0.00     0.162 HD
HETATM   19  O1  UNL     1     -36.692 -74.041   1.060  1.00  0.00    -0.262 OA
BRANCH  17  20
HETATM   20  C4  UNL     1     -36.384 -74.994   3.726  1.00  0.00     0.127 C
BRANCH  20  21
HETATM   21  C2  UNL     1     -36.892 -75.170   5.133  1.00  0.00    -0.005 C
HETATM   22  C1  UNL     1     -36.060 -76.202   5.876  1.00  0.00     0.011 C
HETATM   23  C3  UNL     1     -36.677 -73.821   5.833  1.00  0.00     0.011 C
ENDBRANCH  20  21
ENDBRANCH  17  20
ENDBRANCH   1  16
TORSDOF 4
ENDMDL