MODEL 2
REMARK VINA RESULT: -8.607602016      1.892      3.140
REMARK  3 active torsions:
REMARK  status: ('A' for Active; 'I' for Inactive)
REMARK    1  A    between atoms: N1_2  and  C2_3
REMARK       I    between atoms: N1_2  and  C4_6
REMARK    2  A    between atoms: C2_3  and  C3_4
REMARK       I    between atoms: C4_6  and  N2_8
REMARK       I    between atoms: N2_8  and  C5_10
REMARK       I    between atoms: C5_10  and  N3_12
REMARK    3  A    between atoms: N3_12  and  C6_14
ROOT
HETATM    1  C6  UNL     1     -38.543 -71.701  -0.770  1.00  0.00     0.050 A
HETATM    2  C7  UNL     1     -39.462 -72.405  -1.836  1.00  0.00     0.022 A
HETATM    3  C8  UNL     1     -40.780 -71.711  -2.113  1.00  0.00     0.008 C
HETATM    4  C9  UNL     1     -40.701 -70.714  -3.252  1.00  0.00     0.006 C
HETATM    5  C10 UNL     1     -41.336 -69.446  -3.240  1.00  0.00    -0.003 A
HETATM    6  C11 UNL     1     -40.368 -68.327  -3.526  1.00  0.00     0.019 A
HETATM    7  C12 UNL     1     -38.955 -68.516  -3.533  1.00  0.00     0.173 C
HETATM    8  O3  UNL     1     -38.104 -69.006  -2.670  1.00  0.00    -0.385 OA
HETATM    9  C13 UNL     1     -38.401 -69.069  -1.287  1.00  0.00     0.133 C
HETATM   10  C14 UNL     1     -39.367 -67.965  -1.098  1.00  0.00     0.020 A
HETATM   11  C15 UNL     1     -40.174 -67.535  -0.036  1.00  0.00     0.013 A
HETATM   12  C16 UNL     1     -40.697 -68.450  -1.022  1.00  0.00    -0.003 A
HETATM   13  C17 UNL     1     -41.213 -68.332  -2.386  1.00  0.00     0.001 A
HETATM   14  C18 UNL     1     -38.843 -70.354  -0.929  1.00  0.00     0.051 A
HETATM   15  C19 UNL     1     -38.430 -71.401  -2.013  1.00  0.00     0.030 A
ENDROOT
BRANCH   1  16
HETATM   16  N3  UNL     1     -38.069 -72.484   0.295  1.00  0.00    -0.332 N
HETATM   17  C5  UNL     1     -37.944 -71.957   1.594  1.00  0.00     0.324 C
HETATM   18  N2  UNL     1     -37.492 -72.599   2.758  1.00  0.00    -0.261 N
HETATM   19  O2  UNL     1     -38.291 -70.716   1.733  1.00  0.00    -0.247 OA
HETATM   20  C4  UNL     1     -37.064 -73.916   2.894  1.00  0.00     0.326 C
ATOM     21  H2  UNL     1     -37.475 -72.032   3.606  1.00  0.00     0.175 HD
HETATM   22  N1  UNL     1     -36.637 -74.400   4.161  1.00  0.00    -0.336 N
HETATM   23  O1  UNL     1     -37.045 -74.700   1.924  1.00  0.00    -0.247 OA
HETATM   24  C1  UNL     1     -36.211 -75.803   4.240  1.00  0.00     0.154 C
ATOM     25  H3  UNL     1     -37.810 -73.456   0.124  1.00  0.00     0.165 HD
BRANCH  22  26
HETATM   26  C2  UNL     1     -36.594 -73.584   5.359  1.00  0.00     0.158 C
BRANCH  26  27
HETATM   27  C3  UNL     1     -36.757 -74.462   6.589  1.00  0.00     0.242 C
HETATM   28  F1  UNL     1     -35.574 -74.561   7.278  1.00  0.00    -0.254 F
ENDBRANCH  26  27
ENDBRANCH  22  26
ENDBRANCH   1  16
TORSDOF 3
ENDMDL