MODEL 3
REMARK VINA RESULT: -6.107967944      8.127      9.077
REMARK  3 active torsions:
REMARK  status: ('A' for Active; 'I' for Inactive)
REMARK       I    between atoms: N1_2  and  C2_4
REMARK    1  A    between atoms: C2_4  and  C3_6
REMARK    2  A    between atoms: C11_15  and  N2_16
REMARK    3  A    between atoms: N2_16  and  S1_18
ROOT
HETATM    1  C3  UNL     1     -40.173 -71.912  -3.500  1.00  0.00     0.048 C
HETATM    2  C4  UNL     1     -40.803 -73.033  -4.289  1.00  0.00     0.024 C
HETATM    3  C5  UNL     1     -40.443 -73.057  -5.729  1.00  0.00    -0.010 C
HETATM    4  C6  UNL     1     -38.957 -73.411  -5.934  1.00  0.00     0.026 C
HETATM    5  C7  UNL     1     -38.722 -71.949  -5.571  1.00  0.00     0.024 C
HETATM    6 BR1  UNL     1     -37.260 -71.107  -6.462  1.00  0.00    -0.085 Br
HETATM    7  C8  UNL     1     -40.026 -71.773  -6.348  1.00  0.00     0.026 C
HETATM    8  C9  UNL     1     -38.848 -71.670  -4.110  1.00  0.00     0.024 C
HETATM    9  C10 UNL     1     -37.915 -72.522  -3.271  1.00  0.00     0.033 C
HETATM   10  C11 UNL     1     -38.436 -72.390  -1.850  1.00  0.00     0.094 C
HETATM   11  C13 UNL     1     -39.919 -72.282  -2.055  1.00  0.00     0.045 C
ENDROOT
BRANCH  10  12
HETATM   12  N2  UNL     1     -37.848 -71.304  -1.150  1.00  0.00    -0.315 N
ATOM     13  H2  UNL     1     -37.413 -70.486  -1.576  1.00  0.00     0.172 HD
BRANCH  12  14
HETATM   14  S1  UNL     1     -37.994 -71.601   0.542  1.00  0.00     0.223 S
HETATM   15  C12 UNL     1     -36.551 -70.996   1.390  1.00  0.00     0.185 C
HETATM   16  O2  UNL     1     -39.186 -70.896   1.124  1.00  0.00    -0.206 OA
HETATM   17  O3  UNL     1     -38.192 -73.075   0.823  1.00  0.00    -0.206 OA
ENDBRANCH  12  14
ENDBRANCH  10  12
BRANCH   1  18
HETATM   18  C2  UNL     1     -41.089 -70.743  -3.444  1.00  0.00     0.226 C
HETATM   19  N1  UNL     1     -40.691 -69.437  -3.735  1.00  0.00    -0.365 N
HETATM   20  C1  UNL     1     -41.646 -68.359  -3.654  1.00  0.00     0.149 C
ATOM     21  H1  UNL     1     -39.726 -69.246  -4.005  1.00  0.00     0.161 HD
HETATM   22  O1  UNL     1     -42.302 -70.949  -3.110  1.00  0.00    -0.273 OA
ENDBRANCH   1  18
TORSDOF 3
ENDMDL