MODEL 3
REMARK VINA RESULT: -5.562897654      2.130      3.146
REMARK  4 active torsions:
REMARK  status: ('A' for Active; 'I' for Inactive)
REMARK    1  A    between atoms: N1_2  and  N2_3
REMARK    2  A    between atoms: N1_2  and  C2_11
REMARK    3  A    between atoms: N2_3  and  S1_5
REMARK    4  A    between atoms: S1_5  and  N3_6
ROOT
HETATM    1  C2  UNL     1     -39.051 -71.196  -2.372  1.00  0.00     0.111 C
HETATM    2  C3  UNL     1     -40.405 -71.773  -2.054  1.00  0.00     0.033 C
HETATM    3  C4  UNL     1     -41.305 -70.613  -1.729  1.00  0.00    -0.002 C
HETATM    4  C5  UNL     1     -41.808 -70.036  -3.051  1.00  0.00     0.026 C
HETATM    5  C6  UNL     1     -41.077 -68.724  -3.190  1.00  0.00     0.020 C
HETATM    6 BR1  UNL     1     -41.860 -67.470  -4.352  1.00  0.00    -0.085 Br
HETATM    7  C7  UNL     1     -41.034 -68.294  -1.724  1.00  0.00     0.031 C
HETATM    8  C8  UNL     1     -40.361 -69.566  -1.214  1.00  0.00    -0.029 C
HETATM    9  C9  UNL     1     -40.094 -69.582   0.229  1.00  0.00     0.016 C
HETATM   10  C10 UNL     1     -39.196 -69.698  -2.132  1.00  0.00    -0.013 C
HETATM   11  C11 UNL     1     -37.907 -69.150  -1.601  1.00  0.00     0.018 C
HETATM   12  C12 UNL     1     -39.602 -68.982  -3.416  1.00  0.00     0.033 C
ENDROOT
BRANCH   1  13
HETATM   13  N1  UNL     1     -37.986 -71.750  -1.587  1.00  0.00    -0.316 N
HETATM   14  C1  UNL     1     -36.854 -72.185  -2.337  1.00  0.00     0.172 C
BRANCH  13  15
HETATM   15  N2  UNL     1     -38.375 -72.562  -0.552  1.00  0.00    -0.212 N
ATOM     16  H2  UNL     1     -39.159 -73.208  -0.635  1.00  0.00     0.201 HD
BRANCH  15  17
HETATM   17  S1  UNL     1     -37.462 -72.423   0.878  1.00  0.00     0.330 S
HETATM   18  O1  UNL     1     -36.475 -71.278   0.777  1.00  0.00    -0.181 OA
HETATM   19  O2  UNL     1     -38.367 -72.101   2.018  1.00  0.00    -0.181 OA
BRANCH  17  20
HETATM   20  N3  UNL     1     -36.535 -73.848   1.133  1.00  0.00    -0.310 N
ATOM     21  H32 UNL     1     -36.164 -74.134   2.039  1.00  0.00     0.170 HD
ATOM     22  H31 UNL     1     -36.415 -74.352   0.254  1.00  0.00     0.170 HD
ENDBRANCH  17  20
ENDBRANCH  15  17
ENDBRANCH  13  15
ENDBRANCH   1  13
TORSDOF 4
ENDMDL