MODEL 1
REMARK VINA RESULT: -6.806195813      0.000      0.000
REMARK  4 active torsions:
REMARK  status: ('A' for Active; 'I' for Inactive)
REMARK    1  A    between atoms: C2_2  and  C4_4
REMARK    2  A    between atoms: C4_4  and  C5_5
REMARK    3  A    between atoms: C7_9  and  C8_10
REMARK       I    between atoms: C8_10  and  N2_12
REMARK    4  A    between atoms: N2_12  and  C9_14
ROOT
HETATM    1  C5  UNL     1     -37.850 -69.790   0.450  1.00  0.00     0.106 C
HETATM    2  C6  UNL     1     -37.903 -68.283   0.603  1.00  0.00     0.063 C
HETATM    3  N1  UNL     1     -37.133 -70.249   1.611  1.00  0.00    -0.381 N
ATOM      4  H1  UNL     1     -37.200 -69.747   2.496  1.00  0.00     0.156 HD
HETATM    5  C7  UNL     1     -36.343 -71.399   1.499  1.00  0.00     0.197 C
HETATM    6  C12 UNL     1     -35.950 -71.799   0.138  1.00  0.00     0.034 C
HETATM    7  C13 UNL     1     -36.298 -71.161  -0.942  1.00  0.00     0.039 C
HETATM    8  C14 UNL     1     -36.273 -71.012  -2.431  1.00  0.00     0.200 C
HETATM    9 BR1  UNL     1     -37.553 -72.191  -3.231  1.00  0.00    -0.074 Br
HETATM   10  C15 UNL     1     -36.714 -69.655  -2.116  1.00  0.00     0.246 C
HETATM   11  O2  UNL     1     -36.748 -68.566  -2.733  1.00  0.00    -0.271 OA
HETATM   12  N3  UNL     1     -37.114 -70.007  -0.799  1.00  0.00    -0.292 N
ENDROOT
BRANCH   5  13
HETATM   13  C8  UNL     1     -36.896 -72.598   2.185  1.00  0.00     0.244 C
HETATM   14  O1  UNL     1     -37.706 -73.360   1.595  1.00  0.00    -0.271 OA
HETATM   15  N2  UNL     1     -36.540 -72.933   3.517  1.00  0.00    -0.355 N
ATOM     16  H2  UNL     1     -35.886 -72.332   4.016  1.00  0.00     0.162 HD
BRANCH  15  17
HETATM   17  C9  UNL     1     -37.069 -74.092   4.190  1.00  0.00     0.076 C
HETATM   18  C10 UNL     1     -36.880 -73.853   5.687  1.00  0.00     0.032 C
HETATM   19  C11 UNL     1     -36.327 -75.353   3.843  1.00  0.00     0.032 C
ENDBRANCH  15  17
ENDBRANCH   5  13
BRANCH   1  20
HETATM   20  C4  UNL     1     -39.188 -70.432   0.431  1.00  0.00     0.057 C
BRANCH  20  21
HETATM   21  C2  UNL     1     -40.268 -69.782  -0.344  1.00  0.00    -0.019 C
HETATM   22  C1  UNL     1     -40.662 -70.795  -1.444  1.00  0.00     0.009 C
HETATM   23  C3  UNL     1     -41.544 -69.502   0.389  1.00  0.00     0.009 C
ENDBRANCH  20  21
ENDBRANCH   1  20
TORSDOF 4
ENDMDL