MODEL 1
REMARK VINA RESULT: -6.499929498      0.000      0.000
REMARK  3 active torsions:
REMARK  status: ('A' for Active; 'I' for Inactive)
REMARK       I    between atoms: C2_2  and  N1_4
REMARK    1  A    between atoms: N1_4  and  C3_6
REMARK    2  A    between atoms: C3_6  and  C4_7
REMARK       I    between atoms: C4_7  and  N2_9
REMARK       I    between atoms: N3_19  and  C13_20
REMARK       I    between atoms: C13_20  and  N4_22
REMARK    3  A    between atoms: N4_22  and  C14_24
ROOT
HETATM    1  C3  UNL     1     -40.656 -69.930  -2.711  1.00  0.00     0.136 C
HETATM    2  C7  UNL     1     -41.815 -68.953  -2.289  1.00  0.00     0.065 C
HETATM    3  C8  UNL     1     -42.154 -69.313  -0.826  1.00  0.00     0.108 C
HETATM    4 CL1  UNL     1     -43.023 -70.797  -0.620  1.00  0.00    -0.123 Cl
HETATM    5  C9  UNL     1     -40.929 -69.258   0.021  1.00  0.00     0.108 C
HETATM    6  C10 UNL     1     -40.364 -67.842  -0.281  1.00  0.00     0.029 C
HETATM    7  C11 UNL     1     -39.556 -68.065  -1.507  1.00  0.00     0.030 C
HETATM    8  C12 UNL     1     -39.602 -69.631  -1.785  1.00  0.00     0.127 C
HETATM    9  N3  UNL     1     -39.785 -70.009  -0.412  1.00  0.00    -0.320 N
HETATM   10  C13 UNL     1     -38.924 -70.820   0.328  1.00  0.00     0.319 C
HETATM   11  O3  UNL     1     -39.167 -70.949   1.587  1.00  0.00    -0.247 OA
HETATM   12  N4  UNL     1     -37.781 -71.520  -0.130  1.00  0.00    -0.339 N
ATOM     13  H4  UNL     1     -37.549 -71.488  -1.122  1.00  0.00     0.164 HD
ENDROOT
BRANCH   1  14
HETATM   14  N1  UNL     1     -41.370 -71.146  -2.859  1.00  0.00    -0.342 N
HETATM   15  C2  UNL     1     -40.741 -72.409  -2.754  1.00  0.00     0.214 C
HETATM   16  C1  UNL     1     -41.540 -73.701  -2.907  1.00  0.00     0.117 C
HETATM   17  O1  UNL     1     -39.536 -72.658  -2.530  1.00  0.00    -0.274 OA
ATOM     18  H1  UNL     1     -42.372 -71.110  -3.047  1.00  0.00     0.163 HD
ENDBRANCH   1  14
BRANCH   1  19
HETATM   19  C4  UNL     1     -40.159 -69.480  -4.080  1.00  0.00     0.249 C
HETATM   20  O2  UNL     1     -40.966 -68.929  -4.830  1.00  0.00    -0.270 OA
HETATM   21  N2  UNL     1     -38.840 -69.683  -4.496  1.00  0.00    -0.359 N
HETATM   22  C5  UNL     1     -37.802 -70.455  -3.875  1.00  0.00     0.152 C
HETATM   23  C6  UNL     1     -38.393 -69.066  -5.760  1.00  0.00     0.152 C
ENDBRANCH   1  19
BRANCH  12  24
HETATM   24  C14 UNL     1     -36.921 -72.288   0.773  1.00  0.00     0.078 C
HETATM   25  C15 UNL     1     -35.944 -71.338   1.450  1.00  0.00     0.032 C
HETATM   26  C16 UNL     1     -36.098 -73.309   0.018  1.00  0.00     0.032 C
ENDBRANCH  12  24
TORSDOF 3
ENDMDL