MODEL 1
REMARK VINA RESULT: -3.981480071      0.000      0.000
REMARK  1 active torsions:
REMARK  status: ('A' for Active; 'I' for Inactive)
REMARK    1  A    between atoms: N3_10  and  N4_11
ROOT
HETATM    1  C1  UNL     1      14.761   2.013 -11.492  1.00  0.00     0.197 C
HETATM    2  N1  UNL     1      14.501   2.029 -10.231  1.00  0.00    -0.383 N
ATOM      3  H1  UNL     1      15.151   1.514  -9.637  1.00  0.00     0.160 HD
HETATM    4  C2  UNL     1      13.402   2.685  -9.548  1.00  0.00     0.148 C
HETATM    5  C3  UNL     1      13.067   4.024 -10.156  1.00  0.00     0.253 C
HETATM    6  N2  UNL     1      12.373   3.780 -11.407  1.00  0.00    -0.056 N
ATOM      7  H21 UNL     1      11.596   4.430 -11.532  1.00  0.00     0.279 HD
ATOM      8  H22 UNL     1      11.848   2.906 -11.374  1.00  0.00     0.279 HD
HETATM    9  C4  UNL     1      13.272   3.811 -12.544  1.00  0.00     0.381 C
HETATM   10  N3  UNL     1      14.090   2.609 -12.612  1.00  0.00    -0.263 N
ENDROOT
BRANCH  10  11
HETATM   11  N4  UNL     1      14.232   2.002 -13.837  1.00  0.00    -0.304 N
HETATM   12  C5  UNL     1      13.470   1.064 -14.281  1.00  0.00     0.004 C
HETATM   13  C6  UNL     1      13.664   0.437 -15.614  1.00  0.00     0.054 C
HETATM   14  C10 UNL     1      12.320   0.510 -13.509  1.00  0.00     0.054 C
HETATM   15  C7  UNL     1      13.749  -1.052 -15.524  1.00  0.00     0.006 C
HETATM   16  C8  UNL     1      13.440  -1.636 -14.198  1.00  0.00     0.001 C
HETATM   17  C9  UNL     1      12.400  -0.979 -13.387  1.00  0.00     0.006 C
ATOM     18  H4  UNL     1      14.995   2.316 -14.436  1.00  0.00     0.186 HD
ENDBRANCH  10  11
TORSDOF 1
ENDMDL