MODEL 3
REMARK VINA RESULT: -4.235334380     11.714     13.914
REMARK  1 active torsions:
REMARK  status: ('A' for Active; 'I' for Inactive)
REMARK    1  A    between atoms: C7_11  and  C8_12
ROOT
HETATM    1  O1  UNL     1      21.610   5.824 -16.995  1.00  0.00    -0.291 OA
HETATM    2  C1  UNL     1      20.466   5.862 -17.538  1.00  0.00     0.186 C
HETATM    3  C2  UNL     1      19.382   5.584 -16.606  1.00  0.00     0.049 C
HETATM    4  C3  UNL     1      18.064   5.815 -16.590  1.00  0.00    -0.023 C
HETATM    5  C4  UNL     1      17.128   6.471 -17.544  1.00  0.00     0.029 C
HETATM    6  C5  UNL     1      17.747   7.741 -18.122  1.00  0.00     0.031 C
HETATM    7  C6  UNL     1      18.535   7.471 -19.367  1.00  0.00     0.234 C
HETATM    8  N1  UNL     1      19.974   7.528 -19.140  1.00  0.00    -0.058 N
ATOM      9  H11 UNL     1      20.221   8.124 -18.349  1.00  0.00     0.278 HD
ATOM     10  H12 UNL     1      20.462   8.049 -19.868  1.00  0.00     0.278 HD
HETATM   11  C7  UNL     1      20.479   6.179 -18.993  1.00  0.00     0.315 C
ENDROOT
BRANCH  11  12
HETATM   12  C8  UNL     1      21.829   6.011 -19.577  1.00  0.00     0.090 A
HETATM   13  C9  UNL     1      22.724   7.026 -19.845  1.00  0.00     0.037 A
HETATM   14  C10 UNL     1      23.848   6.442 -20.378  1.00  0.00     0.027 A
HETATM   15  C11 UNL     1      23.589   5.075 -20.415  1.00  0.00     0.142 A
HETATM   16  O2  UNL     1      22.380   4.861 -19.930  1.00  0.00    -0.324 OA
ENDBRANCH  11  12
TORSDOF 1
ENDMDL