MODEL 1
REMARK VINA RESULT: -4.697400520      0.000      0.000
REMARK  2 active torsions:
REMARK  status: ('A' for Active; 'I' for Inactive)
REMARK    1  A    between atoms: O1_1  and  C1_3
REMARK    2  A    between atoms: C1_3  and  C2_4
ROOT
HETATM    1  C1  UNL     1      14.191   2.718 -11.655  1.00  0.00     0.235 C
HETATM    2  C8  UNL     1      12.979   2.061 -10.974  1.00  0.00     0.184 C
HETATM    3  S1  UNL     1      12.994   3.154  -9.495  1.00  0.00     0.034 SA
HETATM    4  O2  UNL     1      14.098   4.318 -10.187  1.00  0.00    -0.159 OA
HETATM    5  O3  UNL     1      14.033   4.073 -11.470  1.00  0.00    -0.182 OA
ENDROOT
BRANCH   1   6
HETATM    6  O1  UNL     1      15.342   2.204 -11.037  1.00  0.00    -0.359 OA
ATOM      7  H1  UNL     1      15.501   1.361 -11.445  1.00  0.00     0.213 HD
ENDBRANCH   1   6
BRANCH   1   8
HETATM    8  C2  UNL     1      14.311   2.379 -13.064  1.00  0.00     0.007 A
HETATM    9  C3  UNL     1      15.113   3.035 -13.958  1.00  0.00     0.013 A
HETATM   10  C4  UNL     1      15.121   2.661 -15.267  1.00  0.00     0.001 A
HETATM   11  C5  UNL     1      14.330   1.627 -15.714  1.00  0.00     0.000 A
HETATM   12  C6  UNL     1      13.524   0.958 -14.842  1.00  0.00     0.001 A
HETATM   13  C7  UNL     1      13.518   1.336 -13.522  1.00  0.00     0.013 A
ENDBRANCH   1   8
TORSDOF 2
ENDMDL