MODEL 4
REMARK VINA RESULT: -3.731980185      2.242      3.336
REMARK  2 active torsions:
REMARK  status: ('A' for Active; 'I' for Inactive)
REMARK    1  A    between atoms: C2_2  and  S1_3
REMARK    2  A    between atoms: S1_3  and  C3_4
ROOT
HETATM    1  C3  UNL     1      13.875   2.812 -12.754  1.00  0.00     0.155 C
HETATM    2  C4  UNL     1      13.301   1.577 -12.081  1.00  0.00     0.086 C
HETATM    3  C5  UNL     1      13.915   1.787 -10.706  1.00  0.00     0.151 C
HETATM    4  C6  UNL     1      13.073   2.651  -9.821  1.00  0.00     0.044 C
HETATM    5  C7  UNL     1      12.842   4.039 -10.323  1.00  0.00     0.079 C
HETATM    6  S2  UNL     1      12.958   4.223 -12.106  1.00  0.00    -0.129 SA
HETATM    7  O1  UNL     1      15.137   2.390 -10.929  1.00  0.00    -0.279 OA
HETATM    8  N1  UNL     1      15.228   2.758 -12.204  1.00  0.00    -0.068 NA
ENDROOT
BRANCH   1   9
HETATM    9  S1  UNL     1      13.860   2.711 -14.548  1.00  0.00    -0.129 SA
BRANCH   9  10
HETATM   10  C2  UNL     1      13.634   0.941 -14.937  1.00  0.00     0.072 C
HETATM   11  C1  UNL     1      14.356   0.552 -16.196  1.00  0.00     0.016 C
ENDBRANCH   9  10
ENDBRANCH   1   9
TORSDOF 2
ENDMDL