MODEL 5
REMARK VINA RESULT: -4.237917347      2.713      3.986
REMARK  1 active torsions:
REMARK  status: ('A' for Active; 'I' for Inactive)
REMARK    1  A    between atoms: O1_2  and  C2_3
ROOT
HETATM    1  C2  UNL     1      13.594   3.476 -12.526  1.00  0.00     0.120 C
HETATM    2  C3  UNL     1      14.354   2.578 -11.588  1.00  0.00     0.032 C
HETATM    3  C4  UNL     1      13.788   2.731 -10.218  1.00  0.00     0.005 C
HETATM    4  C5  UNL     1      12.340   2.509 -10.086  1.00  0.00     0.033 C
HETATM    5  C6  UNL     1      11.754   1.421 -10.923  1.00  0.00     0.055 C
HETATM    6  C7  UNL     1      11.919   1.606 -12.388  1.00  0.00     0.036 C
HETATM    7  C8  UNL     1      12.197   3.028 -12.797  1.00  0.00     0.034 C
HETATM    8  C9  UNL     1      12.285   0.044 -10.547  1.00  0.00     0.209 C
HETATM    9  O2  UNL     1      11.395  -0.295  -9.502  1.00  0.00    -0.322 OA
HETATM   10  C10 UNL     1      10.185   0.315  -9.741  1.00  0.00     0.228 C
HETATM   11  N1  UNL     1       8.900  -0.088  -9.171  1.00  0.00    -0.056 NA
HETATM   12  N2  UNL     1      10.372   1.287 -10.543  1.00  0.00    -0.347 N
ATOM     13  H2  UNL     1       9.628   1.900 -10.878  1.00  0.00     0.163 HD
ENDROOT
BRANCH   1  14
HETATM   14  O1  UNL     1      13.566   4.749 -11.945  1.00  0.00    -0.391 OA
HETATM   15  C1  UNL     1      12.782   5.614 -12.683  1.00  0.00     0.202 C
ENDBRANCH   1  14
TORSDOF 1
ENDMDL