MODEL 3
REMARK VINA RESULT: -4.469463847      2.211      4.024
REMARK  2 active torsions:
REMARK  status: ('A' for Active; 'I' for Inactive)
REMARK    1  A    between atoms: C2_3  and  N2_4
REMARK    2  A    between atoms: C5_8  and  N3_9
ROOT
HETATM    1  N1  UNL     1      15.581   3.009 -13.073  1.00  0.00    -0.195 NA
HETATM    2  C1  UNL     1      14.490   2.989 -12.655  1.00  0.00     0.091 C
HETATM    3  C2  UNL     1      13.115   2.989 -12.133  1.00  0.00     0.129 C
HETATM    4  C6  UNL     1      13.018   4.210 -11.231  1.00  0.00     0.047 C
HETATM    5  C7  UNL     1      12.680   5.377 -12.168  1.00  0.00     0.004 C
HETATM    6  C8  UNL     1      11.203   5.240 -12.460  1.00  0.00     0.000 C
HETATM    7  C9  UNL     1      10.950   3.884 -13.053  1.00  0.00     0.004 C
HETATM    8  C10 UNL     1      12.204   3.106 -13.328  1.00  0.00     0.047 C
ENDROOT
BRANCH   3   9
HETATM    9  N2  UNL     1      12.834   1.773 -11.414  1.00  0.00    -0.299 N
HETATM   10  C3  UNL     1      11.777   0.946 -11.525  1.00  0.00     0.121 A
HETATM   11  C4  UNL     1      11.974  -0.079 -10.616  1.00  0.00     0.163 A
HETATM   12  O1  UNL     1      13.109   0.159 -10.006  1.00  0.00    -0.290 OA
HETATM   13  C5  UNL     1      13.638   1.262 -10.469  1.00  0.00     0.225 A
BRANCH  13  14
HETATM   14  N3  UNL     1      14.766   1.785 -10.078  1.00  0.00    -0.365 N
ATOM     15  H32 UNL     1      15.343   1.447  -9.307  1.00  0.00     0.159 HD
ATOM     16  H31 UNL     1      15.213   2.599 -10.499  1.00  0.00     0.159 HD
ENDBRANCH  13  14
ENDBRANCH   3   9
TORSDOF 2
ENDMDL