MODEL 1
REMARK VINA RESULT: -3.864232316      0.000      0.000
REMARK  1 active torsions:
REMARK  status: ('A' for Active; 'I' for Inactive)
REMARK    1  A    between atoms: C1_2  and  C2_3
ROOT
HETATM    1  C2  UNL     1      14.058   3.557 -13.132  1.00  0.00     0.001 A
HETATM    2  C3  UNL     1      13.342   4.636 -13.583  1.00  0.00     0.029 A
HETATM    3  C4  UNL     1      13.813   5.323 -14.681  1.00  0.00     0.088 A
HETATM    4  N1  UNL     1      14.937   5.004 -15.344  1.00  0.00    -0.375 N
ATOM      5  H1  UNL     1      15.245   5.545 -16.152  1.00  0.00     0.164 HD
HETATM    6  C5  UNL     1      15.642   3.949 -14.908  1.00  0.00     0.088 A
HETATM    7  C6  UNL     1      15.207   3.234 -13.814  1.00  0.00     0.029 A
ENDROOT
BRANCH   1   8
HETATM    8  C1  UNL     1      13.649   2.762 -11.982  1.00  0.00     0.196 C
HETATM    9  S1  UNL     1      12.575   1.378 -12.400  1.00  0.00    -0.038 SA
HETATM   10  O1  UNL     1      14.771   2.367 -11.262  1.00  0.00    -0.354 OA
HETATM   11  C7  UNL     1      14.356   1.841 -10.054  1.00  0.00     0.181 C
HETATM   12  C8  UNL     1      13.685   2.990  -9.283  1.00  0.00     0.104 C
HETATM   13  S2  UNL     1      12.831   3.800 -10.700  1.00  0.00    -0.112 SA
ENDBRANCH   1   8
TORSDOF 1
ENDMDL