MODEL 3
REMARK VINA RESULT: -4.782358335      2.563      4.167
REMARK  1 active torsions:
REMARK  status: ('A' for Active; 'I' for Inactive)
REMARK    1  A    between atoms: C5_10  and  C6_11
ROOT
HETATM    1  N1  UNL     1      10.953   5.348 -11.765  1.00  0.00    -0.190 NA
HETATM    2  C1  UNL     1      11.732   4.638 -11.246  1.00  0.00     0.115 C
HETATM    3  C2  UNL     1      12.679   3.778 -10.595  1.00  0.00     0.113 C
HETATM    4  N2  UNL     1      12.478   3.358  -9.375  1.00  0.00    -0.296 N
ATOM      5  H2  UNL     1      11.665   3.596  -8.806  1.00  0.00     0.183 HD
HETATM    6  N3  UNL     1      13.515   2.549  -8.961  1.00  0.00    -0.120 NA
HETATM    7  C3  UNL     1      14.204   2.074 -10.159  1.00  0.00     0.220 C
HETATM    8  C4  UNL     1      13.556   0.881 -10.637  1.00  0.00     0.083 C
HETATM    9  N4  UNL     1      13.036  -0.112 -11.005  1.00  0.00    -0.195 NA
HETATM   10  C5  UNL     1      13.942   3.237 -11.090  1.00  0.00     0.115 C
ENDROOT
BRANCH  10  11
HETATM   11  C6  UNL     1      13.921   2.740 -12.468  1.00  0.00    -0.045 A
HETATM   12  C7  UNL     1      12.841   2.175 -13.094  1.00  0.00     0.008 A
HETATM   13  C8  UNL     1      12.877   1.716 -14.394  1.00  0.00     0.001 A
HETATM   14  C9  UNL     1      14.052   1.829 -15.102  1.00  0.00     0.000 A
HETATM   15  C10 UNL     1      15.146   2.397 -14.481  1.00  0.00     0.001 A
HETATM   16  C11 UNL     1      15.119   2.857 -13.184  1.00  0.00     0.008 A
ENDBRANCH  10  11
TORSDOF 1
ENDMDL