MODEL 3
REMARK VINA RESULT: -3.911517768      4.233      4.879
REMARK  4 active torsions:
REMARK  status: ('A' for Active; 'I' for Inactive)
REMARK    1  A    between atoms: O1_2  and  C2_3
REMARK    2  A    between atoms: C5_6  and  C6_7
REMARK    3  A    between atoms: C7_8  and  C8_9
REMARK    4  A    between atoms: C8_9  and  N1_10
ROOT
HETATM    1  C2  UNL     1      13.809  -1.784 -16.433  1.00  0.00     0.068 A
HETATM    2  C3  UNL     1      13.883  -0.442 -16.143  1.00  0.00     0.038 A
HETATM    3  C4  UNL     1      13.493   0.050 -14.905  1.00  0.00     0.023 A
HETATM    4  C5  UNL     1      13.025  -0.836 -13.960  1.00  0.00     0.018 A
HETATM    5  C9  UNL     1      12.958  -2.170 -14.261  1.00  0.00     0.023 A
HETATM    6  C10 UNL     1      13.342  -2.665 -15.484  1.00  0.00     0.038 A
ENDROOT
BRANCH   4   7
HETATM    7  C6  UNL     1      12.596  -0.431 -12.649  1.00  0.00    -0.064 C
HETATM    8  C7  UNL     1      12.239  -0.108 -11.537  1.00  0.00    -0.056 C
BRANCH   8   9
HETATM    9  C8  UNL     1      11.821   0.267 -10.172  1.00  0.00     0.334 C
HETATM   10  S1  UNL     1      10.192  -0.433  -9.777  1.00  0.00    -0.049 SA
BRANCH   9  11
HETATM   11  N1  UNL     1      11.821   1.707  -9.999  1.00  0.00    -0.055 N
ATOM     12  H13 UNL     1      12.250   1.978  -9.114  1.00  0.00     0.276 HD
ATOM     13  H12 UNL     1      12.477   2.161 -10.635  1.00  0.00     0.276 HD
ATOM     14  H11 UNL     1      10.882   2.092 -10.094  1.00  0.00     0.276 HD
ENDBRANCH   9  11
ENDBRANCH   8   9
ENDBRANCH   4   7
BRANCH   1  15
HETATM   15  O1  UNL     1      14.201  -2.274 -17.672  1.00  0.00    -0.356 OA
HETATM   16  C1  UNL     1      14.056  -3.649 -17.989  1.00  0.00     0.210 C
ENDBRANCH   1  15
TORSDOF 4
ENDMDL