MODEL 4
REMARK VINA RESULT: -3.827964373      0.338      1.418
REMARK  4 active torsions:
REMARK  status: ('A' for Active; 'I' for Inactive)
REMARK    1  A    between atoms: C2_3  and  S1_4
REMARK    2  A    between atoms: S1_4  and  C3_5
REMARK    3  A    between atoms: C3_5  and  N3_10
REMARK    4  A    between atoms: N2_6  and  O1_8
ROOT
HETATM    1  N1  UNL     1      13.209   0.159 -10.311  1.00  0.00    -0.197 NA
HETATM    2  C1  UNL     1      12.281   0.878 -10.263  1.00  0.00     0.069 C
HETATM    3  C2  UNL     1      11.126   1.773 -10.213  1.00  0.00     0.206 C
ENDROOT
BRANCH   3   4
HETATM    4  S1  UNL     1      11.016   2.670 -11.773  1.00  0.00    -0.078 SA
BRANCH   4   5
HETATM    5  C3  UNL     1      12.413   3.768 -11.899  1.00  0.00     0.163 C
HETATM    6  N2  UNL     1      12.645   4.574 -10.923  1.00  0.00    -0.247 N
ATOM      7  H2  UNL     1      12.037   4.572 -10.104  1.00  0.00     0.196 HD
BRANCH   6   8
HETATM    8  O1  UNL     1      13.708   5.433 -10.983  1.00  0.00    -0.288 OA
ATOM      9  H1  UNL     1      13.634   6.307 -10.616  1.00  0.00     0.244 HD
ENDBRANCH   6   8
BRANCH   5  10
HETATM   10  N3  UNL     1      13.265   3.778 -13.030  1.00  0.00    -0.360 N
HETATM   11  C4  UNL     1      12.956   4.663 -14.120  1.00  0.00     0.125 C
HETATM   12  C5  UNL     1      14.307   4.961 -14.790  1.00  0.00     0.020 C
HETATM   13  C6  UNL     1      14.710   3.665 -15.458  1.00  0.00     0.003 C
HETATM   14  C7  UNL     1      14.863   2.567 -14.454  1.00  0.00     0.020 C
HETATM   15  C8  UNL     1      14.397   2.927 -13.074  1.00  0.00     0.125 C
ENDBRANCH   5  10
ENDBRANCH   4   5
ENDBRANCH   3   4
TORSDOF 4
ENDMDL