MODEL 4
REMARK VINA RESULT: -5.748404991      1.141      1.608
REMARK  9 active torsions:
REMARK  status: ('A' for Active; 'I' for Inactive)
REMARK    1  A    between atoms: C1_4  and  N2_5
REMARK    2  A    between atoms: C1_4  and  O1_11
REMARK    3  A    between atoms: N2_5  and  N3_7
REMARK    4  A    between atoms: N3_7  and  N4_8
REMARK    5  A    between atoms: O1_11  and  C2_12
REMARK    6  A    between atoms: C2_12  and  C3_13
REMARK    7  A    between atoms: C3_13  and  C4_15
REMARK    8  A    between atoms: N6_21  and  O3_22
REMARK    9  A    between atoms: C9_24  and  C10_25
ROOT
HETATM    1  C4  UNL     1      28.871  28.636  37.110  1.00  0.00     0.014 C
HETATM    2  C5  UNL     1      28.909  29.338  35.923  1.00  0.00     0.017 C
HETATM    3  C6  UNL     1      28.985  30.697  35.706  1.00  0.00     0.030 C
HETATM    4  C7  UNL     1      28.924  31.757  36.620  1.00  0.00     0.077 C
HETATM    5  N5  UNL     1      28.971  33.071  36.103  1.00  0.00    -0.100 NA
HETATM    6  C8  UNL     1      28.820  31.710  37.991  1.00  0.00     0.115 A
HETATM    7  N6  UNL     1      28.833  32.739  38.853  1.00  0.00    -0.201 N
HETATM    8  C9  UNL     1      28.704  32.249  40.117  1.00  0.00     0.169 A
HETATM    9  N8  UNL     1      28.609  30.904  40.056  1.00  0.00    -0.336 N
ATOM     10  H8  UNL     1      28.504  30.288  40.863  1.00  0.00     0.168 HD
HETATM   11  C11 UNL     1      28.671  30.499  38.789  1.00  0.00     0.066 A
HETATM   12  C12 UNL     1      28.605  29.174  38.347  1.00  0.00     0.047 C
ENDROOT
BRANCH   1  13
HETATM   13  C3  UNL     1      29.125  27.223  37.106  1.00  0.00     0.183 C
HETATM   14  O2  UNL     1      28.774  26.518  38.068  1.00  0.00    -0.290 OA
BRANCH  13  15
HETATM   15  C2  UNL     1      29.802  26.605  35.961  1.00  0.00     0.262 C
BRANCH  15  16
HETATM   16  O1  UNL     1      28.929  25.849  35.145  1.00  0.00    -0.314 OA
BRANCH  16  17
HETATM   17  C1  UNL     1      28.872  24.482  35.195  1.00  0.00     0.230 C
HETATM   18  N1  UNL     1      29.173  23.816  34.127  1.00  0.00    -0.364 N
ATOM     19  H12 UNL     1      29.130  22.797  34.164  1.00  0.00     0.159 HD
ATOM     20  H11 UNL     1      29.448  24.262  33.252  1.00  0.00     0.159 HD
BRANCH  17  21
HETATM   21  N2  UNL     1      28.489  23.862  36.411  1.00  0.00    -0.250 N
ATOM     22  H2  UNL     1      27.569  24.063  36.803  1.00  0.00     0.188 HD
BRANCH  21  23
HETATM   23  N3  UNL     1      29.342  22.979  37.088  1.00  0.00    -0.027 NA
BRANCH  23  24
HETATM   24  N4  UNL     1      30.054  23.736  38.027  1.00  0.00    -0.329 N
ATOM     25  H42 UNL     1      30.897  23.437  38.516  1.00  0.00     0.174 HD
ATOM     26  H41 UNL     1      29.569  24.628  38.121  1.00  0.00     0.174 HD
ENDBRANCH  23  24
ENDBRANCH  21  23
ENDBRANCH  17  21
ENDBRANCH  16  17
ENDBRANCH  15  16
ENDBRANCH  13  15
ENDBRANCH   1  13
BRANCH   7  27
HETATM   27  O3  UNL     1      28.958  34.051  38.483  1.00  0.00    -0.281 OA
ATOM     28  H3  UNL     1      29.766  34.546  38.536  1.00  0.00     0.245 HD
ENDBRANCH   7  27
BRANCH   8  29
HETATM   29  C10 UNL     1      28.683  33.119  41.290  1.00  0.00     0.159 C
HETATM   30  N7  UNL     1      28.295  34.482  41.200  1.00  0.00    -0.086 NA
HETATM   31  S1  UNL     1      29.116  32.508  42.740  1.00  0.00    -0.060 SA
ENDBRANCH   8  29
TORSDOF 9
ENDMDL