MODEL 2
REMARK VINA RESULT: -5.524483951      1.959      2.528
REMARK  5 active torsions:
REMARK  status: ('A' for Active; 'I' for Inactive)
REMARK    1  A    between atoms: N3_9  and  C3_10
REMARK    2  A    between atoms: C3_10  and  C4_11
REMARK    3  A    between atoms: C4_11  and  N4_12
REMARK    4  A    between atoms: C4_11  and  C5_16
REMARK    5  A    between atoms: C5_16  and  N5_17
REMARK       I    between atoms: C6_19  and  N7_21
ROOT
HETATM    1  N5  UNL     1      30.238  33.493  42.867  1.00  0.00    -0.362 N
ATOM      2  H5  UNL     1      30.786  33.178  43.667  1.00  0.00     0.162 HD
HETATM    3  C6  UNL     1      29.119  32.910  42.694  1.00  0.00     0.188 C
HETATM    4  N6  UNL     1      28.734  31.894  43.604  1.00  0.00    -0.064 NA
HETATM    5  N7  UNL     1      28.254  33.237  41.640  1.00  0.00    -0.326 N
ATOM      6  H7  UNL     1      27.458  33.824  41.888  1.00  0.00     0.168 HD
HETATM    7  C7  UNL     1      28.328  32.901  40.419  1.00  0.00     0.106 C
HETATM    8  C8  UNL     1      27.326  33.362  39.557  1.00  0.00     0.080 C
HETATM    9  C9  UNL     1      27.341  33.493  38.174  1.00  0.00     0.119 C
HETATM   10  N8  UNL     1      26.345  34.309  37.589  1.00  0.00    -0.083 NA
HETATM   11  N9  UNL     1      28.235  32.896  37.366  1.00  0.00    -0.341 N
ATOM     12  H9  UNL     1      27.921  32.794  36.401  1.00  0.00     0.167 HD
HETATM   13  C10 UNL     1      29.466  32.408  37.597  1.00  0.00     0.184 C
HETATM   14  N10 UNL     1      29.992  32.158  38.825  1.00  0.00    -0.318 N
ATOM     15  H10 UNL     1      30.998  31.987  38.840  1.00  0.00     0.169 HD
HETATM   16  C11 UNL     1      29.382  32.104  40.023  1.00  0.00     0.273 C
HETATM   17  O1  UNL     1      29.784  31.266  40.878  1.00  0.00    -0.266 OA
ENDROOT
BRANCH   1  18
HETATM   18  C5  UNL     1      30.820  34.533  42.082  1.00  0.00     0.156 C
BRANCH  18  19
HETATM   19  C4  UNL     1      31.877  35.318  42.798  1.00  0.00     0.221 C
BRANCH  19  20
HETATM   20  C3  UNL     1      32.886  35.934  41.892  1.00  0.00     0.185 C
BRANCH  20  21
HETATM   21  N3  UNL     1      32.441  37.252  41.390  1.00  0.00    -0.269 N
HETATM   22  C1  UNL     1      32.587  37.546  40.093  1.00  0.00     0.160 A
HETATM   23  N1  UNL     1      33.094  36.809  39.138  1.00  0.00    -0.378 N
HETATM   24  S1  UNL     1      31.939  39.128  40.026  1.00  0.00    -0.046 SA
ATOM     25  H12 UNL     1      33.205  37.033  38.149  1.00  0.00     0.158 HD
ATOM     26  H11 UNL     1      33.480  35.865  39.179  1.00  0.00     0.158 HD
HETATM   27  C2  UNL     1      31.529  39.290  41.679  1.00  0.00     0.160 A
HETATM   28  N2  UNL     1      31.921  38.118  42.154  1.00  0.00    -0.301 N
ATOM     29  H2  UNL     1      31.803  37.909  43.146  1.00  0.00     0.186 HD
ENDBRANCH  20  21
ENDBRANCH  19  20
BRANCH  19  30
HETATM   30  N4  UNL     1      32.545  34.543  43.809  1.00  0.00    -0.072 N
ATOM     31  H43 UNL     1      32.854  33.637  43.456  1.00  0.00     0.274 HD
ATOM     32  H42 UNL     1      33.459  34.928  44.047  1.00  0.00     0.274 HD
ATOM     33  H41 UNL     1      31.940  34.453  44.626  1.00  0.00     0.274 HD
ENDBRANCH  19  30
ENDBRANCH  18  19
ENDBRANCH   1  18
TORSDOF 5
ENDMDL