MODEL 5
REMARK VINA RESULT: -5.438393292      1.867      2.601
REMARK  7 active torsions:
REMARK  status: ('A' for Active; 'I' for Inactive)
REMARK    1  A    between atoms: O1_2  and  C2_3
REMARK    2  A    between atoms: C2_3  and  C3_5
REMARK    3  A    between atoms: C3_5  and  C4_6
REMARK    4  A    between atoms: C3_5  and  C8_23
REMARK       I    between atoms: C4_6  and  N1_8
REMARK    5  A    between atoms: N1_8  and  N2_10
REMARK    6  A    between atoms: N2_10  and  C5_12
REMARK    7  A    between atoms: C9_26  and  N7_27
ROOT
HETATM    1  C4  UNL     1      28.087  28.138  38.066  1.00  0.00     0.257 C
HETATM    2  O3  UNL     1      27.414  27.328  38.739  1.00  0.00    -0.270 OA
HETATM    3  N1  UNL     1      28.219  29.472  38.479  1.00  0.00    -0.267 N
ATOM      4  H1  UNL     1      28.775  30.104  37.904  1.00  0.00     0.190 HD
ENDROOT
BRANCH   1   5
HETATM    5  C3  UNL     1      28.745  27.679  36.829  1.00  0.00     0.248 C
BRANCH   5   6
HETATM    6  C2  UNL     1      30.058  28.333  36.599  1.00  0.00     0.279 C
HETATM    7  O2  UNL     1      31.152  27.786  36.889  1.00  0.00    -0.264 OA
BRANCH   6   8
HETATM    8  O1  UNL     1      30.143  29.604  36.044  1.00  0.00    -0.325 OA
HETATM    9  C1  UNL     1      29.260  30.079  35.049  1.00  0.00     0.213 C
ENDBRANCH   6   8
ENDBRANCH   5   6
BRANCH   5  10
HETATM   10  C8  UNL     1      28.838  26.196  36.740  1.00  0.00     0.135 A
HETATM   11  N6  UNL     1      29.723  25.395  37.360  1.00  0.00    -0.177 N
HETATM   12  C9  UNL     1      29.494  24.101  37.034  1.00  0.00     0.691 A
ATOM     13  H6  UNL     1      30.462  25.717  37.986  1.00  0.00     0.185 HD
HETATM   14  N8  UNL     1      28.441  24.117  36.193  1.00  0.00    -0.131 N
HETATM   15  N9  UNL     1      28.054  25.372  36.023  1.00  0.00    -0.273 N
ATOM     16  H8  UNL     1      28.012  23.298  35.760  1.00  0.00     0.205 HD
ATOM     17  H9  UNL     1      27.276  25.670  35.434  1.00  0.00     0.189 HD
BRANCH  12  18
HETATM   18  N7  UNL     1      30.181  23.118  37.476  1.00  0.00    -0.233 N
ATOM     19  H72 UNL     1      31.192  22.995  37.534  1.00  0.00     0.174 HD
ATOM     20  H71 UNL     1      29.776  22.262  37.857  1.00  0.00     0.174 HD
ENDBRANCH  12  18
ENDBRANCH   5  10
ENDBRANCH   1   5
BRANCH   3  21
HETATM   21  N2  UNL     1      27.621  29.983  39.649  1.00  0.00    -0.277 N
ATOM     22  H2  UNL     1      26.625  29.871  39.832  1.00  0.00     0.189 HD
BRANCH  21  23
HETATM   23  C5  UNL     1      28.392  30.600  40.475  1.00  0.00     0.167 A
HETATM   24  N3  UNL     1      27.952  31.146  41.617  1.00  0.00    -0.331 N
HETATM   25  C6  UNL     1      28.719  31.793  42.497  1.00  0.00     0.184 A
ATOM     26  H3  UNL     1      26.958  31.062  41.829  1.00  0.00     0.168 HD
HETATM   27  N4  UNL     1      30.026  32.016  42.421  1.00  0.00    -0.333 N
HETATM   28  C7  UNL     1      30.842  31.641  41.451  1.00  0.00     0.146 A
ATOM     29  H4  UNL     1      30.444  32.532  43.195  1.00  0.00     0.168 HD
HETATM   30  N5  UNL     1      32.097  31.919  41.491  1.00  0.00    -0.380 N
HETATM   31  S1  UNL     1      30.060  30.786  40.199  1.00  0.00    -0.017 SA
ATOM     32  H52 UNL     1      32.564  32.431  42.239  1.00  0.00     0.158 HD
ATOM     33  H51 UNL     1      32.726  31.630  40.742  1.00  0.00     0.158 HD
ENDBRANCH  21  23
ENDBRANCH   3  21
TORSDOF 7
ENDMDL