MODEL 4
REMARK VINA RESULT: -5.018264937      2.062      6.195
REMARK  7 active torsions:
REMARK  status: ('A' for Active; 'I' for Inactive)
REMARK       I    between atoms: C2_2  and  N1_4
REMARK    1  A    between atoms: C6_12  and  N4_13
REMARK    2  A    between atoms: C7_18  and  N6_19
REMARK    3  A    between atoms: N6_19  and  C8_21
REMARK    4  A    between atoms: N8_26  and  C11_27
REMARK    5  A    between atoms: C11_27  and  C12_28
REMARK    6  A    between atoms: C12_28  and  N9_29
REMARK    7  A    between atoms: C12_28  and  O2_33
ROOT
HETATM    1  C1  UNL     1      35.394  35.502  46.611  1.00  0.00     0.118 C
HETATM    2  C2  UNL     1      34.261  36.072  45.846  1.00  0.00     0.226 C
HETATM    3  O1  UNL     1      33.700  37.109  46.266  1.00  0.00    -0.273 OA
HETATM    4  N1  UNL     1      33.827  35.454  44.670  1.00  0.00    -0.262 N
HETATM    5  C3  UNL     1      34.371  34.269  44.073  1.00  0.00     0.193 A
HETATM    6  N2  UNL     1      33.725  33.978  42.987  1.00  0.00    -0.346 N
ATOM      7  H2  UNL     1      33.912  33.184  42.374  1.00  0.00     0.167 HD
HETATM    8  C4  UNL     1      32.713  34.955  42.800  1.00  0.00     0.124 A
HETATM    9  C5  UNL     1      32.760  35.881  43.833  1.00  0.00     0.161 A
HETATM   10  N3  UNL     1      31.870  36.886  43.820  1.00  0.00    -0.174 N
ATOM     11  H3  UNL     1      31.891  37.574  44.572  1.00  0.00     0.186 HD
HETATM   12  C6  UNL     1      30.945  37.012  42.838  1.00  0.00     0.679 A
HETATM   13  N5  UNL     1      30.917  36.097  41.838  1.00  0.00    -0.174 N
ATOM     14  H5  UNL     1      30.221  36.192  41.099  1.00  0.00     0.186 HD
HETATM   15  C7  UNL     1      31.782  35.069  41.795  1.00  0.00     0.167 A
ENDROOT
BRANCH  15  16
HETATM   16  N6  UNL     1      31.734  34.233  40.853  1.00  0.00    -0.173 N
ATOM     17  H6  UNL     1      31.855  34.627  39.920  1.00  0.00     0.186 HD
BRANCH  16  18
HETATM   18  C8  UNL     1      31.542  32.854  40.889  1.00  0.00     0.685 A
HETATM   19  N7  UNL     1      32.462  31.922  40.628  1.00  0.00    -0.200 N
HETATM   20  C9  UNL     1      31.944  30.691  40.753  1.00  0.00     0.124 A
ATOM     21  H7  UNL     1      33.429  32.120  40.368  1.00  0.00     0.183 HD
HETATM   22  C10 UNL     1      30.630  30.900  41.112  1.00  0.00     0.126 A
HETATM   23  N8  UNL     1      30.400  32.223  41.192  1.00  0.00    -0.188 N
BRANCH  23  24
HETATM   24  C11 UNL     1      29.111  32.797  41.548  1.00  0.00     0.207 C
BRANCH  24  25
HETATM   25  C12 UNL     1      29.087  33.119  43.027  1.00  0.00     0.335 C
BRANCH  25  26
HETATM   26  N9  UNL     1      28.149  34.172  43.320  1.00  0.00    -0.051 N
ATOM     27  H93 UNL     1      28.625  35.052  43.515  1.00  0.00     0.277 HD
ATOM     28  H92 UNL     1      27.631  34.454  42.487  1.00  0.00     0.277 HD
ATOM     29  H91 UNL     1      27.520  33.909  44.079  1.00  0.00     0.277 HD
ENDBRANCH  25  26
BRANCH  25  30
HETATM   30  O2  UNL     1      28.742  31.970  43.718  1.00  0.00    -0.369 OA
ATOM     31  H2  UNL     1      28.112  31.485  43.198  1.00  0.00     0.212 HD
ENDBRANCH  25  30
ENDBRANCH  24  25
ENDBRANCH  23  24
ENDBRANCH  16  18
ENDBRANCH  15  16
BRANCH  12  32
HETATM   32  N4  UNL     1      30.112  37.993  42.870  1.00  0.00    -0.234 N
ATOM     33  H42 UNL     1      29.774  38.373  43.755  1.00  0.00     0.174 HD
ATOM     34  H41 UNL     1      29.779  38.402  41.996  1.00  0.00     0.174 HD
ENDBRANCH  12  32
TORSDOF 7
ENDMDL