MODEL 1
REMARK VINA RESULT: -5.234104164      0.000      0.000
REMARK  8 active torsions:
REMARK  status: ('A' for Active; 'I' for Inactive)
REMARK    1  A    between atoms: O1_2  and  C2_3
REMARK    2  A    between atoms: C2_3  and  O2_5
REMARK    3  A    between atoms: O2_5  and  N1_6
REMARK    4  A    between atoms: N1_6  and  C4_8
REMARK    5  A    between atoms: C7_18  and  N5_19
REMARK    6  A    between atoms: N5_19  and  N6_21
REMARK    7  A    between atoms: C8_24  and  C9_25
REMARK       I    between atoms: C9_25  and  N7_27
REMARK    8  A    between atoms: N7_27  and  N8_29
ROOT
HETATM    1  C4  UNL     1      28.355  25.019  35.984  1.00  0.00     0.160 A
HETATM    2  N2  UNL     1      28.692  23.726  36.172  1.00  0.00    -0.291 N
ATOM      3  H2  UNL     1      28.261  23.021  35.575  1.00  0.00     0.172 HD
HETATM    4  C5  UNL     1      29.567  23.324  37.105  1.00  0.00     0.327 A
HETATM    5  O3  UNL     1      29.865  22.105  37.259  1.00  0.00    -0.247 OA
HETATM    6  N3  UNL     1      30.130  24.286  37.890  1.00  0.00    -0.292 N
ATOM      7  H3  UNL     1      30.799  24.009  38.609  1.00  0.00     0.172 HD
HETATM    8  C6  UNL     1      29.829  25.590  37.746  1.00  0.00     0.142 A
HETATM    9  N4  UNL     1      30.420  26.513  38.556  1.00  0.00    -0.323 N
ATOM     10  H4  UNL     1      31.087  26.212  39.267  1.00  0.00     0.169 HD
HETATM   11  C7  UNL     1      30.126  27.827  38.421  1.00  0.00     0.154 A
HETATM   12  C8  UNL     1      29.224  28.201  37.453  1.00  0.00     0.149 A
HETATM   13  N9  UNL     1      28.631  27.308  36.643  1.00  0.00    -0.343 N
ATOM     14  H9  UNL     1      27.966  27.616  35.933  1.00  0.00     0.166 HD
HETATM   15  C10 UNL     1      28.928  25.983  36.781  1.00  0.00     0.124 A
ENDROOT
BRANCH   1  16
HETATM   16  N1  UNL     1      27.516  25.406  35.089  1.00  0.00    -0.245 N
ATOM     17  H1  UNL     1      26.543  25.102  35.141  1.00  0.00     0.196 HD
BRANCH  16  18
HETATM   18  O2  UNL     1      27.920  26.226  34.064  1.00  0.00    -0.246 OA
BRANCH  18  19
HETATM   19  C2  UNL     1      27.423  26.044  32.737  1.00  0.00     0.283 C
HETATM   20  C3  UNL     1      27.532  27.392  32.058  1.00  0.00     0.073 C
BRANCH  19  21
HETATM   21  O1  UNL     1      26.126  25.605  32.848  1.00  0.00    -0.364 OA
HETATM   22  C1  UNL     1      25.758  24.691  31.884  1.00  0.00     0.204 C
ENDBRANCH  19  21
ENDBRANCH  18  19
ENDBRANCH  16  18
ENDBRANCH   1  16
BRANCH  12  23
HETATM   23  C9  UNL     1      28.920  29.642  37.324  1.00  0.00     0.290 C
HETATM   24  O4  UNL     1      28.438  30.288  38.286  1.00  0.00    -0.264 OA
HETATM   25  N7  UNL     1      29.165  30.329  36.107  1.00  0.00    -0.271 N
ATOM     26  H7  UNL     1      29.555  29.837  35.303  1.00  0.00     0.189 HD
BRANCH  25  27
HETATM   27  N8  UNL     1      28.862  31.686  36.030  1.00  0.00    -0.342 N
ATOM     28  H82 UNL     1      28.085  32.062  36.574  1.00  0.00     0.176 HD
ATOM     29  H81 UNL     1      29.429  32.282  35.426  1.00  0.00     0.176 HD
ENDBRANCH  25  27
ENDBRANCH  12  23
BRANCH  11  30
HETATM   30  N5  UNL     1      30.659  28.735  39.163  1.00  0.00    -0.290 N
ATOM     31  H5  UNL     1      30.059  29.310  39.755  1.00  0.00     0.188 HD
BRANCH  30  32
HETATM   32  N6  UNL     1      32.027  28.951  39.177  1.00  0.00    -0.344 N
ATOM     33  H62 UNL     1      32.642  28.138  39.210  1.00  0.00     0.176 HD
ATOM     34  H61 UNL     1      32.420  29.891  39.155  1.00  0.00     0.176 HD
ENDBRANCH  30  32
ENDBRANCH  11  30
TORSDOF 8
ENDMDL