MODEL 4
REMARK VINA RESULT: -5.393979085      3.821      7.343
REMARK  7 active torsions:
REMARK  status: ('A' for Active; 'I' for Inactive)
REMARK    1  A    between atoms: C4_8  and  N3_9
REMARK    2  A    between atoms: C5_12  and  N4_13
REMARK    3  A    between atoms: N5_16  and  N6_17
REMARK    4  A    between atoms: N7_19  and  N8_21
REMARK    5  A    between atoms: C8_23  and  C9_24
REMARK       I    between atoms: C9_24  and  N9_26
REMARK    6  A    between atoms: N9_26  and  N10_28
REMARK    7  A    between atoms: N11_32  and  N12_34
ROOT
HETATM    1  N4  UNL     1      31.348  35.515  42.054  1.00  0.00    -0.369 N
HETATM    2  C6  UNL     1      31.176  34.872  40.776  1.00  0.00     0.145 C
HETATM    3  C7  UNL     1      29.688  35.003  40.280  1.00  0.00     0.172 C
HETATM    4  N5  UNL     1      28.934  34.167  41.159  1.00  0.00    -0.260 N
HETATM    5  C10 UNL     1      29.382  34.197  42.503  1.00  0.00     0.131 C
HETATM    6  N11 UNL     1      29.131  33.245  43.328  1.00  0.00    -0.293 N
ATOM      7  H11 UNL     1      29.464  33.287  44.291  1.00  0.00     0.187 HD
HETATM    8  C11 UNL     1      30.170  35.436  42.873  1.00  0.00     0.202 C
ENDROOT
BRANCH   4   9
HETATM    9  N6  UNL     1      27.852  33.368  40.797  1.00  0.00    -0.225 N
HETATM   10  N7  UNL     1      27.191  33.649  39.768  1.00  0.00    -0.228 N
ATOM     11  H7  UNL     1      27.485  34.468  39.235  1.00  0.00     0.210 HD
ATOM     12  H6  UNL     1      27.599  32.560  41.365  1.00  0.00     0.210 HD
BRANCH  10  13
HETATM   13  N8  UNL     1      26.102  32.950  39.295  1.00  0.00    -0.291 N
HETATM   14  C8  UNL     1      25.266  33.389  38.429  1.00  0.00     0.184 C
ATOM     15  H8  UNL     1      25.949  32.011  39.663  1.00  0.00     0.187 HD
BRANCH  14  16
HETATM   16  C9  UNL     1      25.428  34.721  37.869  1.00  0.00     0.276 C
HETATM   17  O1  UNL     1      25.640  35.688  38.639  1.00  0.00    -0.265 OA
HETATM   18  N9  UNL     1      25.350  34.945  36.467  1.00  0.00    -0.272 N
ATOM     19  H9  UNL     1      25.179  34.164  35.835  1.00  0.00     0.189 HD
BRANCH  18  20
HETATM   20  N10 UNL     1      25.508  36.231  35.957  1.00  0.00    -0.342 N
ATOM     21 2H10 UNL     1      25.265  36.409  34.982  1.00  0.00     0.176 HD
ATOM     22 1H10 UNL     1      25.862  36.979  36.553  1.00  0.00     0.176 HD
ENDBRANCH  18  20
ENDBRANCH  14  16
ENDBRANCH  10  13
ENDBRANCH   4   9
BRANCH   6  23
HETATM   23  N12 UNL     1      28.399  32.158  42.879  1.00  0.00    -0.344 N
ATOM     24 2H12 UNL     1      27.765  31.675  43.515  1.00  0.00     0.176 HD
ATOM     25 1H12 UNL     1      28.512  31.862  41.909  1.00  0.00     0.176 HD
ENDBRANCH   6  23
BRANCH   1  26
HETATM   26  C5  UNL     1      32.594  36.081  42.430  1.00  0.00     0.083 A
HETATM   27  C2  UNL     1      33.589  35.422  43.115  1.00  0.00    -0.015 A
HETATM   28  C1  UNL     1      33.390  34.111  43.710  1.00  0.00     0.052 C
HETATM   29  C3  UNL     1      34.806  36.104  43.283  1.00  0.00     0.116 A
HETATM   30  N1  UNL     1      34.990  37.338  42.801  1.00  0.00    -0.310 N
HETATM   31  N2  UNL     1      34.022  37.947  42.149  1.00  0.00    -0.284 N
ATOM     32  H1  UNL     1      35.884  37.809  42.938  1.00  0.00     0.186 HD
HETATM   33  C4  UNL     1      32.831  37.383  41.937  1.00  0.00     0.141 A
ATOM     34  H2  UNL     1      34.190  38.888  41.792  1.00  0.00     0.188 HD
BRANCH  33  35
HETATM   35  N3  UNL     1      31.964  38.000  41.284  1.00  0.00    -0.383 N
ATOM     36  H32 UNL     1      31.935  37.961  40.265  1.00  0.00     0.157 HD
ATOM     37  H31 UNL     1      31.282  38.578  41.775  1.00  0.00     0.157 HD
ENDBRANCH  33  35
ENDBRANCH   1  26
TORSDOF 7
ENDMDL