MODEL 2
REMARK VINA RESULT: -6.053392938      3.525      5.288
REMARK  8 active torsions:
REMARK  status: ('A' for Active; 'I' for Inactive)
REMARK    1  A    between atoms: N1_1  and  N2_4
REMARK    2  A    between atoms: N2_4  and  C1_6
REMARK    3  A    between atoms: C2_9  and  C3_10
REMARK       I    between atoms: C3_10  and  N4_12
REMARK    4  A    between atoms: N4_12  and  C4_14
REMARK    5  A    between atoms: C4_14  and  O2_15
REMARK    6  A    between atoms: O2_15  and  N5_16
REMARK    7  A    between atoms: C7_23  and  O3_24
REMARK    8  A    between atoms: O3_24  and  S1_25
ROOT
HETATM    1  C1  UNL     1      29.192  31.389  37.649  1.00  0.00     0.706 A
HETATM    2  N3  UNL     1      29.192  31.900  38.891  1.00  0.00    -0.169 N
ATOM      3  H3  UNL     1      29.378  32.895  39.016  1.00  0.00     0.186 HD
HETATM    4  C2  UNL     1      28.955  31.140  39.975  1.00  0.00     0.191 A
HETATM    5  N6  UNL     1      28.716  29.837  39.754  1.00  0.00    -0.323 N
ATOM      6  H6  UNL     1      28.533  29.234  40.556  1.00  0.00     0.169 HD
HETATM    7  C5  UNL     1      28.708  29.283  38.510  1.00  0.00     0.132 A
HETATM    8  C6  UNL     1      28.448  27.913  38.396  1.00  0.00     0.088 A
HETATM    9  C7  UNL     1      28.439  27.353  37.137  1.00  0.00     0.097 A
HETATM   10  C8  UNL     1      28.691  28.194  36.078  1.00  0.00     0.056 A
HETATM   11  C9  UNL     1      28.943  29.534  36.217  1.00  0.00     0.119 A
HETATM   12  N7  UNL     1      28.948  30.064  37.441  1.00  0.00    -0.141 N
ENDROOT
BRANCH   4  13
HETATM   13  C3  UNL     1      28.956  31.705  41.331  1.00  0.00     0.287 C
HETATM   14  O1  UNL     1      28.190  31.173  42.175  1.00  0.00    -0.264 OA
HETATM   15  N4  UNL     1      29.796  32.801  41.653  1.00  0.00    -0.331 N
ATOM     16  H4  UNL     1      30.394  33.182  40.919  1.00  0.00     0.165 HD
BRANCH  15  17
HETATM   17  C4  UNL     1      29.849  33.404  42.957  1.00  0.00     0.326 C
BRANCH  17  18
HETATM   18  O2  UNL     1      29.053  34.561  43.040  1.00  0.00    -0.268 OA
BRANCH  18  19
HETATM   19  N5  UNL     1      27.811  34.150  43.394  1.00  0.00    -0.309 N
ATOM     20  H52 UNL     1      27.589  33.482  44.132  1.00  0.00     0.184 HD
ATOM     21  H51 UNL     1      27.159  34.638  42.781  1.00  0.00     0.184 HD
ENDBRANCH  18  19
ENDBRANCH  17  18
ENDBRANCH  15  17
ENDBRANCH   4  13
BRANCH   1  22
HETATM   22  N2  UNL     1      29.418  32.102  36.603  1.00  0.00    -0.138 N
ATOM     23  H2  UNL     1      30.255  31.888  36.063  1.00  0.00     0.205 HD
BRANCH  22  24
HETATM   24  N1  UNL     1      28.622  33.130  36.154  1.00  0.00    -0.331 N
ATOM     25  H12 UNL     1      28.173  32.990  35.249  1.00  0.00     0.177 HD
ATOM     26  H11 UNL     1      28.452  34.005  36.649  1.00  0.00     0.177 HD
ENDBRANCH  22  24
ENDBRANCH   1  22
BRANCH   9  27
HETATM   27  O3  UNL     1      28.187  25.989  36.945  1.00  0.00    -0.214 OA
BRANCH  27  28
HETATM   28  S1  UNL     1      29.487  24.877  36.953  1.00  0.00     0.256 S
HETATM   29  O4  UNL     1      30.170  24.898  35.594  1.00  0.00    -0.572 OA
HETATM   30  O5  UNL     1      30.534  25.285  37.949  1.00  0.00    -0.572 OA
HETATM   31  O6  UNL     1      28.961  23.324  37.243  1.00  0.00    -0.572 OA
ENDBRANCH  27  28
ENDBRANCH   9  27
TORSDOF 8
ENDMDL