MODEL 2
REMARK VINA RESULT: -4.719399286      2.434      3.655
REMARK  9 active torsions:
REMARK  status: ('A' for Active; 'I' for Inactive)
REMARK    1  A    between atoms: C2_2  and  C3_3
REMARK    2  A    between atoms: C3_3  and  N2_6
REMARK    3  A    between atoms: C3_3  and  C13_27
REMARK    4  A    between atoms: N2_6  and  C5_8
REMARK    5  A    between atoms: C6_11  and  N4_12
REMARK    6  A    between atoms: C11_21  and  N7_22
REMARK    7  A    between atoms: C13_27  and  O1_28
REMARK    8  A    between atoms: C13_27  and  N9_30
REMARK    9  A    between atoms: N9_30  and  N10_31
ROOT
HETATM    1  C3  UNL     1      29.761  32.902  41.670  1.00  0.00     0.163 C
HETATM    2  C4  UNL     1      29.147  32.399  42.940  1.00  0.00     0.095 C
HETATM    3  N1  UNL     1      28.681  31.992  43.917  1.00  0.00    -0.194 NA
ENDROOT
BRANCH   1   4
HETATM    4  C2  UNL     1      31.274  32.941  41.843  1.00  0.00     0.046 C
HETATM    5  C1  UNL     1      31.734  33.869  42.919  1.00  0.00     0.009 C
ENDBRANCH   1   4
BRANCH   1   6
HETATM    6  N2  UNL     1      29.393  32.205  40.562  1.00  0.00    -0.349 N
ATOM      7  H2  UNL     1      28.376  32.285  40.606  1.00  0.00     0.163 HD
BRANCH   6   8
HETATM    8  C5  UNL     1      29.533  31.555  39.568  1.00  0.00     0.149 A
HETATM    9  N3  UNL     1      29.962  30.253  39.683  1.00  0.00    -0.174 N
HETATM   10  C6  UNL     1      30.157  29.431  38.672  1.00  0.00     0.682 A
ATOM     11  H3  UNL     1      30.144  29.897  40.622  1.00  0.00     0.186 HD
HETATM   12  N5  UNL     1      29.923  29.890  37.430  1.00  0.00    -0.173 N
HETATM   13  C9  UNL     1      29.501  31.141  37.186  1.00  0.00     0.169 A
ATOM     14  H5  UNL     1      30.072  29.262  36.640  1.00  0.00     0.186 HD
HETATM   15  C10 UNL     1      29.308  31.973  38.271  1.00  0.00     0.138 A
HETATM   16  N8  UNL     1      29.206  31.810  36.049  1.00  0.00    -0.170 N
HETATM   17  N6  UNL     1      28.893  33.137  37.721  1.00  0.00    -0.184 N
HETATM   18  C11 UNL     1      28.832  33.036  36.385  1.00  0.00     0.680 A
ATOM     19  H6  UNL     1      28.658  33.976  38.250  1.00  0.00     0.184 HD
HETATM   20  C12 UNL     1      29.278  31.296  34.701  1.00  0.00     0.177 C
BRANCH  10  21
HETATM   21  N4  UNL     1      30.606  28.079  38.834  1.00  0.00    -0.226 N
HETATM   22  C7  UNL     1      32.011  27.809  39.035  1.00  0.00     0.168 C
HETATM   23  C8  UNL     1      29.699  26.967  38.803  1.00  0.00     0.168 C
ENDBRANCH  10  21
BRANCH  18  24
HETATM   24  N7  UNL     1      28.472  33.976  35.572  1.00  0.00    -0.234 N
ATOM     25  H72 UNL     1      27.514  34.250  35.351  1.00  0.00     0.174 HD
ATOM     26  H71 UNL     1      29.102  34.575  35.038  1.00  0.00     0.174 HD
ENDBRANCH  18  24
ENDBRANCH   6   8
ENDBRANCH   1   6
BRANCH   1  27
HETATM   27  C13 UNL     1      29.311  34.384  41.642  1.00  0.00     0.273 C
BRANCH  27  28
HETATM   28  O1  UNL     1      27.993  34.416  42.179  1.00  0.00    -0.374 OA
ATOM     29  H1  UNL     1      28.078  34.684  43.086  1.00  0.00     0.212 HD
ENDBRANCH  27  28
BRANCH  27  30
HETATM   30  N9  UNL     1      29.315  34.927  40.319  1.00  0.00    -0.113 NA
BRANCH  30  31
HETATM   31  N10 UNL     1      30.417  35.767  40.165  1.00  0.00    -0.346 N
ATOM     32 2H10 UNL     1      30.662  36.522  40.806  1.00  0.00     0.172 HD
ATOM     33 1H10 UNL     1      30.928  35.505  39.322  1.00  0.00     0.172 HD
ENDBRANCH  30  31
ENDBRANCH  27  30
ENDBRANCH   1  27
TORSDOF 9
ENDMDL