MODEL 3
REMARK VINA RESULT: -4.924262381      3.374      6.109
REMARK  8 active torsions:
REMARK  status: ('A' for Active; 'I' for Inactive)
REMARK    1  A    between atoms: O1_2  and  C2_3
REMARK    2  A    between atoms: C2_3  and  C3_4
REMARK    3  A    between atoms: C3_4  and  C4_5
REMARK    4  A    between atoms: C4_5  and  O2_6
REMARK    5  A    between atoms: N1_10  and  O3_11
REMARK    6  A    between atoms: C9_16  and  N3_17
REMARK    7  A    between atoms: C10_23  and  N5_24
REMARK       I    between atoms: N5_24  and  C11_26
REMARK    8  A    between atoms: C12_31  and  O4_32
ROOT
HETATM    1  C3  UNL     1      28.464  32.509  38.334  1.00  0.00     0.120 C
HETATM    2  N2  UNL     1      27.791  31.486  39.021  1.00  0.00    -0.364 N
ATOM      3  H2  UNL     1      26.858  31.217  38.707  1.00  0.00     0.158 HD
HETATM    4  C9  UNL     1      28.344  30.825  40.110  1.00  0.00     0.380 C
HETATM    5  N4  UNL     1      29.441  31.459  40.734  1.00  0.00    -0.357 N
ATOM      6  H4  UNL     1      30.155  30.935  41.242  1.00  0.00     0.159 HD
HETATM    7  C10 UNL     1      29.486  32.890  40.607  1.00  0.00     0.214 C
HETATM    8  C12 UNL     1      29.473  33.277  39.173  1.00  0.00     0.194 C
ENDROOT
BRANCH   1   9
HETATM    9  C2  UNL     1      27.429  33.497  37.857  1.00  0.00     0.204 C
BRANCH   9  10
HETATM   10  O1  UNL     1      26.676  34.069  38.864  1.00  0.00    -0.393 OA
HETATM   11  C1  UNL     1      25.357  34.135  38.440  1.00  0.00     0.201 C
ENDBRANCH   9  10
ENDBRANCH   1   9
BRANCH   1  12
HETATM   12  C4  UNL     1      29.143  31.925  37.117  1.00  0.00     0.143 A
HETATM   13  C6  UNL     1      28.920  30.493  36.896  1.00  0.00     0.039 A
HETATM   14  C7  UNL     1      30.105  29.861  36.916  1.00  0.00     0.121 A
HETATM   15  N1  UNL     1      31.097  30.817  37.139  1.00  0.00    -0.248 N
HETATM   16  C8  UNL     1      30.627  31.994  37.260  1.00  0.00     0.140 A
BRANCH  12  17
HETATM   17  O2  UNL     1      28.805  32.700  35.977  1.00  0.00    -0.373 OA
HETATM   18  C5  UNL     1      29.913  33.301  35.433  1.00  0.00     0.203 C
ENDBRANCH  12  17
BRANCH  15  19
HETATM   19  O3  UNL     1      32.452  30.485  37.215  1.00  0.00    -0.284 OA
ATOM     20  H3  UNL     1      33.126  31.134  37.379  1.00  0.00     0.245 HD
ENDBRANCH  15  19
ENDBRANCH   1  12
BRANCH   8  21
HETATM   21  O4  UNL     1      29.400  34.639  39.048  1.00  0.00    -0.389 OA
ATOM     22  H4  UNL     1      29.513  35.118  39.861  1.00  0.00     0.210 HD
ENDBRANCH   8  21
BRANCH   4  23
HETATM   23  N3  UNL     1      27.276  30.473  41.055  1.00  0.00    -0.041 N
ATOM     24  H33 UNL     1      26.632  31.247  41.216  1.00  0.00     0.278 HD
ATOM     25  H32 UNL     1      26.610  29.811  40.657  1.00  0.00     0.278 HD
ATOM     26  H31 UNL     1      27.693  30.129  41.920  1.00  0.00     0.278 HD
ENDBRANCH   4  23
BRANCH   7  27
HETATM   27  N5  UNL     1      28.501  33.521  41.447  1.00  0.00    -0.341 N
HETATM   28  C11 UNL     1      28.451  33.427  42.845  1.00  0.00     0.183 C
HETATM   29  N6  UNL     1      28.134  34.444  43.552  1.00  0.00    -0.374 N
HETATM   30  N7  UNL     1      28.743  32.218  43.510  1.00  0.00    -0.064 NA
ATOM     31  H62 UNL     1      27.922  35.318  43.071  1.00  0.00     0.158 HD
ATOM     32  H61 UNL     1      28.098  34.375  44.569  1.00  0.00     0.158 HD
ATOM     33  H5  UNL     1      27.782  34.083  40.989  1.00  0.00     0.164 HD
ENDBRANCH   7  27
TORSDOF 8
ENDMDL