MODEL 2
REMARK VINA RESULT: -5.183445340      2.701      6.206
REMARK  8 active torsions:
REMARK  status: ('A' for Active; 'I' for Inactive)
REMARK    1  A    between atoms: C4_6  and  N2_7
REMARK    2  A    between atoms: N2_7  and  C5_9
REMARK    3  A    between atoms: C5_9  and  C6_10
REMARK    4  A    between atoms: C5_9  and  C10_21
REMARK    5  A    between atoms: C8_14  and  N4_15
REMARK    6  A    between atoms: C10_21  and  O1_22
REMARK    7  A    between atoms: C10_21  and  C11_24
REMARK    8  A    between atoms: C12_27  and  N7_28
ROOT
HETATM    1  C5  UNL     1      29.541  31.764  38.746  1.00  0.00     0.156 C
ENDROOT
BRANCH   1   2
HETATM    2  N2  UNL     1      28.553  32.179  39.706  1.00  0.00    -0.364 N
ATOM      3  H2  UNL     1      27.571  32.138  39.432  1.00  0.00     0.161 HD
BRANCH   2   4
HETATM    4  C4  UNL     1      28.863  32.646  41.023  1.00  0.00     0.135 C
HETATM    5  N1  UNL     1      29.347  33.819  41.234  1.00  0.00    -0.349 N
HETATM    6  C2  UNL     1      29.618  34.169  42.621  1.00  0.00     0.117 C
ATOM      7  H1  UNL     1      29.529  34.470  40.470  1.00  0.00     0.163 HD
HETATM    8  C1  UNL     1      29.492  35.691  42.708  1.00  0.00     0.064 C
HETATM    9  C3  UNL     1      31.039  33.811  42.969  1.00  0.00     0.064 C
HETATM   10  N8  UNL     1      28.664  33.611  43.521  1.00  0.00    -0.271 N
HETATM   11  O3  UNL     1      28.344  32.343  43.353  1.00  0.00    -0.241 OA
ATOM     12  H8  UNL     1      28.247  34.169  44.266  1.00  0.00     0.190 HD
HETATM   13  C12 UNL     1      28.629  31.754  42.159  1.00  0.00     0.413 C
BRANCH  13  14
HETATM   14  N7  UNL     1      27.642  30.761  41.761  1.00  0.00    -0.043 N
ATOM     15  H73 UNL     1      26.727  31.170  41.572  1.00  0.00     0.278 HD
ATOM     16  H72 UNL     1      27.818  30.382  40.831  1.00  0.00     0.278 HD
ATOM     17  H71 UNL     1      27.610  30.039  42.481  1.00  0.00     0.278 HD
ENDBRANCH  13  14
ENDBRANCH   2   4
ENDBRANCH   1   2
BRANCH   1  18
HETATM   18  C6  UNL     1      29.668  30.282  38.841  1.00  0.00    -0.001 A
HETATM   19  C7  UNL     1      30.883  29.711  39.140  1.00  0.00     0.116 A
HETATM   20  N3  UNL     1      30.991  28.363  39.225  1.00  0.00    -0.202 N
HETATM   21  C8  UNL     1      29.954  27.550  39.029  1.00  0.00     0.675 A
ATOM     22  H3  UNL     1      31.899  27.956  39.448  1.00  0.00     0.183 HD
HETATM   23  N5  UNL     1      28.763  28.100  38.737  1.00  0.00    -0.202 N
HETATM   24  C9  UNL     1      28.595  29.441  38.638  1.00  0.00     0.116 A
ATOM     25  H5  UNL     1      27.961  27.488  38.585  1.00  0.00     0.183 HD
BRANCH  21  26
HETATM   26  N4  UNL     1      30.118  26.285  39.123  1.00  0.00    -0.234 N
ATOM     27  H42 UNL     1      30.209  25.686  38.302  1.00  0.00     0.174 HD
ATOM     28  H41 UNL     1      30.159  25.850  40.044  1.00  0.00     0.174 HD
ENDBRANCH  21  26
ENDBRANCH   1  18
BRANCH   1  29
HETATM   29  C10 UNL     1      29.079  32.129  37.371  1.00  0.00     0.234 C
BRANCH  29  30
HETATM   30  O1  UNL     1      30.130  31.924  36.455  1.00  0.00    -0.384 OA
ATOM     31  H1  UNL     1      29.796  31.472  35.688  1.00  0.00     0.210 HD
ENDBRANCH  29  30
BRANCH  29  32
HETATM   32  C11 UNL     1      28.644  33.534  37.357  1.00  0.00     0.262 C
HETATM   33  N6  UNL     1      29.588  34.565  37.514  1.00  0.00    -0.060 NA
HETATM   34  O2  UNL     1      27.433  33.803  37.204  1.00  0.00    -0.274 OA
ENDBRANCH  29  32
ENDBRANCH   1  29
TORSDOF 8
ENDMDL