MODEL 3
REMARK VINA RESULT: -6.350431472      2.928      8.308
REMARK  7 active torsions:
REMARK  status: ('A' for Active; 'I' for Inactive)
REMARK    1  A    between atoms: C2_2  and  N1_3
REMARK    2  A    between atoms: C2_2  and  C9_32
REMARK    3  A    between atoms: N1_3  and  C3_5
REMARK    4  A    between atoms: C4_8  and  N3_9
REMARK    5  A    between atoms: C6_15  and  C7_16
REMARK    6  A    between atoms: C9_32  and  N12_33
REMARK    7  A    between atoms: C9_32  and  C10_37
ROOT
HETATM    1  C3  UNL     1      30.526  31.183  40.441  1.00  0.00     0.681 A
HETATM    2  N2  UNL     1      29.196  30.974  40.450  1.00  0.00    -0.175 N
ATOM      3  H2  UNL     1      28.595  31.628  40.950  1.00  0.00     0.186 HD
HETATM    4  C4  UNL     1      28.640  29.929  39.820  1.00  0.00     0.145 A
HETATM    5  C5  UNL     1      29.428  29.010  39.122  1.00  0.00     0.125 A
HETATM    6  N4  UNL     1      28.916  27.949  38.477  1.00  0.00    -0.332 N
ATOM      7  H4  UNL     1      27.908  27.793  38.487  1.00  0.00     0.168 HD
HETATM    8  C6  UNL     1      29.721  27.080  37.810  1.00  0.00     0.168 A
HETATM    9  N9  UNL     1      31.044  27.314  37.819  1.00  0.00    -0.281 N
ATOM     10  H9  UNL     1      31.669  26.676  37.327  1.00  0.00     0.188 HD
HETATM   11  N10 UNL     1      31.547  28.355  38.452  1.00  0.00    -0.281 N
ATOM     12  H10 UNL     1      32.556  28.497  38.433  1.00  0.00     0.188 HD
HETATM   13  C8  UNL     1      30.783  29.237  39.122  1.00  0.00     0.166 A
HETATM   14  N11 UNL     1      31.295  30.308  39.775  1.00  0.00    -0.173 N
ATOM     15  H11 UNL     1      32.305  30.455  39.760  1.00  0.00     0.186 HD
ENDROOT
BRANCH   1  16
HETATM   16  N1  UNL     1      31.014  32.194  41.057  1.00  0.00    -0.219 N
ATOM     17  H1  UNL     1      31.907  32.107  41.542  1.00  0.00     0.178 HD
BRANCH  16  18
HETATM   18  C2  UNL     1      30.320  33.442  41.070  1.00  0.00     0.134 C
HETATM   19  C1  UNL     1      31.097  34.436  40.239  1.00  0.00     0.035 C
BRANCH  18  20
HETATM   20  C9  UNL     1      30.241  34.029  42.470  1.00  0.00     0.294 C
BRANCH  20  21
HETATM   21  N12 UNL     1      31.462  33.834  43.185  1.00  0.00    -0.065 N
ATOM     22 3H12 UNL     1      31.550  32.875  43.521  1.00  0.00     0.275 HD
ATOM     23 2H12 UNL     1      32.269  33.856  42.560  1.00  0.00     0.275 HD
ATOM     24 1H12 UNL     1      31.559  34.507  43.945  1.00  0.00     0.275 HD
ENDBRANCH  20  21
BRANCH  20  25
HETATM   25  C10 UNL     1      29.079  33.528  43.227  1.00  0.00     0.263 C
HETATM   26  N13 UNL     1      28.990  32.165  43.604  1.00  0.00    -0.060 NA
HETATM   27  O1  UNL     1      28.157  34.321  43.543  1.00  0.00    -0.274 OA
ENDBRANCH  20  25
ENDBRANCH  18  20
ENDBRANCH  16  18
ENDBRANCH   1  16
BRANCH   4  28
HETATM   28  N3  UNL     1      27.360  29.744  39.840  1.00  0.00    -0.383 N
ATOM     29  H32 UNL     1      26.848  29.831  38.962  1.00  0.00     0.157 HD
ATOM     30  H31 UNL     1      26.876  29.520  40.709  1.00  0.00     0.157 HD
ENDBRANCH   4  28
BRANCH   8  31
HETATM   31  C7  UNL     1      29.165  25.928  37.109  1.00  0.00     0.183 A
HETATM   32  N5  UNL     1      28.135  25.997  36.255  1.00  0.00    -0.266 N
HETATM   33  N6  UNL     1      27.871  24.772  35.785  1.00  0.00    -0.226 N
ATOM     34  H5  UNL     1      27.632  26.848  36.003  1.00  0.00     0.190 HD
HETATM   35  N7  UNL     1      28.722  23.932  36.333  1.00  0.00    -0.226 N
ATOM     36  H6  UNL     1      27.137  24.532  35.119  1.00  0.00     0.210 HD
HETATM   37  N8  UNL     1      29.515  24.635  37.143  1.00  0.00    -0.266 N
ATOM     38  H7  UNL     1      28.768  22.926  36.169  1.00  0.00     0.210 HD
ATOM     39  H8  UNL     1      30.274  24.247  37.705  1.00  0.00     0.190 HD
ENDBRANCH   8  31
TORSDOF 7
ENDMDL