MODEL 3
REMARK VINA RESULT: -5.262412603      5.151      6.964
REMARK  9 active torsions:
REMARK  status: ('A' for Active; 'I' for Inactive)
REMARK    1  A    between atoms: C2_2  and  C3_4
REMARK    2  A    between atoms: N2_7  and  C4_8
REMARK    3  A    between atoms: C4_8  and  C5_9
REMARK       I    between atoms: C5_9  and  N3_11
REMARK    4  A    between atoms: N3_11  and  C6_13
REMARK    5  A    between atoms: C9_16  and  N4_17
REMARK    6  A    between atoms: C11_22  and  N5_23
REMARK    7  A    between atoms: C12_27  and  N6_28
REMARK    8  A    between atoms: N6_28  and  N7_30
REMARK    9  A    between atoms: N8_33  and  N9_34
ROOT
HETATM    1  C4  UNL     1      29.984  26.803  38.801  1.00  0.00     0.270 C
ENDROOT
BRANCH   1   2
HETATM    2  N2  UNL     1      29.687  26.078  37.580  1.00  0.00    -0.110 N
HETATM    3  N1  UNL     1      29.279  26.580  36.426  1.00  0.00    -0.263 N
HETATM    4  C3  UNL     1      29.108  25.595  35.525  1.00  0.00     0.205 A
ATOM      5  H1  UNL     1      29.118  27.571  36.247  1.00  0.00     0.189 HD
HETATM    6  N8  UNL     1      29.418  24.423  36.130  1.00  0.00    -0.068 N
HETATM    7  C12 UNL     1      29.768  24.751  37.386  1.00  0.00     0.736 A
BRANCH   4   8
HETATM    8  C2  UNL     1      28.670  25.734  34.143  1.00  0.00     0.193 C
HETATM    9  C1  UNL     1      28.265  27.082  33.664  1.00  0.00     0.100 C
HETATM   10  O1  UNL     1      28.641  24.723  33.384  1.00  0.00    -0.289 OA
ENDBRANCH   4   8
BRANCH   6  11
HETATM   11  N9  UNL     1      29.391  23.140  35.598  1.00  0.00    -0.322 N
ATOM     12  H92 UNL     1      29.164  22.895  34.634  1.00  0.00     0.178 HD
ATOM     13  H91 UNL     1      29.586  22.254  36.064  1.00  0.00     0.178 HD
ENDBRANCH   6  11
BRANCH   7  14
HETATM   14  N6  UNL     1      30.140  23.935  38.321  1.00  0.00    -0.135 N
ATOM     15  H6  UNL     1      29.438  23.573  38.966  1.00  0.00     0.205 HD
BRANCH  14  16
HETATM   16  N7  UNL     1      31.468  23.535  38.479  1.00  0.00    -0.331 N
ATOM     17  H72 UNL     1      32.067  23.537  37.653  1.00  0.00     0.177 HD
ATOM     18  H71 UNL     1      31.849  23.246  39.380  1.00  0.00     0.177 HD
ENDBRANCH  14  16
ENDBRANCH   7  14
ENDBRANCH   1   2
BRANCH   1  19
HETATM   19  C5  UNL     1      29.027  27.921  39.013  1.00  0.00     0.238 C
HETATM   20  O2  UNL     1      27.805  27.728  38.804  1.00  0.00    -0.272 OA
HETATM   21  N3  UNL     1      29.514  29.179  39.446  1.00  0.00    -0.353 N
ATOM     22  H3  UNL     1      30.514  29.303  39.607  1.00  0.00     0.163 HD
BRANCH  21  23
HETATM   23  C6  UNL     1      28.612  30.295  39.664  1.00  0.00     0.115 C
HETATM   24  C7  UNL     1      28.641  31.200  38.453  1.00  0.00     0.029 C
HETATM   25  C8  UNL     1      28.172  32.584  38.828  1.00  0.00     0.035 C
HETATM   26  C9  UNL     1      29.225  33.222  39.708  1.00  0.00     0.185 C
HETATM   27  C10 UNL     1      29.983  32.169  40.503  1.00  0.00     0.067 C
HETATM   28  C11 UNL     1      29.074  31.025  40.898  1.00  0.00     0.208 C
BRANCH  26  29
HETATM   29  N4  UNL     1      30.201  33.884  38.846  1.00  0.00    -0.075 N
ATOM     30  H43 UNL     1      31.158  33.776  39.182  1.00  0.00     0.274 HD
ATOM     31  H42 UNL     1      30.316  33.413  37.949  1.00  0.00     0.274 HD
ATOM     32  H41 UNL     1      29.928  34.861  38.746  1.00  0.00     0.274 HD
ENDBRANCH  26  29
BRANCH  28  33
HETATM   33  N5  UNL     1      27.891  31.496  41.599  1.00  0.00    -0.073 N
ATOM     34  H53 UNL     1      27.704  32.487  41.442  1.00  0.00     0.274 HD
ATOM     35  H52 UNL     1      27.024  31.133  41.203  1.00  0.00     0.274 HD
ATOM     36  H51 UNL     1      28.004  31.265  42.586  1.00  0.00     0.274 HD
ENDBRANCH  28  33
ENDBRANCH  21  23
ENDBRANCH   1  19
TORSDOF 9
ENDMDL