MODEL 4
REMARK VINA RESULT: -5.359102894      2.747      3.338
REMARK  9 active torsions:
REMARK  status: ('A' for Active; 'I' for Inactive)
REMARK    1  A    between atoms: N1_1  and  C1_4
REMARK    2  A    between atoms: C4_9  and  N3_10
REMARK    3  A    between atoms: N3_10  and  N4_12
REMARK    4  A    between atoms: C5_14  and  C6_15
REMARK    5  A    between atoms: C6_15  and  O1_16
REMARK    6  A    between atoms: C6_15  and  C7_18
REMARK    7  A    between atoms: C7_18  and  O2_19
REMARK    8  A    between atoms: C7_18  and  C8_21
REMARK    9  A    between atoms: C8_21  and  O3_22
ROOT
HETATM    1  C1  UNL     1      32.087  30.291  40.034  1.00  0.00     0.679 A
HETATM    2  N2  UNL     1      31.827  29.210  39.293  1.00  0.00    -0.169 N
ATOM      3  H2  UNL     1      32.609  28.650  38.954  1.00  0.00     0.186 HD
HETATM    4  C2  UNL     1      30.558  28.823  38.970  1.00  0.00     0.190 A
HETATM    5  C3  UNL     1      29.490  29.548  39.408  1.00  0.00     0.065 A
HETATM    6  C4  UNL     1      29.777  30.678  40.184  1.00  0.00     0.148 A
HETATM    7  N5  UNL     1      31.044  31.017  40.473  1.00  0.00    -0.175 N
ATOM      8  H5  UNL     1      31.219  31.847  41.040  1.00  0.00     0.186 HD
HETATM    9  C9  UNL     1      28.072  29.282  39.158  1.00  0.00     0.239 C
HETATM   10  O4  UNL     1      27.738  27.997  38.839  1.00  0.00    -0.249 OA
HETATM   11  S1  UNL     1      28.770  27.466  37.595  1.00  0.00     0.408 S
HETATM   12  O5  UNL     1      28.543  26.034  37.274  1.00  0.00    -0.168 OA
HETATM   13  O6  UNL     1      28.532  28.377  36.421  1.00  0.00    -0.168 OA
HETATM   14  O7  UNL     1      30.348  27.691  38.196  1.00  0.00    -0.191 OA
ENDROOT
BRANCH   6  15
HETATM   15  N3  UNL     1      28.800  31.419  40.636  1.00  0.00    -0.285 N
ATOM     16  H3  UNL     1      28.361  32.107  40.025  1.00  0.00     0.188 HD
BRANCH  15  17
HETATM   17  N4  UNL     1      28.361  31.276  41.933  1.00  0.00    -0.312 N
HETATM   18  C5  UNL     1      28.586  32.182  42.804  1.00  0.00     0.114 C
ATOM     19  H4  UNL     1      27.849  30.436  42.202  1.00  0.00     0.185 HD
BRANCH  18  20
HETATM   20  C6  UNL     1      29.324  33.397  42.415  1.00  0.00     0.188 C
BRANCH  20  21
HETATM   21  O1  UNL     1      30.694  33.101  42.568  1.00  0.00    -0.388 OA
ATOM     22  H1  UNL     1      30.768  32.154  42.565  1.00  0.00     0.210 HD
ENDBRANCH  20  21
BRANCH  20  23
HETATM   23  C7  UNL     1      28.929  34.598  43.235  1.00  0.00     0.175 C
BRANCH  23  24
HETATM   24  O2  UNL     1      27.559  34.626  43.387  1.00  0.00    -0.391 OA
ATOM     25  H2  UNL     1      27.144  34.716  42.537  1.00  0.00     0.210 HD
ENDBRANCH  23  24
BRANCH  23  26
HETATM   26  C8  UNL     1      29.421  35.828  42.513  1.00  0.00     0.198 C
BRANCH  26  27
HETATM   27  O3  UNL     1      29.927  35.491  41.265  1.00  0.00    -0.398 OA
ATOM     28  H3  UNL     1      30.876  35.460  41.287  1.00  0.00     0.209 HD
ENDBRANCH  26  27
ENDBRANCH  23  26
ENDBRANCH  20  23
ENDBRANCH  18  20
ENDBRANCH  15  17
ENDBRANCH   6  15
BRANCH   1  29
HETATM   29  N1  UNL     1      33.294  30.646  40.332  1.00  0.00    -0.234 N
ATOM     30  H12 UNL     1      33.955  29.958  40.694  1.00  0.00     0.174 HD
ATOM     31  H11 UNL     1      33.619  31.606  40.219  1.00  0.00     0.174 HD
ENDBRANCH   1  29
TORSDOF 9
ENDMDL