MODEL 2
REMARK VINA RESULT: -5.342707289      2.704      4.423
REMARK  9 active torsions:
REMARK  status: ('A' for Active; 'I' for Inactive)
REMARK    1  A    between atoms: C2_7  and  S1_8
REMARK    2  A    between atoms: S1_8  and  N3_9
REMARK    3  A    between atoms: C3_15  and  N4_16
REMARK    4  A    between atoms: N4_16  and  C4_18
REMARK    5  A    between atoms: C4_18  and  N5_19
REMARK    6  A    between atoms: C4_18  and  C5_24
REMARK    7  A    between atoms: N5_19  and  N6_21
REMARK    8  A    between atoms: C5_24  and  O5_25
REMARK    9  A    between atoms: C5_24  and  O6_27
ROOT
HETATM    1  N1  UNL     1      26.560  33.726  38.966  1.00  0.00    -0.234 N
ATOM      2  H11 UNL     1      26.281  33.521  38.007  1.00  0.00     0.174 HD
ATOM      3  H12 UNL     1      26.202  34.439  39.601  1.00  0.00     0.174 HD
HETATM    4  C1  UNL     1      27.518  32.956  39.439  1.00  0.00     0.679 A
HETATM    5  N2  UNL     1      27.879  33.219  40.677  1.00  0.00    -0.173 N
ATOM      6  H2  UNL     1      27.386  33.985  41.137  1.00  0.00     0.185 HD
HETATM    7  C2  UNL     1      28.809  32.607  41.394  1.00  0.00     0.208 A
HETATM    8  S2  UNL     1      29.574  31.345  40.532  1.00  0.00    -0.022 SA
HETATM    9  C3  UNL     1      28.959  31.163  38.936  1.00  0.00     0.164 A
HETATM   10  N7  UNL     1      27.987  32.024  38.608  1.00  0.00    -0.170 N
ATOM     11  H7  UNL     1      27.583  31.963  37.674  1.00  0.00     0.186 HD
ENDROOT
BRANCH   9  12
HETATM   12  N4  UNL     1      29.438  30.254  38.170  1.00  0.00    -0.343 N
ATOM     13  H4  UNL     1      30.335  29.846  38.433  1.00  0.00     0.164 HD
BRANCH  12  14
HETATM   14  C4  UNL     1      28.827  29.769  36.991  1.00  0.00     0.260 C
BRANCH  14  15
HETATM   15  N5  UNL     1      29.160  28.340  36.867  1.00  0.00    -0.249 N
ATOM     16  H5  UNL     1      29.954  28.063  36.290  1.00  0.00     0.189 HD
BRANCH  15  17
HETATM   17  N6  UNL     1      28.419  27.354  37.519  1.00  0.00    -0.041 N
HETATM   18  O3  UNL     1      28.387  26.174  37.128  1.00  0.00    -0.517 OA
HETATM   19  O4  UNL     1      27.691  27.681  38.635  1.00  0.00    -0.517 OA
ENDBRANCH  15  17
ENDBRANCH  14  15
BRANCH  14  20
HETATM   20  C5  UNL     1      29.401  30.435  35.730  1.00  0.00     0.297 C
BRANCH  20  21
HETATM   21  O5  UNL     1      29.052  29.615  34.662  1.00  0.00    -0.368 OA
ATOM     22  H5  UNL     1      29.825  29.103  34.456  1.00  0.00     0.212 HD
ENDBRANCH  20  21
BRANCH  20  23
HETATM   23  O6  UNL     1      28.851  31.683  35.569  1.00  0.00    -0.368 OA
ATOM     24  H6  UNL     1      29.334  32.317  36.085  1.00  0.00     0.212 HD
ENDBRANCH  20  23
ENDBRANCH  14  20
ENDBRANCH  12  14
ENDBRANCH   9  12
BRANCH   7  25
HETATM   25  S1  UNL     1      29.190  33.061  43.036  1.00  0.00     0.279 S
HETATM   26  O1  UNL     1      28.900  31.889  43.951  1.00  0.00    -0.199 OA
HETATM   27  O2  UNL     1      30.601  33.521  43.178  1.00  0.00    -0.199 OA
BRANCH  25  28
HETATM   28  N3  UNL     1      28.136  34.340  43.515  1.00  0.00    -0.323 N
ATOM     29  H32 UNL     1      28.300  35.330  43.333  1.00  0.00     0.169 HD
ATOM     30  H31 UNL     1      27.335  33.938  44.002  1.00  0.00     0.169 HD
ENDBRANCH  25  28
ENDBRANCH   7  25
TORSDOF 9
ENDMDL