MODEL 4
REMARK VINA RESULT: -5.087188704      1.808      2.057
REMARK  7 active torsions:
REMARK  status: ('A' for Active; 'I' for Inactive)
REMARK    1  A    between atoms: O1_2  and  C2_3
REMARK    2  A    between atoms: C5_6  and  C6_7
REMARK    3  A    between atoms: C6_7  and  N1_8
REMARK    4  A    between atoms: C9_22  and  O3_23
REMARK    5  A    between atoms: C9_22  and  C11_25
REMARK       I    between atoms: C11_25  and  N6_27
REMARK    6  A    between atoms: N6_27  and  N7_29
REMARK    7  A    between atoms: N7_29  and  N8_30
ROOT
HETATM    1  C2  UNL     1      28.660  32.154  40.149  1.00  0.00     0.185 C
HETATM    2  C3  UNL     1      29.554  31.256  40.977  1.00  0.00     0.070 C
HETATM    3  C4  UNL     1      30.288  31.906  42.091  1.00  0.00     0.060 C
HETATM    4  C5  UNL     1      31.084  33.119  41.665  1.00  0.00     0.132 C
HETATM    5  N2  UNL     1      30.193  34.248  42.051  1.00  0.00    -0.337 N
ATOM      6  H2  UNL     1      30.567  34.991  42.642  1.00  0.00     0.164 HD
HETATM    7  C7  UNL     1      28.947  34.320  41.656  1.00  0.00     0.188 C
HETATM    8  N3  UNL     1      28.206  35.448  42.102  1.00  0.00    -0.064 NA
HETATM    9  N4  UNL     1      28.287  33.379  40.815  1.00  0.00    -0.330 N
ATOM     10  H4  UNL     1      27.314  33.632  40.641  1.00  0.00     0.165 HD
HETATM   11  N5  UNL     1      31.419  33.151  40.271  1.00  0.00    -0.330 N
ATOM     12  H5  UNL     1      32.246  33.714  40.070  1.00  0.00     0.165 HD
HETATM   13  C8  UNL     1      30.847  32.569  39.118  1.00  0.00     0.269 C
HETATM   14  O2  UNL     1      31.579  32.178  38.211  1.00  0.00    -0.269 OA
HETATM   15  C9  UNL     1      29.377  32.349  38.827  1.00  0.00     0.273 C
ENDROOT
BRANCH  15  16
HETATM   16  O3  UNL     1      29.189  31.364  37.905  1.00  0.00    -0.363 OA
HETATM   17  C10 UNL     1      29.293  31.520  36.599  1.00  0.00     0.204 C
ENDBRANCH  15  16
BRANCH  15  18
HETATM   18  C11 UNL     1      28.887  33.565  38.156  1.00  0.00     0.284 C
HETATM   19  O4  UNL     1      29.569  34.569  37.998  1.00  0.00    -0.268 OA
HETATM   20  N6  UNL     1      27.555  33.579  37.658  1.00  0.00    -0.251 N
ATOM     21  H6  UNL     1      26.977  32.749  37.781  1.00  0.00     0.187 HD
BRANCH  20  22
HETATM   22  N7  UNL     1      27.006  34.690  37.004  1.00  0.00    -0.027 NA
BRANCH  22  23
HETATM   23  N8  UNL     1      27.688  34.843  35.793  1.00  0.00    -0.329 N
ATOM     24  H82 UNL     1      27.324  34.595  34.873  1.00  0.00     0.174 HD
ATOM     25  H81 UNL     1      28.602  35.242  36.006  1.00  0.00     0.174 HD
ENDBRANCH  22  23
ENDBRANCH  20  22
ENDBRANCH  15  18
BRANCH   1  26
HETATM   26  O1  UNL     1      27.447  31.522  39.795  1.00  0.00    -0.361 OA
HETATM   27  C1  UNL     1      27.192  30.348  40.417  1.00  0.00     0.205 C
ENDBRANCH   1  26
BRANCH   4  28
HETATM   28  C6  UNL     1      32.334  33.264  42.500  1.00  0.00     0.283 C
BRANCH  28  29
HETATM   29  N1  UNL     1      32.238  34.234  43.539  1.00  0.00    -0.075 N
ATOM     30  H13 UNL     1      31.985  35.144  43.154  1.00  0.00     0.274 HD
ATOM     31  H12 UNL     1      31.417  34.055  44.118  1.00  0.00     0.274 HD
ATOM     32  H11 UNL     1      33.072  34.312  44.121  1.00  0.00     0.274 HD
ENDBRANCH  28  29
ENDBRANCH   4  28
TORSDOF 7
ENDMDL