MODEL 2
REMARK VINA RESULT: -5.342536074      3.762      8.249
REMARK  6 active torsions:
REMARK  status: ('A' for Active; 'I' for Inactive)
REMARK    1  A    between atoms: C1_2  and  C2_4
REMARK    2  A    between atoms: C2_4  and  N1_5
REMARK    3  A    between atoms: C7_16  and  C8_17
REMARK    4  A    between atoms: C8_17  and  O5_18
REMARK    5  A    between atoms: C8_17  and  C9_20
REMARK    6  A    between atoms: C9_20  and  O6_21
ROOT
HETATM    1  N1  UNL     1      30.051  29.769  38.926  1.00  0.00    -0.254 N
HETATM    2  C3  UNL     1      31.390  29.723  38.997  1.00  0.00     0.330 A
HETATM    3  O3  UNL     1      32.086  28.950  38.291  1.00  0.00    -0.246 OA
HETATM    4  N2  UNL     1      32.086  30.525  39.852  1.00  0.00    -0.303 N
ATOM      5  H2  UNL     1      33.104  30.463  39.879  1.00  0.00     0.171 HD
HETATM    6  C4  UNL     1      31.452  31.402  40.667  1.00  0.00     0.114 A
HETATM    7  C5  UNL     1      30.072  31.459  40.603  1.00  0.00     0.133 A
HETATM    8  C6  UNL     1      29.390  30.629  39.719  1.00  0.00     0.281 A
HETATM    9  O4  UNL     1      28.136  30.726  39.707  1.00  0.00    -0.265 OA
HETATM   10  N3  UNL     1      29.391  32.375  41.451  1.00  0.00    -0.336 N
ATOM     11  H3  UNL     1      28.374  32.416  41.401  1.00  0.00     0.167 HD
HETATM   12  C7  UNL     1      29.999  33.162  42.285  1.00  0.00     0.134 A
HETATM   13  N4  UNL     1      31.430  33.152  42.400  1.00  0.00    -0.225 N
HETATM   14  N5  UNL     1      32.310  33.870  43.191  1.00  0.00    -0.111 NA
HETATM   15  C10 UNL     1      33.618  33.398  42.835  1.00  0.00     0.258 A
HETATM   16  N6  UNL     1      33.431  32.410  41.840  1.00  0.00    -0.358 N
ATOM     17  H6  UNL     1      34.180  31.887  41.386  1.00  0.00     0.162 HD
HETATM   18  C11 UNL     1      32.189  32.272  41.593  1.00  0.00     0.152 A
ENDROOT
BRANCH  12  19
HETATM   19  C8  UNL     1      29.222  34.083  43.128  1.00  0.00     0.210 C
BRANCH  19  20
HETATM   20  O5  UNL     1      28.071  33.439  43.597  1.00  0.00    -0.386 OA
ATOM     21  H5  UNL     1      27.341  33.626  43.020  1.00  0.00     0.210 HD
ENDBRANCH  19  20
BRANCH  19  22
HETATM   22  C9  UNL     1      28.727  35.293  42.369  1.00  0.00     0.203 C
BRANCH  22  23
HETATM   23  O6  UNL     1      27.834  34.838  41.377  1.00  0.00    -0.398 OA
ATOM     24  H6  UNL     1      27.483  34.004  41.666  1.00  0.00     0.209 HD
ENDBRANCH  22  23
ENDBRANCH  19  22
ENDBRANCH  12  19
BRANCH   1  25
HETATM   25  C2  UNL     1      29.322  28.929  38.029  1.00  0.00     0.250 C
BRANCH  25  26
HETATM   26  C1  UNL     1      28.809  27.694  38.672  1.00  0.00     0.192 C
HETATM   27  O1  UNL     1      29.537  26.802  39.174  1.00  0.00    -0.647 OA
HETATM   28  O2  UNL     1      27.437  27.490  38.735  1.00  0.00    -0.647 OA
ENDBRANCH  25  26
ENDBRANCH   1  25
TORSDOF 6
ENDMDL