MODEL 4
REMARK VINA RESULT: -4.565146036      2.393      6.193
REMARK  9 active torsions:
REMARK  status: ('A' for Active; 'I' for Inactive)
REMARK       I    between atoms: C2_2  and  N1_4
REMARK    1  A    between atoms: N1_4  and  C3_6
REMARK    2  A    between atoms: C4_7  and  N2_8
REMARK    3  A    between atoms: C6_13  and  N3_14
REMARK    4  A    between atoms: C7_18  and  N4_19
REMARK    5  A    between atoms: C8_23  and  N5_24
REMARK    6  A    between atoms: C9_29  and  C10_30
REMARK    7  A    between atoms: C10_30  and  N8_31
REMARK    8  A    between atoms: C10_30  and  C11_35
REMARK    9  A    between atoms: C11_35  and  O2_37
ROOT
HETATM    1  C3  UNL     1      32.676  37.505  42.586  1.00  0.00     0.143 C
HETATM    2  C4  UNL     1      33.725  38.443  42.098  1.00  0.00     0.210 C
HETATM    3  C5  UNL     1      34.209  38.184  40.710  1.00  0.00     0.069 C
HETATM    4  C6  UNL     1      33.126  37.977  39.703  1.00  0.00     0.218 C
HETATM    5  C7  UNL     1      32.172  36.917  40.192  1.00  0.00     0.242 C
HETATM    6  C8  UNL     1      31.614  37.249  41.554  1.00  0.00     0.185 C
ENDROOT
BRANCH   6   7
HETATM    7  N5  UNL     1      30.743  36.187  41.948  1.00  0.00    -0.209 N
HETATM    8  N6  UNL     1      30.003  36.100  43.046  1.00  0.00    -0.224 N
HETATM    9  N7  UNL     1      29.327  34.978  43.073  1.00  0.00    -0.270 N
ATOM     10  H6  UNL     1      29.965  36.813  43.774  1.00  0.00     0.210 HD
HETATM   11  C9  UNL     1      29.628  34.298  41.960  1.00  0.00     0.146 A
ATOM     12  H7  UNL     1      28.687  34.676  43.809  1.00  0.00     0.190 HD
HETATM   13  N9  UNL     1      30.501  35.067  41.287  1.00  0.00    -0.268 N
ATOM     14  H9  UNL     1      30.920  34.821  40.390  1.00  0.00     0.190 HD
BRANCH  11  15
HETATM   15  C10 UNL     1      29.111  32.967  41.539  1.00  0.00     0.281 C
BRANCH  15  16
HETATM   16  N8  UNL     1      28.461  32.281  42.623  1.00  0.00    -0.066 N
ATOM     17  H83 UNL     1      29.095  31.628  43.083  1.00  0.00     0.275 HD
ATOM     18  H82 UNL     1      28.283  32.909  43.407  1.00  0.00     0.275 HD
ATOM     19  H81 UNL     1      27.606  31.817  42.317  1.00  0.00     0.275 HD
ENDBRANCH  15  16
BRANCH  15  20
HETATM   20  C11 UNL     1      28.250  33.053  40.310  1.00  0.00     0.152 C
HETATM   21  C12 UNL     1      27.547  31.763  39.983  1.00  0.00     0.042 C
BRANCH  20  22
HETATM   22  O2  UNL     1      27.416  34.141  40.386  1.00  0.00    -0.393 OA
ATOM     23  H2  UNL     1      27.488  34.667  39.598  1.00  0.00     0.210 HD
ENDBRANCH  20  22
ENDBRANCH  15  20
ENDBRANCH  11  15
ENDBRANCH   6   7
BRANCH   1  24
HETATM   24  N1  UNL     1      33.206  36.288  43.169  1.00  0.00    -0.353 N
HETATM   25  C2  UNL     1      33.372  36.078  44.553  1.00  0.00     0.214 C
HETATM   26  C1  UNL     1      33.917  34.816  45.087  1.00  0.00     0.117 C
HETATM   27  O1  UNL     1      33.051  36.979  45.363  1.00  0.00    -0.274 OA
ATOM     28  H1  UNL     1      33.477  35.535  42.537  1.00  0.00     0.163 HD
ENDBRANCH   1  24
BRANCH   5  29
HETATM   29  N4  UNL     1      32.717  35.597  40.104  1.00  0.00    -0.071 N
ATOM     30  H43 UNL     1      32.113  34.990  39.551  1.00  0.00     0.274 HD
ATOM     31  H42 UNL     1      33.549  35.583  39.514  1.00  0.00     0.274 HD
ATOM     32  H41 UNL     1      32.909  35.187  41.017  1.00  0.00     0.274 HD
ENDBRANCH   5  29
BRANCH   2  33
HETATM   33  N2  UNL     1      33.161  39.804  42.100  1.00  0.00    -0.073 N
ATOM     34  H23 UNL     1      33.589  40.409  41.398  1.00  0.00     0.274 HD
ATOM     35  H22 UNL     1      32.206  39.835  41.742  1.00  0.00     0.274 HD
ATOM     36  H21 UNL     1      33.240  40.181  43.044  1.00  0.00     0.274 HD
ENDBRANCH   2  33
BRANCH   4  37
HETATM   37  N3  UNL     1      32.418  39.172  39.353  1.00  0.00    -0.073 N
ATOM     38  H33 UNL     1      32.310  39.775  40.169  1.00  0.00     0.274 HD
ATOM     39  H32 UNL     1      32.999  39.774  38.769  1.00  0.00     0.274 HD
ATOM     40  H31 UNL     1      31.516  39.005  38.909  1.00  0.00     0.274 HD
ENDBRANCH   4  37
TORSDOF 9
ENDMDL