MODEL 1
REMARK VINA RESULT: -5.432469679      0.000      0.000
REMARK  6 active torsions:
REMARK  status: ('A' for Active; 'I' for Inactive)
REMARK    1  A    between atoms: N2_5  and  C3_6
REMARK    2  A    between atoms: C3_6  and  C4_7
REMARK    3  A    between atoms: N4_9  and  N5_11
REMARK       I    between atoms: N5_11  and  C5_13
REMARK    4  A    between atoms: C5_13  and  C6_15
REMARK    5  A    between atoms: C7_18  and  N7_19
REMARK    6  A    between atoms: N9_24  and  N10_25
ROOT
HETATM    1  N5  UNL     1      28.508  32.487  41.552  1.00  0.00    -0.262 N
ATOM      2  H5  UNL     1      28.654  33.093  40.745  1.00  0.00     0.190 HD
HETATM    3  C5  UNL     1      29.089  32.812  42.795  1.00  0.00     0.308 C
HETATM    4  O1  UNL     1      28.922  32.082  43.801  1.00  0.00    -0.262 OA
ENDROOT
BRANCH   1   5
HETATM    5  N4  UNL     1      27.738  31.346  41.431  1.00  0.00    -0.287 N
HETATM    6  C4  UNL     1      27.760  30.673  40.338  1.00  0.00     0.127 C
HETATM    7  N3  UNL     1      26.979  29.494  40.218  1.00  0.00    -0.084 NA
ATOM      8  H4  UNL     1      27.154  31.039  42.209  1.00  0.00     0.188 HD
BRANCH   6   9
HETATM    9  C3  UNL     1      28.603  31.106  39.198  1.00  0.00     0.228 C
BRANCH   9  10
HETATM   10  N2  UNL     1      29.840  30.312  39.260  1.00  0.00    -0.235 N
HETATM   11  N1  UNL     1      29.707  29.023  38.969  1.00  0.00    -0.293 N
HETATM   12  C2  UNL     1      30.733  28.176  38.976  1.00  0.00     0.090 A
ATOM     13  H1  UNL     1      28.780  28.669  38.730  1.00  0.00     0.187 HD
HETATM   14  C1  UNL     1      30.500  26.760  38.641  1.00  0.00     0.076 C
HETATM   15  C9  UNL     1      31.972  28.681  39.301  1.00  0.00     0.273 A
HETATM   16  N11 UNL     1      32.098  29.987  39.595  1.00  0.00    -0.273 N
HETATM   17  O3  UNL     1      32.975  27.919  39.322  1.00  0.00    -0.266 OA
HETATM   18  C8  UNL     1      31.027  30.807  39.574  1.00  0.00     0.344 A
ATOM     19  H11 UNL     1      33.015  30.363  39.836  1.00  0.00     0.173 HD
HETATM   20  O2  UNL     1      31.130  32.030  39.846  1.00  0.00    -0.245 OA
ENDBRANCH   9  10
ENDBRANCH   6   9
ENDBRANCH   1   5
BRANCH   3  21
HETATM   21  C6  UNL     1      29.901  34.012  42.930  1.00  0.00     0.229 A
HETATM   22  N6  UNL     1      29.449  35.253  43.231  1.00  0.00    -0.167 N
HETATM   23  C7  UNL     1      30.532  36.046  43.253  1.00  0.00     0.694 A
ATOM     24  H6  UNL     1      28.483  35.528  43.404  1.00  0.00     0.186 HD
HETATM   25  N8  UNL     1      31.606  35.293  42.971  1.00  0.00    -0.110 N
HETATM   26  N9  UNL     1      31.239  34.041  42.770  1.00  0.00    -0.166 N
ATOM     27  H8  UNL     1      32.565  35.637  42.919  1.00  0.00     0.208 HD
BRANCH  23  28
HETATM   28  N7  UNL     1      30.456  37.311  43.512  1.00  0.00    -0.233 N
ATOM     29  H72 UNL     1      29.665  37.860  43.852  1.00  0.00     0.174 HD
ATOM     30  H71 UNL     1      31.249  37.941  43.391  1.00  0.00     0.174 HD
ENDBRANCH  23  28
BRANCH  26  31
HETATM   31  N10 UNL     1      32.088  32.967  42.454  1.00  0.00    -0.322 N
ATOM     32 2H10 UNL     1      31.813  32.094  42.004  1.00  0.00     0.179 HD
ATOM     33 1H10 UNL     1      33.091  32.897  42.623  1.00  0.00     0.179 HD
ENDBRANCH  26  31
ENDBRANCH   3  21
TORSDOF 6
ENDMDL