MODEL 4
REMARK VINA RESULT: -6.131640624      2.542      3.382
REMARK  10 active torsions:
REMARK  status: ('A' for Active; 'I' for Inactive)
REMARK    1  A    between atoms: C3_5  and  N2_6
REMARK    2  A    between atoms: C5_13  and  C6_14
REMARK    3  A    between atoms: C6_14  and  O2_15
REMARK    4  A    between atoms: O2_15  and  C7_16
REMARK    5  A    between atoms: C7_16  and  N4_17
REMARK    6  A    between atoms: N5_19  and  N6_21
REMARK    7  A    between atoms: N8_23  and  N9_24
REMARK    8  A    between atoms: N10_27  and  O3_28
REMARK    9  A    between atoms: N11_32  and  N12_34
REMARK   10  A    between atoms: N12_34  and  O5_36
ROOT
HETATM    1  C7  UNL     1      28.929  33.881  40.930  1.00  0.00     0.256 C
HETATM    2  N11 UNL     1      28.337  33.910  42.028  1.00  0.00    -0.244 N
ATOM      3  H11 UNL     1      27.880  33.031  42.272  1.00  0.00     0.192 HD
ENDROOT
BRANCH   1   4
HETATM    4  O2  UNL     1      29.584  34.994  40.478  1.00  0.00    -0.315 OA
BRANCH   4   5
HETATM    5  C6  UNL     1      30.975  35.185  40.527  1.00  0.00     0.225 C
BRANCH   5   6
HETATM    6  C5  UNL     1      31.280  36.630  40.829  1.00  0.00     0.057 A
HETATM    7  C2  UNL     1      31.684  37.468  39.821  1.00  0.00     0.036 A
HETATM    8  C1  UNL     1      31.823  36.963  38.441  1.00  0.00     0.069 C
HETATM    9  N1  UNL     1      31.947  38.765  40.135  1.00  0.00    -0.195 N
HETATM   10  C3  UNL     1      31.833  39.261  41.375  1.00  0.00     0.678 A
ATOM     11  H1  UNL     1      32.247  39.392  39.388  1.00  0.00     0.184 HD
HETATM   12  N3  UNL     1      31.439  38.444  42.362  1.00  0.00    -0.156 N
HETATM   13  C4  UNL     1      31.165  37.146  42.097  1.00  0.00     0.270 A
ATOM     14  H3  UNL     1      31.346  38.802  43.313  1.00  0.00     0.187 HD
HETATM   15  O1  UNL     1      30.798  36.390  43.018  1.00  0.00    -0.267 OA
BRANCH  10  16
HETATM   16  N2  UNL     1      32.099  40.514  41.618  1.00  0.00    -0.234 N
ATOM     17  H22 UNL     1      32.979  40.927  41.305  1.00  0.00     0.174 HD
ATOM     18  H21 UNL     1      31.434  41.100  42.123  1.00  0.00     0.174 HD
ENDBRANCH  10  16
ENDBRANCH   5   6
ENDBRANCH   4   5
ENDBRANCH   1   4
BRANCH   1  19
HETATM   19  N4  UNL     1      28.894  32.654  40.180  1.00  0.00    -0.248 N
HETATM   20  N5  UNL     1      28.091  32.435  39.248  1.00  0.00    -0.216 N
ATOM     21  H5  UNL     1      28.141  31.534  38.773  1.00  0.00     0.210 HD
ATOM     22  H4  UNL     1      29.562  31.922  40.422  1.00  0.00     0.192 HD
BRANCH  20  23
HETATM   23  N6  UNL     1      27.128  33.351  38.818  1.00  0.00    -0.110 N
HETATM   24  N7  UNL     1      26.030  33.725  39.569  1.00  0.00     0.024 NA
HETATM   25  N8  UNL     1      25.417  34.788  38.947  1.00  0.00     0.002 NA
HETATM   26  N10 UNL     1      26.124  35.107  37.808  1.00  0.00    -0.089 N
HETATM   27  C8  UNL     1      27.059  34.061  37.594  1.00  0.00     0.400 C
HETATM   28  O4  UNL     1      27.691  33.810  36.560  1.00  0.00    -0.240 OA
BRANCH  25  29
HETATM   29  N9  UNL     1      24.080  34.464  38.695  1.00  0.00    -0.327 NA
ATOM     30  H92 UNL     1      23.645  33.929  39.448  1.00  0.00     0.174 HD
ATOM     31  H91 UNL     1      23.548  35.323  38.550  1.00  0.00     0.174 HD
ENDBRANCH  25  29
BRANCH  26  32
HETATM   32  O3  UNL     1      25.933  36.209  37.068  1.00  0.00    -0.265 OA
ATOM     33  H3  UNL     1      26.392  37.032  37.190  1.00  0.00     0.246 HD
ENDBRANCH  26  32
ENDBRANCH  20  23
ENDBRANCH   1  19
BRANCH   2  34
HETATM   34  N12 UNL     1      28.183  34.873  42.949  1.00  0.00    -0.207 N
ATOM     35  H12 UNL     1      28.262  34.588  43.925  1.00  0.00     0.215 HD
BRANCH  34  36
HETATM   36  O5  UNL     1      27.955  36.079  42.735  1.00  0.00    -0.274 OA
ATOM     37  H5  UNL     1      28.564  36.801  42.847  1.00  0.00     0.246 HD
ENDBRANCH  34  36
ENDBRANCH   2  34
TORSDOF 10
ENDMDL