MODEL 4
REMARK VINA RESULT: -5.681608845      1.855      2.797
REMARK  6 active torsions:
REMARK  status: ('A' for Active; 'I' for Inactive)
REMARK    1  A    between atoms: N5_12  and  S1_13
REMARK    2  A    between atoms: S1_13  and  C6_14
REMARK    3  A    between atoms: C7_15  and  N6_16
REMARK    4  A    between atoms: N6_16  and  N7_18
REMARK    5  A    between atoms: N7_18  and  O1_20
REMARK    6  A    between atoms: N9_26  and  N10_27
ROOT
HETATM    1  S1  UNL     1      30.857  33.412  39.667  1.00  0.00     0.024 SA
ENDROOT
BRANCH   1   2
HETATM    2  N5  UNL     1      30.006  32.161  38.853  1.00  0.00    -0.203 N
HETATM    3  C5  UNL     1      29.203  32.451  37.730  1.00  0.00     0.211 C
HETATM    4  N3  UNL     1      28.830  31.739  36.671  1.00  0.00    -0.304 N
HETATM    5  N4  UNL     1      28.687  33.754  37.746  1.00  0.00    -0.062 NA
HETATM    6  C4  UNL     1      29.099  30.410  36.246  1.00  0.00     0.192 C
ATOM      7  H3  UNL     1      28.225  32.253  36.031  1.00  0.00     0.171 HD
HETATM    8  N1  UNL     1      29.258  29.318  36.902  1.00  0.00    -0.338 N
HETATM    9  N2  UNL     1      29.220  30.212  34.846  1.00  0.00    -0.063 NA
HETATM   10  C2  UNL     1      29.282  28.757  38.207  1.00  0.00     0.102 C
ATOM     11  H1  UNL     1      29.434  28.569  36.232  1.00  0.00     0.164 HD
HETATM   12  C1  UNL     1      30.150  27.488  38.124  1.00  0.00     0.062 C
HETATM   13  C3  UNL     1      27.901  28.295  38.656  1.00  0.00     0.062 C
HETATM   14  N11 UNL     1      29.864  29.552  39.240  1.00  0.00    -0.316 N
HETATM   15  C9  UNL     1      30.274  30.887  39.506  1.00  0.00     0.337 C
ATOM     16  H11 UNL     1      30.046  28.970  40.058  1.00  0.00     0.166 HD
HETATM   17  O3  UNL     1      31.024  30.996  40.510  1.00  0.00    -0.246 OA
ENDBRANCH   1   2
BRANCH   1  18
HETATM   18  C6  UNL     1      30.025  34.390  40.847  1.00  0.00     0.165 A
HETATM   19  C7  UNL     1      29.038  33.938  41.744  1.00  0.00     0.158 A
HETATM   20  C8  UNL     1      28.676  34.972  42.574  1.00  0.00     0.292 A
HETATM   21  O2  UNL     1      27.820  34.964  43.511  1.00  0.00    -0.264 OA
HETATM   22  N8  UNL     1      29.423  36.005  42.185  1.00  0.00    -0.242 N
HETATM   23  N9  UNL     1      30.228  35.671  41.161  1.00  0.00    -0.190 N
ATOM     24  H8  UNL     1      29.388  36.932  42.609  1.00  0.00     0.192 HD
BRANCH  19  25
HETATM   25  N6  UNL     1      28.509  32.633  41.786  1.00  0.00    -0.274 N
ATOM     26  H6  UNL     1      27.772  32.374  41.129  1.00  0.00     0.189 HD
BRANCH  25  27
HETATM   27  N7  UNL     1      28.962  31.693  42.697  1.00  0.00    -0.209 N
ATOM     28  H7  UNL     1      29.216  30.749  42.404  1.00  0.00     0.215 HD
BRANCH  27  29
HETATM   29  O1  UNL     1      29.049  32.049  43.890  1.00  0.00    -0.274 OA
ATOM     30  H1  UNL     1      28.656  31.482  44.543  1.00  0.00     0.246 HD
ENDBRANCH  27  29
ENDBRANCH  25  27
ENDBRANCH  19  25
BRANCH  23  31
HETATM   31  N10 UNL     1      31.116  36.623  40.656  1.00  0.00    -0.323 N
ATOM     32 2H10 UNL     1      31.699  36.381  39.855  1.00  0.00     0.179 HD
ATOM     33 1H10 UNL     1      31.294  37.592  40.919  1.00  0.00     0.179 HD
ENDBRANCH  23  31
ENDBRANCH   1  18
TORSDOF 6
ENDMDL