MODEL 3
REMARK VINA RESULT: -5.665187195      4.099      7.749
REMARK  12 active torsions:
REMARK  status: ('A' for Active; 'I' for Inactive)
REMARK    1  A    between atoms: C2_2  and  O1_3
REMARK    2  A    between atoms: C2_2  and  O2_5
REMARK    3  A    between atoms: O2_5  and  C3_6
REMARK       I    between atoms: C3_6  and  N1_8
REMARK    4  A    between atoms: N3_12  and  N4_14
REMARK    5  A    between atoms: N5_17  and  N6_18
REMARK    6  A    between atoms: N6_18  and  C5_20
REMARK    7  A    between atoms: C5_20  and  N7_21
REMARK    8  A    between atoms: N7_21  and  O4_23
REMARK    9  A    between atoms: O4_23  and  C6_24
REMARK   10  A    between atoms: C6_24  and  O6_26
REMARK   11  A    between atoms: O6_26  and  C7_27
REMARK   12  A    between atoms: C11_31  and  N8_32
ROOT
HETATM    1  C3  UNL     1      25.581  34.347  38.189  1.00  0.00     0.404 C
HETATM    2  O3  UNL     1      24.647  34.541  39.005  1.00  0.00    -0.235 OA
HETATM    3  N1  UNL     1      26.848  33.869  38.616  1.00  0.00    -0.009 N
HETATM    4  N2  UNL     1      27.150  33.596  39.868  1.00  0.00    -0.102 N
ATOM      5  H2  UNL     1      26.521  33.693  40.666  1.00  0.00     0.207 HD
HETATM    6  C4  UNL     1      28.443  33.162  39.921  1.00  0.00     0.748 A
HETATM    7  N3  UNL     1      29.039  32.814  41.012  1.00  0.00    -0.135 N
ATOM      8  H3  UNL     1      30.010  32.499  40.974  1.00  0.00     0.205 HD
HETATM    9  N5  UNL     1      28.942  33.171  38.672  1.00  0.00     0.095 N
HETATM   10  C11 UNL     1      27.934  33.611  37.900  1.00  0.00     0.739 A
ENDROOT
BRANCH   9  11
HETATM   11  N6  UNL     1      30.236  32.796  38.294  1.00  0.00    -0.258 N
ATOM     12  H6  UNL     1      30.970  33.504  38.267  1.00  0.00     0.189 HD
BRANCH  11  13
HETATM   13  C5  UNL     1      30.548  31.474  37.952  1.00  0.00     0.223 C
BRANCH  13  14
HETATM   14  N7  UNL     1      30.811  30.610  38.870  1.00  0.00    -0.250 N
ATOM     15  H7  UNL     1      31.789  30.387  39.051  1.00  0.00     0.195 HD
BRANCH  14  16
HETATM   16  O4  UNL     1      29.858  29.970  39.618  1.00  0.00    -0.174 OA
BRANCH  16  17
HETATM   17  C6  UNL     1      28.755  29.336  39.110  1.00  0.00     0.429 C
HETATM   18  O5  UNL     1      27.646  29.909  39.192  1.00  0.00    -0.227 OA
BRANCH  17  19
HETATM   19  O6  UNL     1      28.790  28.085  38.507  1.00  0.00    -0.287 OA
BRANCH  19  20
HETATM   20  C7  UNL     1      29.211  27.847  37.196  1.00  0.00     0.062 C
HETATM   21  C8  UNL     1      28.507  26.571  36.724  1.00  0.00     0.046 C
HETATM   22  C9  UNL     1      30.706  27.587  37.092  1.00  0.00     0.046 C
HETATM   23  C10 UNL     1      28.842  28.945  36.239  1.00  0.00     0.046 C
ENDBRANCH  19  20
ENDBRANCH  17  19
ENDBRANCH  16  17
ENDBRANCH  14  16
ENDBRANCH  13  14
ENDBRANCH  11  13
ENDBRANCH   9  11
BRANCH  10  24
HETATM   24  N8  UNL     1      28.022  33.758  36.632  1.00  0.00    -0.230 N
ATOM     25  H82 UNL     1      28.871  34.061  36.155  1.00  0.00     0.174 HD
ATOM     26  H81 UNL     1      27.262  33.589  35.975  1.00  0.00     0.174 HD
ENDBRANCH  10  24
BRANCH   7  27
HETATM   27  N4  UNL     1      28.382  32.859  42.242  1.00  0.00    -0.331 N
ATOM     28  H42 UNL     1      27.966  32.000  42.601  1.00  0.00     0.177 HD
ATOM     29  H41 UNL     1      28.316  33.727  42.775  1.00  0.00     0.177 HD
ENDBRANCH   7  27
BRANCH   1  30
HETATM   30  O2  UNL     1      25.303  34.623  36.852  1.00  0.00    -0.271 OA
BRANCH  30  31
HETATM   31  C2  UNL     1      25.367  35.891  36.276  1.00  0.00     0.264 C
HETATM   32  C1  UNL     1      24.561  35.841  34.974  1.00  0.00     0.071 C
BRANCH  31  33
HETATM   33  O1  UNL     1      26.653  36.284  35.928  1.00  0.00    -0.371 OA
ATOM     34  H1  UNL     1      27.023  36.707  36.694  1.00  0.00     0.212 HD
ENDBRANCH  31  33
ENDBRANCH  30  31
ENDBRANCH   1  30
TORSDOF 12
ENDMDL