MODEL 4
REMARK VINA RESULT: -5.831711129      1.436      1.730
REMARK  4 active torsions:
REMARK  status: ('A' for Active; 'I' for Inactive)
REMARK    1  A    between atoms: C3_7  and  N3_8
REMARK    2  A    between atoms: N3_8  and  N4_10
REMARK    3  A    between atoms: N4_10  and  C4_12
REMARK    4  A    between atoms: C5_15  and  C6_16
ROOT
HETATM    1  N3  UNL     1      28.329  31.652  42.189  1.00  0.00    -0.266 N
ATOM      2  H3  UNL     1      27.736  31.208  42.890  1.00  0.00     0.189 HD
ENDROOT
BRANCH   1   3
HETATM    3  C3  UNL     1      29.151  32.778  42.519  1.00  0.00     0.194 C
HETATM    4  N2  UNL     1      28.423  33.859  42.919  1.00  0.00    -0.289 N
HETATM    5  C2  UNL     1      28.848  35.130  42.836  1.00  0.00     0.331 C
ATOM      6  H2  UNL     1      27.495  33.691  43.307  1.00  0.00     0.172 HD
HETATM    7  N1  UNL     1      30.083  35.603  42.527  1.00  0.00    -0.256 N
HETATM    8  O1  UNL     1      27.958  35.990  43.082  1.00  0.00    -0.246 OA
HETATM    9  C1  UNL     1      30.163  37.048  42.471  1.00  0.00     0.166 C
HETATM   10  C10 UNL     1      31.214  34.923  42.275  1.00  0.00     0.334 C
HETATM   11  N7  UNL     1      31.461  33.585  42.366  1.00  0.00    -0.267 N
HETATM   12  O5  UNL     1      32.213  35.581  41.895  1.00  0.00    -0.246 OA
HETATM   13  C8  UNL     1      30.519  32.635  42.397  1.00  0.00     0.296 C
HETATM   14  C9  UNL     1      32.855  33.182  42.434  1.00  0.00     0.165 C
HETATM   15  O4  UNL     1      30.929  31.464  42.304  1.00  0.00    -0.264 OA
ENDBRANCH   1   3
BRANCH   1  16
HETATM   16  N4  UNL     1      28.366  31.183  40.884  1.00  0.00    -0.130 N
ATOM     17  H4  UNL     1      28.614  30.212  40.693  1.00  0.00     0.205 HD
BRANCH  16  18
HETATM   18  C4  UNL     1      28.055  32.068  39.816  1.00  0.00     0.698 A
HETATM   19  N5  UNL     1      28.842  32.361  38.743  1.00  0.00    -0.181 N
HETATM   20  C5  UNL     1      28.209  33.240  37.945  1.00  0.00     0.160 A
ATOM     21  H5  UNL     1      29.769  31.974  38.570  1.00  0.00     0.184 HD
HETATM   22  C7  UNL     1      26.980  33.491  38.564  1.00  0.00     0.131 A
HETATM   23  S1  UNL     1      25.753  34.607  37.892  1.00  0.00    -0.030 SA
HETATM   24  N6  UNL     1      26.915  32.768  39.695  1.00  0.00    -0.181 N
ATOM     25  H6  UNL     1      26.133  32.753  40.349  1.00  0.00     0.185 HD
BRANCH  20  26
HETATM   26  C6  UNL     1      28.665  33.828  36.699  1.00  0.00     0.230 C
HETATM   27  O2  UNL     1      29.060  35.010  36.669  1.00  0.00    -0.643 OA
HETATM   28  O3  UNL     1      28.657  33.070  35.555  1.00  0.00    -0.643 OA
ENDBRANCH  20  26
ENDBRANCH  16  18
ENDBRANCH   1  16
TORSDOF 4
ENDMDL