MODEL 1
REMARK VINA RESULT: -5.553889419      0.000      0.000
REMARK  8 active torsions:
REMARK  status: ('A' for Active; 'I' for Inactive)
REMARK    1  A    between atoms: N3_7  and  N4_8
REMARK    2  A    between atoms: C3_11  and  N5_12
REMARK    3  A    between atoms: N5_12  and  N6_14
REMARK    4  A    between atoms: N6_14  and  O2_16
REMARK    5  A    between atoms: C4_18  and  N7_19
REMARK    6  A    between atoms: N7_19  and  C5_21
REMARK    7  A    between atoms: C6_23  and  C7_24
REMARK    8  A    between atoms: N9_29  and  O5_30
ROOT
HETATM    1  N1  UNL     1      30.637  35.046  38.615  1.00  0.00    -0.080 NA
HETATM    2  C1  UNL     1      29.876  34.080  39.287  1.00  0.00     0.151 A
HETATM    3  N2  UNL     1      29.487  32.981  38.590  1.00  0.00    -0.293 N
ATOM      4  H2  UNL     1      29.746  32.872  37.609  1.00  0.00     0.172 HD
HETATM    5  C2  UNL     1      28.758  32.043  39.210  1.00  0.00     0.348 A
HETATM    6  O1  UNL     1      28.421  31.032  38.508  1.00  0.00    -0.245 OA
HETATM    7  N3  UNL     1      28.410  32.173  40.498  1.00  0.00    -0.192 N
HETATM    8  C3  UNL     1      28.794  33.271  41.206  1.00  0.00     0.178 A
HETATM    9  C4  UNL     1      29.544  34.257  40.606  1.00  0.00     0.124 A
ENDROOT
BRANCH   9  10
HETATM   10  N7  UNL     1      29.948  35.384  41.302  1.00  0.00    -0.329 N
ATOM     11  H7  UNL     1      29.409  36.245  41.212  1.00  0.00     0.168 HD
BRANCH  10  12
HETATM   12  C5  UNL     1      31.120  35.371  42.153  1.00  0.00     0.179 A
HETATM   13  S1  UNL     1      32.392  34.236  42.204  1.00  0.00    -0.041 SA
HETATM   14  C6  UNL     1      33.320  34.956  43.448  1.00  0.00     0.128 A
HETATM   15  C8  UNL     1      32.575  36.057  43.758  1.00  0.00     0.170 A
HETATM   16  N8  UNL     1      33.041  36.959  44.804  1.00  0.00    -0.078 NA
HETATM   17  N9  UNL     1      31.459  36.250  43.088  1.00  0.00    -0.186 N
BRANCH  14  18
HETATM   18  C7  UNL     1      34.590  34.513  44.038  1.00  0.00     0.220 C
HETATM   19  O3  UNL     1      35.634  34.683  43.386  1.00  0.00    -0.643 OA
HETATM   20  O4  UNL     1      34.640  33.921  45.280  1.00  0.00    -0.643 OA
ENDBRANCH  14  18
BRANCH  17  21
HETATM   21  O5  UNL     1      30.616  37.367  43.338  1.00  0.00    -0.279 OA
ATOM     22  H5  UNL     1      30.448  37.993  42.643  1.00  0.00     0.245 HD
ENDBRANCH  17  21
ENDBRANCH  10  12
ENDBRANCH   9  10
BRANCH   8  23
HETATM   23  N5  UNL     1      28.465  33.397  42.432  1.00  0.00    -0.262 N
ATOM     24  H5  UNL     1      27.636  33.937  42.681  1.00  0.00     0.190 HD
BRANCH  23  25
HETATM   25  N6  UNL     1      29.229  32.801  43.433  1.00  0.00    -0.208 N
ATOM     26  H6  UNL     1      29.974  33.350  43.862  1.00  0.00     0.215 HD
BRANCH  25  27
HETATM   27  O2  UNL     1      29.054  31.643  43.831  1.00  0.00    -0.274 OA
ATOM     28  H2  UNL     1      29.216  30.873  43.298  1.00  0.00     0.246 HD
ENDBRANCH  25  27
ENDBRANCH  23  25
ENDBRANCH   8  23
BRANCH   7  29
HETATM   29  N4  UNL     1      27.652  31.162  41.083  1.00  0.00    -0.333 N
ATOM     30  H42 UNL     1      26.690  30.985  40.794  1.00  0.00     0.177 HD
ATOM     31  H41 UNL     1      28.082  30.594  41.813  1.00  0.00     0.177 HD
ENDBRANCH   7  29
TORSDOF 8
ENDMDL