MODEL 3
REMARK VINA RESULT: -5.798463023      2.644      4.569
REMARK  5 active torsions:
REMARK  status: ('A' for Active; 'I' for Inactive)
REMARK    1  A    between atoms: C2_5  and  C3_6
REMARK    2  A    between atoms: C5_14  and  C6_15
REMARK    3  A    between atoms: N6_16  and  N7_18
REMARK    4  A    between atoms: N7_18  and  C7_20
REMARK    5  A    between atoms: N13_36  and  N14_37
ROOT
HETATM    1  N1  UNL     1      29.051  32.970  35.671  1.00  0.00    -0.382 N
ATOM      2  H11 UNL     1      29.329  33.051  34.693  1.00  0.00     0.157 HD
ATOM      3  H12 UNL     1      28.815  33.750  36.286  1.00  0.00     0.157 HD
HETATM    4  C1  UNL     1      28.999  31.770  36.151  1.00  0.00     0.153 A
HETATM    5  C2  UNL     1      28.618  31.660  37.491  1.00  0.00     0.073 A
HETATM    6  C4  UNL     1      28.554  30.403  38.032  1.00  0.00     0.058 A
HETATM    7  C5  UNL     1      28.239  29.860  39.253  1.00  0.00     0.080 A
HETATM    8  N10 UNL     1      28.378  28.499  39.118  1.00  0.00    -0.297 N
ATOM      9  H10 UNL     1      28.211  27.826  39.866  1.00  0.00     0.187 HD
HETATM   10  N11 UNL     1      28.752  28.182  37.909  1.00  0.00    -0.283 N
ATOM     11  H11 UNL     1      28.914  27.227  37.588  1.00  0.00     0.188 HD
HETATM   12  C11 UNL     1      28.895  29.273  37.141  1.00  0.00     0.150 A
HETATM   13  N12 UNL     1      29.245  29.521  35.872  1.00  0.00    -0.261 N
ATOM     14  H12 UNL     1      29.478  28.729  35.272  1.00  0.00     0.191 HD
HETATM   15  N13 UNL     1      29.306  30.754  35.350  1.00  0.00    -0.184 N
ENDROOT
BRANCH   7  16
HETATM   16  C6  UNL     1      27.841  30.556  40.459  1.00  0.00     0.139 C
HETATM   17  N6  UNL     1      28.810  31.156  41.111  1.00  0.00    -0.308 N
ATOM     18  H6  UNL     1      29.773  31.124  40.775  1.00  0.00     0.186 HD
BRANCH  17  19
HETATM   19  N7  UNL     1      28.472  31.840  42.279  1.00  0.00    -0.288 N
ATOM     20  H7  UNL     1      27.662  31.579  42.842  1.00  0.00     0.188 HD
BRANCH  19  21
HETATM   21  C7  UNL     1      29.331  32.932  42.641  1.00  0.00     0.117 C
HETATM   22  N8  UNL     1      30.629  32.799  42.640  1.00  0.00    -0.376 N
HETATM   23  C8  UNL     1      31.365  34.010  43.036  1.00  0.00     0.148 C
ATOM     24  H8  UNL     1      31.096  31.928  42.385  1.00  0.00     0.160 HD
HETATM   25  C9  UNL     1      30.859  35.135  42.155  1.00  0.00     0.252 C
HETATM   26  N9  UNL     1      29.439  35.346  42.321  1.00  0.00    -0.067 N
HETATM   27  C10 UNL     1      28.803  34.254  43.032  1.00  0.00     0.309 C
ATOM     28  H92 UNL     1      29.250  36.241  42.773  1.00  0.00     0.277 HD
ATOM     29  H91 UNL     1      28.984  35.518  41.425  1.00  0.00     0.277 HD
ENDBRANCH  19  21
ENDBRANCH  17  19
ENDBRANCH   7  16
BRANCH   5  30
HETATM   30  C3  UNL     1      28.306  32.852  38.264  1.00  0.00     0.146 A
HETATM   31  N2  UNL     1      29.217  33.592  38.917  1.00  0.00    -0.270 N
HETATM   32  N3  UNL     1      28.616  34.582  39.556  1.00  0.00    -0.007 NA
ATOM     33  H2  UNL     1      30.222  33.416  38.921  1.00  0.00     0.185 HD
HETATM   34  N4  UNL     1      27.313  34.481  39.314  1.00  0.00    -0.007 NA
HETATM   35  N5  UNL     1      27.115  33.419  38.521  1.00  0.00    -0.270 N
ATOM     36  H5  UNL     1      26.213  33.095  38.171  1.00  0.00     0.185 HD
ENDBRANCH   5  30
BRANCH  15  37
HETATM   37  N14 UNL     1      29.682  30.933  34.009  1.00  0.00    -0.322 N
ATOM     38 2H14 UNL     1      29.792  31.873  33.629  1.00  0.00     0.179 HD
ATOM     39 1H14 UNL     1      29.857  30.151  33.377  1.00  0.00     0.179 HD
ENDBRANCH  15  37
TORSDOF 5
ENDMDL