MODEL 5
REMARK VINA RESULT: -5.586093405      3.200      6.023
REMARK  6 active torsions:
REMARK  status: ('A' for Active; 'I' for Inactive)
REMARK    1  A    between atoms: C4_9  and  N4_10
REMARK    2  A    between atoms: N5_12  and  N6_14
REMARK    3  A    between atoms: N6_14  and  N7_16
REMARK    4  A    between atoms: N7_16  and  C5_18
REMARK    5  A    between atoms: C6_21  and  N9_22
REMARK    6  A    between atoms: N9_22  and  N10_24
ROOT
HETATM    1  N7  UNL     1      28.805  32.373  43.311  1.00  0.00    -0.269 N
ATOM      2  H7  UNL     1      28.476  31.856  44.127  1.00  0.00     0.190 HD
ENDROOT
BRANCH   1   3
HETATM    3  N6  UNL     1      29.051  33.743  43.405  1.00  0.00    -0.227 N
ATOM      4  H6  UNL     1      29.950  34.047  43.778  1.00  0.00     0.210 HD
BRANCH   3   5
HETATM    5  N5  UNL     1      28.139  34.720  43.017  1.00  0.00    -0.228 N
HETATM    6  N4  UNL     1      28.525  35.627  42.234  1.00  0.00    -0.277 N
ATOM      7  H4  UNL     1      27.869  36.350  41.940  1.00  0.00     0.189 HD
ATOM      8  H5  UNL     1      27.179  34.701  43.359  1.00  0.00     0.210 HD
BRANCH   6   9
HETATM    9  C4  UNL     1      29.843  35.657  41.763  1.00  0.00     0.159 A
HETATM   10  C3  UNL     1      30.105  35.138  40.496  1.00  0.00     0.154 A
HETATM   11  N2  UNL     1      31.382  35.185  40.078  1.00  0.00    -0.294 N
HETATM   12  N3  UNL     1      29.057  34.592  39.709  1.00  0.00    -0.080 NA
HETATM   13  C2  UNL     1      32.362  35.704  40.838  1.00  0.00     0.330 A
ATOM     14  H2  UNL     1      31.614  34.815  39.156  1.00  0.00     0.172 HD
HETATM   15  N1  UNL     1      32.139  36.211  42.064  1.00  0.00    -0.269 N
HETATM   16  O1  UNL     1      33.553  35.734  40.416  1.00  0.00    -0.246 OA
HETATM   17  C1  UNL     1      33.213  36.769  42.871  1.00  0.00     0.164 C
HETATM   18  C11 UNL     1      30.876  36.186  42.526  1.00  0.00     0.282 A
HETATM   19  O3  UNL     1      30.659  36.666  43.684  1.00  0.00    -0.265 OA
ENDBRANCH   6   9
ENDBRANCH   3   5
ENDBRANCH   1   3
BRANCH   1  20
HETATM   20  C5  UNL     1      29.015  31.699  42.077  1.00  0.00     0.147 A
HETATM   21  N8  UNL     1      28.018  31.071  41.432  1.00  0.00    -0.173 N
HETATM   22  C6  UNL     1      28.251  30.441  40.260  1.00  0.00     0.698 A
ATOM     23  H8  UNL     1      27.078  31.070  41.829  1.00  0.00     0.186 HD
HETATM   24  N11 UNL     1      29.486  30.433  39.727  1.00  0.00    -0.191 N
HETATM   25  C7  UNL     1      30.517  31.045  40.328  1.00  0.00     0.062 A
ATOM     26  H11 UNL     1      29.642  29.950  38.842  1.00  0.00     0.184 HD
HETATM   27  C8  UNL     1      30.275  31.684  41.518  1.00  0.00     0.037 A
HETATM   28  C10 UNL     1      31.950  31.230  40.037  1.00  0.00     0.226 C
HETATM   29  C9  UNL     1      31.540  32.267  41.973  1.00  0.00     0.212 C
HETATM   30  O2  UNL     1      32.414  32.181  40.901  1.00  0.00    -0.381 OA
BRANCH  22  31
HETATM   31  N9  UNL     1      27.244  29.855  39.690  1.00  0.00    -0.138 N
ATOM     32  H9  UNL     1      26.316  30.278  39.690  1.00  0.00     0.205 HD
BRANCH  31  33
HETATM   33  N10 UNL     1      27.477  28.628  39.079  1.00  0.00    -0.331 N
ATOM     34 2H10 UNL     1      27.690  28.582  38.082  1.00  0.00     0.177 HD
ATOM     35 1H10 UNL     1      27.426  27.794  39.663  1.00  0.00     0.177 HD
ENDBRANCH  31  33
ENDBRANCH  22  31
ENDBRANCH   1  20
TORSDOF 6
ENDMDL