MODEL 1
REMARK VINA RESULT: -5.422635410      0.000      0.000
REMARK  13 active torsions:
REMARK  status: ('A' for Active; 'I' for Inactive)
REMARK    1  A    between atoms: N1_2  and  O1_3
REMARK    2  A    between atoms: N1_2  and  C2_5
REMARK    3  A    between atoms: C3_8  and  N3_9
REMARK    4  A    between atoms: C4_14  and  N5_15
REMARK    5  A    between atoms: N5_15  and  C5_17
REMARK    6  A    between atoms: C5_17  and  N6_18
REMARK    7  A    between atoms: C5_17  and  S1_26
REMARK    8  A    between atoms: N6_18  and  O2_19
REMARK    9  A    between atoms: O2_19  and  C6_20
REMARK   10  A    between atoms: C6_20  and  O4_22
REMARK   11  A    between atoms: O4_22  and  C7_23
REMARK   12  A    between atoms: S1_26  and  N8_27
REMARK   13  A    between atoms: N8_27  and  N9_28
ROOT
HETATM    1  C7  UNL     1      30.841  33.640  42.595  1.00  0.00     0.304 C
HETATM    2  C8  UNL     1      29.837  32.722  43.115  1.00  0.00     0.086 C
HETATM    3  N7  UNL     1      29.045  32.016  43.521  1.00  0.00    -0.195 NA
ENDROOT
BRANCH   1   4
HETATM    4  O4  UNL     1      30.318  34.314  41.457  1.00  0.00    -0.282 OA
BRANCH   4   5
HETATM    5  C6  UNL     1      29.354  35.288  41.539  1.00  0.00     0.440 C
HETATM    6  O3  UNL     1      29.438  36.162  42.429  1.00  0.00    -0.226 OA
BRANCH   5   7
HETATM    7  O2  UNL     1      28.261  35.390  40.687  1.00  0.00    -0.095 OA
BRANCH   7   8
HETATM    8  N6  UNL     1      27.587  34.531  40.068  1.00  0.00    -0.242 NA
BRANCH   8   9
HETATM    9  C5  UNL     1      26.939  33.730  39.470  1.00  0.00     0.283 C
BRANCH   9  10
HETATM   10  N5  UNL     1      26.890  32.296  39.728  1.00  0.00    -0.154 N
ATOM     11  H5  UNL     1      26.027  31.865  40.058  1.00  0.00     0.187 HD
BRANCH  10  12
HETATM   12  C4  UNL     1      27.941  31.575  39.538  1.00  0.00     0.714 A
HETATM   13  N4  UNL     1      29.156  32.160  39.586  1.00  0.00    -0.021 N
HETATM   14  C3  UNL     1      30.250  31.400  39.386  1.00  0.00     0.705 A
ATOM     15  H4  UNL     1      29.244  33.159  39.769  1.00  0.00     0.203 HD
HETATM   16  N2  UNL     1      30.138  30.082  39.143  1.00  0.00    -0.020 N
HETATM   17  C2  UNL     1      28.920  29.472  39.091  1.00  0.00     0.732 A
ATOM     18  H2  UNL     1      30.981  29.528  38.994  1.00  0.00     0.203 HD
HETATM   19  N10 UNL     1      27.848  30.257  39.294  1.00  0.00    -0.019 N
ATOM     20  H10 UNL     1      26.921  29.832  39.261  1.00  0.00     0.203 HD
BRANCH  14  21
HETATM   21  N3  UNL     1      31.394  31.993  39.439  1.00  0.00    -0.234 N
ATOM     22  H32 UNL     1      32.212  31.409  39.610  1.00  0.00     0.174 HD
ATOM     23  H31 UNL     1      31.488  33.001  39.316  1.00  0.00     0.174 HD
ENDBRANCH  14  21
BRANCH  17  24
HETATM   24  N1  UNL     1      28.811  28.081  38.834  1.00  0.00    -0.094 N
HETATM   25  C1  UNL     1      29.977  27.227  38.816  1.00  0.00     0.205 C
BRANCH  24  26
HETATM   26  O1  UNL     1      27.607  27.542  38.603  1.00  0.00    -0.274 OA
ATOM     27  H1  UNL     1      26.865  28.116  38.453  1.00  0.00     0.245 HD
ENDBRANCH  24  26
ENDBRANCH  17  24
ENDBRANCH  10  12
ENDBRANCH   9  10
BRANCH   9  28
HETATM   28  S1  UNL     1      25.885  34.258  38.095  1.00  0.00     0.054 SA
BRANCH  28  29
HETATM   29  N8  UNL     1      26.900  34.704  36.746  1.00  0.00    -0.064 NA
BRANCH  29  30
HETATM   30  N9  UNL     1      28.094  34.015  36.716  1.00  0.00    -0.337 N
ATOM     31  H92 UNL     1      28.162  33.024  36.951  1.00  0.00     0.173 HD
ATOM     32  H91 UNL     1      28.884  34.597  36.439  1.00  0.00     0.173 HD
ENDBRANCH  29  30
ENDBRANCH  28  29
ENDBRANCH   9  28
ENDBRANCH   8   9
ENDBRANCH   7   8
ENDBRANCH   5   7
ENDBRANCH   4   5
ENDBRANCH   1   4
TORSDOF 13
ENDMDL