MODEL 3
REMARK VINA RESULT: -6.129033475      1.036      1.644
REMARK  6 active torsions:
REMARK  status: ('A' for Active; 'I' for Inactive)
REMARK    1  A    between atoms: N1_1  and  N2_4
REMARK    2  A    between atoms: N2_4  and  C1_6
REMARK    3  A    between atoms: C3_11  and  N5_12
REMARK    4  A    between atoms: N6_14  and  N7_16
REMARK       I    between atoms: N7_16  and  C4_18
REMARK       I    between atoms: C4_18  and  N10_28
REMARK    5  A    between atoms: N8_19  and  N9_21
REMARK    6  A    between atoms: N10_28  and  N11_30
ROOT
HETATM    1  N5  UNL     1      30.094  29.721  38.916  1.00  0.00    -0.278 N
ATOM      2  H5  UNL     1      30.059  30.111  37.975  1.00  0.00     0.189 HD
HETATM    3  N6  UNL     1      30.506  28.528  39.081  1.00  0.00    -0.228 N
ATOM      4  H6  UNL     1      30.549  28.120  40.015  1.00  0.00     0.209 HD
ENDROOT
BRANCH   3   5
HETATM    5  N7  UNL     1      30.898  27.790  37.969  1.00  0.00    -0.115 N
HETATM    6  C4  UNL     1      30.245  26.591  37.565  1.00  0.00     0.732 C
HETATM    7  N8  UNL     1      30.383  25.541  38.296  1.00  0.00    -0.126 N
HETATM    8  N10 UNL     1      29.474  26.603  36.374  1.00  0.00    -0.069 N
ATOM      9  H8  UNL     1      30.954  25.608  39.138  1.00  0.00     0.206 HD
ATOM     10  H10 UNL     1      29.341  25.733  35.856  1.00  0.00     0.212 HD
ATOM     11  H7  UNL     1      31.688  28.124  37.418  1.00  0.00     0.207 HD
BRANCH   7  12
HETATM   12  N9  UNL     1      29.791  24.322  37.996  1.00  0.00    -0.244 N
HETATM   13  C5  UNL     1      30.485  23.440  37.363  1.00  0.00     0.289 A
HETATM   14  O1  UNL     1      30.029  22.259  37.029  1.00  0.00    -0.283 OA
HETATM   15  O2  UNL     1      31.722  23.515  36.937  1.00  0.00    -0.283 OA
HETATM   16  C6  UNL     1      30.956  21.581  36.396  1.00  0.00     0.171 A
HETATM   17  C7  UNL     1      32.061  22.390  36.332  1.00  0.00     0.171 A
ATOM     18  H9  UNL     1      28.828  24.128  38.270  1.00  0.00     0.191 HD
ENDBRANCH   7  12
BRANCH   8  19
HETATM   19  N11 UNL     1      28.894  27.775  35.896  1.00  0.00    -0.024 N
HETATM   20  O3  UNL     1      28.662  27.907  34.666  1.00  0.00    -0.516 OA
HETATM   21  O4  UNL     1      28.546  28.829  36.699  1.00  0.00    -0.516 OA
ENDBRANCH   8  19
ENDBRANCH   3   5
BRANCH   1  22
HETATM   22  C3  UNL     1      29.681  30.521  40.018  1.00  0.00     0.160 A
HETATM   23  C2  UNL     1      30.623  31.291  40.713  1.00  0.00     0.165 A
HETATM   24  N3  UNL     1      30.191  32.039  41.753  1.00  0.00    -0.175 N
HETATM   25  N4  UNL     1      31.983  31.264  40.313  1.00  0.00    -0.079 NA
HETATM   26  C1  UNL     1      28.899  32.026  42.088  1.00  0.00     0.700 A
ATOM     27  H3  UNL     1      30.852  32.612  42.281  1.00  0.00     0.185 HD
HETATM   28  N12 UNL     1      27.978  31.297  41.436  1.00  0.00    -0.153 N
HETATM   29  C8  UNL     1      28.356  30.536  40.394  1.00  0.00     0.291 A
ATOM     30  H12 UNL     1      27.001  31.320  41.729  1.00  0.00     0.187 HD
HETATM   31  O5  UNL     1      27.502  29.845  39.771  1.00  0.00    -0.265 OA
BRANCH  26  32
HETATM   32  N2  UNL     1      28.510  32.761  43.100  1.00  0.00    -0.138 N
ATOM     33  H2  UNL     1      28.303  32.317  43.996  1.00  0.00     0.205 HD
BRANCH  32  34
HETATM   34  N1  UNL     1      28.375  34.141  42.968  1.00  0.00    -0.331 N
ATOM     35  H12 UNL     1      28.038  34.517  42.081  1.00  0.00     0.177 HD
ATOM     36  H11 UNL     1      28.610  34.764  43.740  1.00  0.00     0.177 HD
ENDBRANCH  32  34
ENDBRANCH  26  32
ENDBRANCH   1  22
TORSDOF 6
ENDMDL