MODEL 1
REMARK VINA RESULT: -5.282262931      0.000      0.000
REMARK  9 active torsions:
REMARK  status: ('A' for Active; 'I' for Inactive)
REMARK    1  A    between atoms: O1_2  and  C2_3
REMARK    2  A    between atoms: C2_3  and  C3_5
REMARK    3  A    between atoms: C3_5  and  O3_6
REMARK    4  A    between atoms: C3_5  and  C4_8
REMARK    5  A    between atoms: N1_10  and  N2_12
REMARK       I    between atoms: N2_12  and  C6_14
REMARK       I    between atoms: C6_14  and  N3_16
REMARK    6  A    between atoms: N3_16  and  N4_18
REMARK    7  A    between atoms: N5_22  and  N6_23
REMARK    8  A    between atoms: C8_26  and  N7_27
REMARK    9  A    between atoms: N7_27  and  O5_29
ROOT
HETATM    1  N2  UNL     1      32.232  36.201  43.751  1.00  0.00    -0.250 N
ATOM      2  H2  UNL     1      31.759  37.072  43.511  1.00  0.00     0.192 HD
HETATM    3  C6  UNL     1      31.763  34.956  43.172  1.00  0.00     0.354 C
HETATM    4  O4  UNL     1      32.389  33.956  43.514  1.00  0.00    -0.244 OA
HETATM    5  N3  UNL     1      30.684  34.998  42.311  1.00  0.00    -0.223 N
ATOM      6  H3  UNL     1      30.314  35.938  42.165  1.00  0.00     0.193 HD
ENDROOT
BRANCH   1   7
HETATM    7  N1  UNL     1      33.302  36.231  44.616  1.00  0.00    -0.302 N
HETATM    8  C4  UNL     1      34.514  36.502  44.287  1.00  0.00     0.038 C
HETATM    9  C5  UNL     1      34.942  36.829  42.905  1.00  0.00     0.068 C
ATOM     10  H1  UNL     1      33.119  36.021  45.598  1.00  0.00     0.186 HD
BRANCH   8  11
HETATM   11  C3  UNL     1      35.550  36.492  45.347  1.00  0.00     0.264 C
BRANCH  11  12
HETATM   12  C2  UNL     1      34.958  36.496  46.698  1.00  0.00     0.293 C
HETATM   13  O2  UNL     1      34.704  37.592  47.254  1.00  0.00    -0.262 OA
BRANCH  12  14
HETATM   14  O1  UNL     1      34.677  35.314  47.358  1.00  0.00    -0.324 OA
HETATM   15  C1  UNL     1      35.474  34.157  47.268  1.00  0.00     0.213 C
ENDBRANCH  12  14
ENDBRANCH  11  12
BRANCH  11  16
HETATM   16  O3  UNL     1      36.389  37.602  45.190  1.00  0.00    -0.380 OA
ATOM     17  H3  UNL     1      37.284  37.365  45.403  1.00  0.00     0.211 HD
ENDBRANCH  11  16
ENDBRANCH   8  11
ENDBRANCH   1   7
BRANCH   5  18
HETATM   18  N4  UNL     1      30.001  34.012  41.602  1.00  0.00    -0.043 N
HETATM   19  S1  UNL     1      30.192  33.770  39.903  1.00  0.00     0.061 SA
HETATM   20  C7  UNL     1      29.122  32.474  39.703  1.00  0.00     0.200 A
HETATM   21  S2  UNL     1      28.741  31.653  38.316  1.00  0.00    -0.048 SA
HETATM   22  N5  UNL     1      28.673  32.290  40.935  1.00  0.00    -0.069 N
HETATM   23  C8  UNL     1      29.113  33.065  41.899  1.00  0.00     0.752 A
BRANCH  22  24
HETATM   24  N6  UNL     1      27.716  31.240  41.148  1.00  0.00    -0.322 N
ATOM     25  H62 UNL     1      26.912  31.086  40.538  1.00  0.00     0.178 HD
ATOM     26  H61 UNL     1      27.856  30.625  41.951  1.00  0.00     0.178 HD
ENDBRANCH  22  24
BRANCH  23  27
HETATM   27  N7  UNL     1      28.716  32.947  43.154  1.00  0.00    -0.094 N
ATOM     28  H7  UNL     1      28.128  33.665  43.577  1.00  0.00     0.213 HD
BRANCH  27  29
HETATM   29  O5  UNL     1      29.094  31.869  43.871  1.00  0.00    -0.276 OA
ATOM     30  H5  UNL     1      29.451  31.990  44.743  1.00  0.00     0.245 HD
ENDBRANCH  27  29
ENDBRANCH  23  27
ENDBRANCH   5  18
TORSDOF 9
ENDMDL