MODEL 2
REMARK VINA RESULT: -5.457251101      0.919      1.695
REMARK  9 active torsions:
REMARK  status: ('A' for Active; 'I' for Inactive)
REMARK    1  A    between atoms: C2_5  and  O1_6
REMARK    2  A    between atoms: O1_6  and  C3_7
REMARK    3  A    between atoms: C4_8  and  N3_9
REMARK    4  A    between atoms: C6_14  and  N4_15
REMARK    5  A    between atoms: C7_19  and  O2_20
REMARK    6  A    between atoms: O2_20  and  C8_21
REMARK    7  A    between atoms: C11_24  and  N5_25
REMARK    8  A    between atoms: C13_31  and  O4_32
REMARK    9  A    between atoms: C14_35  and  N6_36
ROOT
HETATM    1  C3  UNL     1      30.410  33.906  41.804  1.00  0.00     0.188 C
HETATM    2  C4  UNL     1      28.931  34.004  42.083  1.00  0.00     0.217 C
HETATM    3  C5  UNL     1      28.357  34.739  40.868  1.00  0.00     0.071 C
HETATM    4  C6  UNL     1      28.346  33.743  39.741  1.00  0.00     0.217 C
HETATM    5  C7  UNL     1      29.359  32.661  39.867  1.00  0.00     0.186 C
HETATM    6  C13 UNL     1      30.613  33.060  40.594  1.00  0.00     0.180 C
ENDROOT
BRANCH   1   7
HETATM    7  O1  UNL     1      31.130  33.410  42.862  1.00  0.00    -0.334 OA
BRANCH   7   8
HETATM    8  C2  UNL     1      32.238  34.134  43.214  1.00  0.00     0.374 C
HETATM    9  N2  UNL     1      32.048  35.565  43.148  1.00  0.00    -0.334 N
HETATM   10  C1  UNL     1      33.108  36.301  43.133  1.00  0.00     0.096 C
ATOM     11  H2  UNL     1      31.115  35.976  43.115  1.00  0.00     0.165 HD
HETATM   12  N1  UNL     1      33.046  37.727  43.069  1.00  0.00    -0.088 NA
HETATM   13  C15 UNL     1      34.477  35.698  43.181  1.00  0.00     0.134 C
HETATM   14  C14 UNL     1      34.460  34.244  42.812  1.00  0.00     0.329 C
HETATM   15  O5  UNL     1      33.256  33.818  42.308  1.00  0.00    -0.310 OA
BRANCH  14  16
HETATM   16  N6  UNL     1      34.848  33.369  43.890  1.00  0.00    -0.052 N
ATOM     17  H63 UNL     1      35.586  32.719  43.618  1.00  0.00     0.277 HD
ATOM     18  H62 UNL     1      35.356  33.859  44.626  1.00  0.00     0.277 HD
ATOM     19  H61 UNL     1      34.019  32.891  44.240  1.00  0.00     0.277 HD
ENDBRANCH  14  16
ENDBRANCH   7   8
ENDBRANCH   1   7
BRANCH   2  20
HETATM   20  N3  UNL     1      28.640  34.836  43.231  1.00  0.00    -0.072 N
ATOM     21  H33 UNL     1      28.259  35.738  42.944  1.00  0.00     0.274 HD
ATOM     22  H32 UNL     1      27.839  34.478  43.750  1.00  0.00     0.274 HD
ATOM     23  H31 UNL     1      29.450  34.955  43.840  1.00  0.00     0.274 HD
ENDBRANCH   2  20
BRANCH   6  24
HETATM   24  O4  UNL     1      31.277  31.889  40.972  1.00  0.00    -0.390 OA
ATOM     25  H4  UNL     1      30.827  31.512  41.719  1.00  0.00     0.210 HD
ENDBRANCH   6  24
BRANCH   5  26
HETATM   26  O2  UNL     1      28.900  31.481  40.392  1.00  0.00    -0.351 OA
BRANCH  26  27
HETATM   27  C8  UNL     1      28.891  30.407  39.545  1.00  0.00     0.260 C
HETATM   28  C9  UNL     1      27.651  29.566  39.623  1.00  0.00     0.063 C
HETATM   29  C10 UNL     1      27.810  28.184  39.107  1.00  0.00     0.040 C
HETATM   30  C11 UNL     1      28.979  27.962  38.213  1.00  0.00     0.207 C
HETATM   31  C12 UNL     1      30.144  28.880  38.495  1.00  0.00     0.203 C
HETATM   32  O3  UNL     1      29.987  29.562  39.697  1.00  0.00    -0.359 OA
BRANCH  30  33
HETATM   33  N5  UNL     1      28.646  28.037  36.802  1.00  0.00    -0.073 N
ATOM     34  H53 UNL     1      29.462  28.302  36.251  1.00  0.00     0.274 HD
ATOM     35  H52 UNL     1      28.479  27.107  36.419  1.00  0.00     0.274 HD
ATOM     36  H51 UNL     1      27.859  28.656  36.606  1.00  0.00     0.274 HD
ENDBRANCH  30  33
ENDBRANCH  26  27
ENDBRANCH   5  26
BRANCH   4  37
HETATM   37  N4  UNL     1      26.982  33.186  39.724  1.00  0.00    -0.072 N
ATOM     38  H43 UNL     1      26.370  33.620  39.034  1.00  0.00     0.274 HD
ATOM     39  H42 UNL     1      26.930  32.238  39.350  1.00  0.00     0.274 HD
ATOM     40  H41 UNL     1      26.643  33.267  40.683  1.00  0.00     0.274 HD
ENDBRANCH   4  37
TORSDOF 9
ENDMDL