MODEL 2
REMARK VINA RESULT: -6.629175241      3.391      4.797
REMARK  7 active torsions:
REMARK  status: ('A' for Active; 'I' for Inactive)
REMARK    1  A    between atoms: N1_1  and  C1_4
REMARK    2  A    between atoms: C2_7  and  N3_8
REMARK    3  A    between atoms: N3_8  and  C3_10
REMARK    4  A    between atoms: N5_19  and  C10_21
REMARK    5  A    between atoms: C10_21  and  C11_22
REMARK    6  A    between atoms: C11_22  and  O1_23
REMARK    7  A    between atoms: C12_27  and  N7_28
ROOT
HETATM    1  C1  UNL     1      28.541  30.547  40.467  1.00  0.00     0.161 C
HETATM    2  N2  UNL     1      28.626  29.312  39.899  1.00  0.00    -0.173 N
ATOM      3  H2  UNL     1      27.832  28.690  40.048  1.00  0.00     0.186 HD
HETATM    4  C2  UNL     1      29.646  28.818  39.161  1.00  0.00     0.699 C
HETATM    5  N4  UNL     1      30.916  29.315  39.089  1.00  0.00    -0.022 N
ATOM      6  H4  UNL     1      31.460  29.003  38.285  1.00  0.00     0.203 HD
HETATM    7  C9  UNL     1      31.551  30.150  39.918  1.00  0.00     0.694 C
HETATM    8  N5  UNL     1      32.791  30.119  40.130  1.00  0.00    -0.223 N
ATOM      9  H5  UNL     1      33.194  30.794  40.780  1.00  0.00     0.177 HD
HETATM   10  N6  UNL     1      30.922  31.130  40.642  1.00  0.00    -0.171 N
ATOM     11  H6  UNL     1      31.542  31.765  41.145  1.00  0.00     0.186 HD
HETATM   12  C12 UNL     1      29.589  31.380  40.788  1.00  0.00     0.191 C
ENDROOT
BRANCH  12  13
HETATM   13  N7  UNL     1      29.252  32.650  41.327  1.00  0.00    -0.192 N
HETATM   14  N8  UNL     1      29.140  33.709  40.437  1.00  0.00    -0.229 N
HETATM   15  N9  UNL     1      28.810  34.955  40.956  1.00  0.00    -0.258 N
ATOM     16  H8  UNL     1      29.294  33.578  39.438  1.00  0.00     0.209 HD
HETATM   17  C13 UNL     1      28.618  35.109  42.222  1.00  0.00     0.210 A
ATOM     18  H9  UNL     1      28.719  35.755  40.330  1.00  0.00     0.191 HD
HETATM   19  N10 UNL     1      28.284  36.403  42.692  1.00  0.00    -0.062 NA
HETATM   20  N11 UNL     1      28.731  34.034  43.130  1.00  0.00    -0.302 N
HETATM   21  C14 UNL     1      29.033  32.866  42.704  1.00  0.00     0.219 A
ATOM     22  H11 UNL     1      28.572  34.189  44.126  1.00  0.00     0.171 HD
HETATM   23  N12 UNL     1      29.134  31.800  43.627  1.00  0.00    -0.061 NA
ENDBRANCH  12  13
BRANCH   1  24
HETATM   24  N1  UNL     1      27.354  30.985  40.733  1.00  0.00    -0.382 N
ATOM     25  H12 UNL     1      26.873  30.545  41.518  1.00  0.00     0.157 HD
ATOM     26  H11 UNL     1      26.995  31.731  40.138  1.00  0.00     0.157 HD
ENDBRANCH   1  24
BRANCH   4  27
HETATM   27  N3  UNL     1      29.412  27.765  38.457  1.00  0.00    -0.191 N
ATOM     28  H3  UNL     1      29.377  26.850  38.906  1.00  0.00     0.184 HD
BRANCH  27  29
HETATM   29  C3  UNL     1      29.202  27.876  37.056  1.00  0.00     0.049 A
HETATM   30  C4  UNL     1      29.007  26.709  36.303  1.00  0.00     0.030 A
HETATM   31  C5  UNL     1      28.802  26.797  34.945  1.00  0.00     0.002 A
HETATM   32  C6  UNL     1      28.777  27.999  34.270  1.00  0.00     0.000 A
HETATM   33  C7  UNL     1      28.969  29.160  35.005  1.00  0.00     0.002 A
HETATM   34  C8  UNL     1      29.174  29.075  36.366  1.00  0.00     0.030 A
ENDBRANCH  27  29
ENDBRANCH   4  27
BRANCH   8  35
HETATM   35  C10 UNL     1      33.658  29.173  39.495  1.00  0.00     0.164 C
BRANCH  35  36
HETATM   36  C11 UNL     1      33.893  27.945  40.360  1.00  0.00     0.184 C
BRANCH  36  37
HETATM   37  O1  UNL     1      32.944  26.998  39.982  1.00  0.00    -0.399 OA
ATOM     38  H1  UNL     1      32.604  26.616  40.782  1.00  0.00     0.209 HD
ENDBRANCH  36  37
ENDBRANCH  35  36
ENDBRANCH   8  35
TORSDOF 7
ENDMDL