MODEL 4
REMARK VINA RESULT: -5.814495214      2.808      3.973
REMARK  10 active torsions:
REMARK  status: ('A' for Active; 'I' for Inactive)
REMARK    1  A    between atoms: N1_1  and  C1_5
REMARK    2  A    between atoms: C3_7  and  N2_8
REMARK    3  A    between atoms: C4_12  and  O1_13
REMARK    4  A    between atoms: O1_13  and  C5_14
REMARK    5  A    between atoms: C6_16  and  O3_17
REMARK    6  A    between atoms: C7_19  and  O4_20
REMARK    7  A    between atoms: C9_23  and  N3_24
REMARK    8  A    between atoms: C11_29  and  O5_30
REMARK    9  A    between atoms: O5_30  and  C12_31
REMARK   10  A    between atoms: C14_34  and  O7_35
ROOT
HETATM    1  C1  UNL     1      28.926  31.233  41.401  1.00  0.00     0.214 C
HETATM    2  C2  UNL     1      27.823  31.106  40.375  1.00  0.00     0.070 C
HETATM    3  C3  UNL     1      28.334  30.970  38.980  1.00  0.00     0.214 C
HETATM    4  C4  UNL     1      29.754  30.454  38.919  1.00  0.00     0.157 C
HETATM    5  C10 UNL     1      30.707  31.290  39.710  1.00  0.00     0.068 C
HETATM    6  C11 UNL     1      30.022  32.084  40.801  1.00  0.00     0.160 C
ENDROOT
BRANCH   4   7
HETATM    7  O1  UNL     1      29.784  29.105  39.293  1.00  0.00    -0.352 OA
BRANCH   7   8
HETATM    8  C5  UNL     1      29.147  28.286  38.362  1.00  0.00     0.293 C
HETATM    9  O2  UNL     1      29.029  26.980  38.800  1.00  0.00    -0.327 OA
HETATM   10  C6  UNL     1      30.194  26.294  38.921  1.00  0.00     0.288 C
HETATM   11  C7  UNL     1      31.322  26.778  38.075  1.00  0.00     0.175 C
HETATM   12  C8  UNL     1      30.803  27.297  36.753  1.00  0.00     0.074 C
HETATM   13  C9  UNL     1      29.831  28.398  37.019  1.00  0.00     0.240 C
BRANCH  10  14
HETATM   14  O3  UNL     1      29.941  24.953  38.552  1.00  0.00    -0.369 OA
ATOM     15  H3  UNL     1      30.689  24.434  38.825  1.00  0.00     0.212 HD
ENDBRANCH  10  14
BRANCH  11  16
HETATM   16  O4  UNL     1      32.152  25.692  37.786  1.00  0.00    -0.391 OA
ATOM     17  H4  UNL     1      32.615  25.877  36.977  1.00  0.00     0.210 HD
ENDBRANCH  11  16
BRANCH  13  18
HETATM   18  N3  UNL     1      28.833  28.440  35.952  1.00  0.00    -0.070 N
ATOM     19  H33 UNL     1      28.523  27.507  35.682  1.00  0.00     0.274 HD
ATOM     20  H32 UNL     1      27.939  28.806  36.279  1.00  0.00     0.274 HD
ATOM     21  H31 UNL     1      29.195  28.968  35.158  1.00  0.00     0.274 HD
ENDBRANCH  13  18
ENDBRANCH   7   8
ENDBRANCH   4   7
BRANCH   3  22
HETATM   22  N2  UNL     1      28.232  32.177  38.215  1.00  0.00    -0.072 N
ATOM     23  H23 UNL     1      27.514  32.790  38.601  1.00  0.00     0.274 HD
ATOM     24  H22 UNL     1      29.053  32.765  38.358  1.00  0.00     0.274 HD
ATOM     25  H21 UNL     1      28.072  32.015  37.221  1.00  0.00     0.274 HD
ENDBRANCH   3  22
BRANCH   6  26
HETATM   26  O5  UNL     1      30.949  32.462  41.749  1.00  0.00    -0.331 OA
BRANCH  26  27
HETATM   27  C12 UNL     1      31.017  33.840  41.934  1.00  0.00     0.415 C
HETATM   28  O6  UNL     1      30.471  34.546  40.881  1.00  0.00    -0.334 OA
HETATM   29  C13 UNL     1      29.901  35.702  41.423  1.00  0.00     0.234 C
HETATM   30  C14 UNL     1      29.465  35.206  42.785  1.00  0.00     0.286 C
HETATM   31  O8  UNL     1      30.312  34.158  43.077  1.00  0.00    -0.306 OA
BRANCH  30  32
HETATM   32  O7  UNL     1      28.126  34.820  42.702  1.00  0.00    -0.369 OA
ATOM     33  H7  UNL     1      27.671  35.155  43.465  1.00  0.00     0.212 HD
ENDBRANCH  30  32
ENDBRANCH  26  27
ENDBRANCH   6  26
BRANCH   1  34
HETATM   34  N1  UNL     1      28.347  31.892  42.562  1.00  0.00    -0.072 N
ATOM     35  H13 UNL     1      28.250  32.901  42.445  1.00  0.00     0.274 HD
ATOM     36  H12 UNL     1      27.357  31.682  42.692  1.00  0.00     0.274 HD
ATOM     37  H11 UNL     1      28.922  31.634  43.364  1.00  0.00     0.274 HD
ENDBRANCH   1  34
TORSDOF 10
ENDMDL