MODEL 3
REMARK VINA RESULT: -5.362307410      2.193      4.307
REMARK  11 active torsions:
REMARK  status: ('A' for Active; 'I' for Inactive)
REMARK    1  A    between atoms: C2_2  and  N1_3
REMARK    2  A    between atoms: N1_3  and  C3_6
REMARK    3  A    between atoms: C3_6  and  C4_7
REMARK    4  A    between atoms: C4_7  and  N2_8
REMARK    5  A    between atoms: C6_11  and  O1_12
REMARK    6  A    between atoms: C10_19  and  O4_20
REMARK    7  A    between atoms: C10_19  and  O5_22
REMARK    8  A    between atoms: C11_24  and  O6_25
REMARK    9  A    between atoms: C12_27  and  O7_28
REMARK   10  A    between atoms: O7_28  and  C13_29
REMARK   11  A    between atoms: N4_31  and  O8_33
ROOT
HETATM    1  N2  UNL     1      30.851  31.792  39.541  1.00  0.00    -0.369 N
ATOM      2  H2  UNL     1      31.614  31.840  40.218  1.00  0.00     0.164 HD
HETATM    3  C5  UNL     1      29.754  32.122  40.015  1.00  0.00     0.072 C
HETATM    4  C6  UNL     1      28.359  32.231  39.501  1.00  0.00     0.236 C
HETATM    5  O2  UNL     1      27.709  31.427  40.474  1.00  0.00    -0.316 OA
HETATM    6  C7  UNL     1      28.195  31.889  41.696  1.00  0.00     0.286 C
HETATM    7  O3  UNL     1      28.931  30.919  42.411  1.00  0.00    -0.358 OA
HETATM    8  C8  UNL     1      30.084  31.739  42.499  1.00  0.00     0.197 C
HETATM    9  C9  UNL     1      29.536  32.545  41.424  1.00  0.00     0.133 C
HETATM   10  C10 UNL     1      29.546  34.026  41.467  1.00  0.00     0.209 C
HETATM   11  C11 UNL     1      28.766  34.577  40.322  1.00  0.00     0.216 C
HETATM   12  C12 UNL     1      27.808  33.612  39.688  1.00  0.00     0.234 C
ENDROOT
BRANCH   1  13
HETATM   13  C4  UNL     1      31.262  31.371  38.276  1.00  0.00     0.088 C
BRANCH  13  14
HETATM   14  C3  UNL     1      31.336  29.858  38.136  1.00  0.00     0.276 C
BRANCH  14  15
HETATM   15  N1  UNL     1      30.033  29.273  37.958  1.00  0.00    -0.071 N
ATOM     16  H12 UNL     1      29.983  28.776  37.069  1.00  0.00     0.277 HD
ATOM     17  H11 UNL     1      29.335  29.997  37.791  1.00  0.00     0.277 HD
BRANCH  15  18
HETATM   18  C2  UNL     1      29.623  28.419  39.035  1.00  0.00     0.228 C
HETATM   19  C1  UNL     1      28.113  28.260  38.985  1.00  0.00     0.034 C
ENDBRANCH  15  18
ENDBRANCH  14  15
ENDBRANCH  13  14
ENDBRANCH   1  13
BRANCH   4  20
HETATM   20  O1  UNL     1      28.196  31.691  38.255  1.00  0.00    -0.359 OA
ATOM     21  H1  UNL     1      27.724  30.866  38.261  1.00  0.00     0.213 HD
ENDBRANCH   4  20
BRANCH  12  22
HETATM   22  O7  UNL     1      27.454  34.128  38.422  1.00  0.00    -0.309 OA
BRANCH  22  23
HETATM   23  C13 UNL     1      26.177  34.551  38.089  1.00  0.00     0.252 C
HETATM   24  N3  UNL     1      25.194  34.579  39.099  1.00  0.00    -0.054 NA
HETATM   25  N4  UNL     1      25.988  34.891  36.857  1.00  0.00    -0.235 N
ATOM     26  H4  UNL     1      26.739  34.850  36.167  1.00  0.00     0.197 HD
BRANCH  25  27
HETATM   27  O8  UNL     1      24.717  35.312  36.522  1.00  0.00    -0.287 OA
ATOM     28  H8  UNL     1      24.169  34.683  36.067  1.00  0.00     0.244 HD
ENDBRANCH  25  27
ENDBRANCH  22  23
ENDBRANCH  12  22
BRANCH  10  29
HETATM   29  O4  UNL     1      29.124  34.503  42.708  1.00  0.00    -0.362 OA
ATOM     30  H4  UNL     1      28.737  35.368  42.635  1.00  0.00     0.213 HD
ENDBRANCH  10  29
BRANCH  10  31
HETATM   31  O5  UNL     1      30.880  34.451  41.323  1.00  0.00    -0.362 OA
ATOM     32  H5  UNL     1      31.215  34.085  40.513  1.00  0.00     0.213 HD
ENDBRANCH  10  31
BRANCH  11  33
HETATM   33  O6  UNL     1      28.014  35.655  40.794  1.00  0.00    -0.387 OA
ATOM     34  H6  UNL     1      27.221  35.308  41.186  1.00  0.00     0.210 HD
ENDBRANCH  11  33
TORSDOF 11
ENDMDL