MODEL 5
REMARK VINA RESULT: -5.685048606      2.212      4.478
REMARK  10 active torsions:
REMARK  status: ('A' for Active; 'I' for Inactive)
REMARK    1  A    between atoms: C2_5  and  N3_6
REMARK    2  A    between atoms: C3_9  and  N4_10
REMARK    3  A    between atoms: N4_10  and  O1_12
REMARK    4  A    between atoms: N5_14  and  C4_15
REMARK    5  A    between atoms: C4_15  and  C5_16
REMARK    6  A    between atoms: C5_16  and  N6_17
REMARK    7  A    between atoms: N6_17  and  O2_19
REMARK    8  A    between atoms: C6_21  and  O3_22
REMARK    9  A    between atoms: C6_21  and  C7_24
REMARK   10  A    between atoms: C8_25  and  O4_26
ROOT
HETATM    1  C5  UNL     1      30.665  31.874  39.447  1.00  0.00     0.084 C
HETATM    2  C6  UNL     1      29.630  32.171  38.566  1.00  0.00     0.112 C
ENDROOT
BRANCH   1   3
HETATM    3  C4  UNL     1      30.833  32.002  40.877  1.00  0.00     0.197 C
BRANCH   3   4
HETATM    4  N5  UNL     1      30.429  33.347  41.359  1.00  0.00    -0.274 N
HETATM    5  C3  UNL     1      29.406  33.429  42.210  1.00  0.00     0.177 A
HETATM    6  C2  UNL     1      28.981  34.676  42.699  1.00  0.00     0.161 A
HETATM    7  N2  UNL     1      29.655  35.767  42.267  1.00  0.00    -0.277 N
HETATM    8  N1  UNL     1      30.659  35.676  41.432  1.00  0.00    -0.245 N
ATOM      9  H2  UNL     1      29.372  36.688  42.602  1.00  0.00     0.189 HD
HETATM   10  C1  UNL     1      31.355  36.847  40.991  1.00  0.00     0.183 C
HETATM   11  C11 UNL     1      31.053  34.460  40.972  1.00  0.00     0.345 A
HETATM   12  O7  UNL     1      32.017  34.336  40.165  1.00  0.00    -0.245 OA
BRANCH   5  13
HETATM   13  N4  UNL     1      28.814  32.348  42.575  1.00  0.00    -0.249 N
ATOM     14  H4  UNL     1      28.240  31.817  41.921  1.00  0.00     0.196 HD
BRANCH  13  15
HETATM   15  O1  UNL     1      28.981  31.933  43.871  1.00  0.00    -0.288 OA
ATOM     16  H1  UNL     1      29.319  31.058  44.017  1.00  0.00     0.244 HD
ENDBRANCH  13  15
ENDBRANCH   5  13
BRANCH   6  17
HETATM   17  N3  UNL     1      27.990  34.726  43.518  1.00  0.00    -0.381 N
ATOM     18  H32 UNL     1      28.117  35.172  44.427  1.00  0.00     0.157 HD
ATOM     19  H31 UNL     1      27.067  34.342  43.316  1.00  0.00     0.157 HD
ENDBRANCH   6  17
ENDBRANCH   3   4
ENDBRANCH   1   3
BRANCH   1  20
HETATM   20  N6  UNL     1      31.776  31.342  38.893  1.00  0.00    -0.269 N
ATOM     21  H6  UNL     1      31.859  30.326  38.895  1.00  0.00     0.194 HD
BRANCH  20  22
HETATM   22  O2  UNL     1      32.764  32.030  38.350  1.00  0.00    -0.290 OA
ATOM     23  H2  UNL     1      33.661  31.730  38.264  1.00  0.00     0.244 HD
ENDBRANCH  20  22
ENDBRANCH   1  20
BRANCH   2  24
HETATM   24  O3  UNL     1      29.926  31.860  37.271  1.00  0.00    -0.357 OA
ATOM     25  H3  UNL     1      29.296  32.207  36.651  1.00  0.00     0.217 HD
ENDBRANCH   2  24
BRANCH   2  26
HETATM   26  C7  UNL     1      28.298  32.725  38.613  1.00  0.00     0.118 A
HETATM   27  C8  UNL     1      27.275  32.323  39.425  1.00  0.00     0.162 A
HETATM   28  N7  UNL     1      26.055  32.953  39.346  1.00  0.00    -0.288 N
HETATM   29  C9  UNL     1      25.832  33.952  38.497  1.00  0.00     0.329 A
ATOM     30  H7  UNL     1      25.298  32.645  39.956  1.00  0.00     0.172 HD
HETATM   31  O5  UNL     1      24.715  34.512  38.442  1.00  0.00    -0.247 OA
HETATM   32  N8  UNL     1      26.789  34.395  37.674  1.00  0.00    -0.275 N
HETATM   33  C10 UNL     1      27.974  33.801  37.734  1.00  0.00     0.266 A
ATOM     34  H8  UNL     1      26.614  35.161  37.024  1.00  0.00     0.173 HD
HETATM   35  O6  UNL     1      28.883  34.225  36.949  1.00  0.00    -0.267 OA
BRANCH  27  36
HETATM   36  O4  UNL     1      27.384  31.308  40.339  1.00  0.00    -0.345 OA
ATOM     37  H4  UNL     1      26.977  31.326  41.197  1.00  0.00     0.219 HD
ENDBRANCH  27  36
ENDBRANCH   2  26
TORSDOF 10
ENDMDL