MODEL 4
REMARK VINA RESULT: -5.482912450      3.633      6.815
REMARK  11 active torsions:
REMARK  status: ('A' for Active; 'I' for Inactive)
REMARK    1  A    between atoms: C4_7  and  C5_8
REMARK    2  A    between atoms: C5_8  and  N3_9
REMARK    3  A    between atoms: N3_9  and  N4_11
REMARK    4  A    between atoms: N4_11  and  C6_12
REMARK    5  A    between atoms: C7_15  and  O1_16
REMARK    6  A    between atoms: C8_18  and  C9_19
REMARK    7  A    between atoms: C9_19  and  N6_20
REMARK    8  A    between atoms: N6_20  and  N7_21
REMARK    9  A    between atoms: N7_21  and  C10_23
REMARK   10  A    between atoms: C12_34  and  N12_35
REMARK   11  A    between atoms: N12_35  and  N13_37
ROOT
HETATM    1  C6  UNL     1      31.071  35.908  42.690  1.00  0.00     0.251 A
HETATM    2  N5  UNL     1      29.714  35.742  42.918  1.00  0.00    -0.305 N
ATOM      3  H5  UNL     1      29.130  36.574  42.992  1.00  0.00     0.170 HD
HETATM    4  C7  UNL     1      29.138  34.555  43.044  1.00  0.00     0.172 A
HETATM    5  C8  UNL     1      29.942  33.442  42.940  1.00  0.00     0.116 A
HETATM    6  N11 UNL     1      31.256  33.574  42.721  1.00  0.00    -0.332 N
ATOM      7  H11 UNL     1      31.823  32.728  42.649  1.00  0.00     0.168 HD
HETATM    8  C12 UNL     1      31.878  34.783  42.587  1.00  0.00     0.182 A
ENDROOT
BRANCH   5   9
HETATM    9  C9  UNL     1      29.352  32.101  43.067  1.00  0.00     0.243 C
BRANCH   9  10
HETATM   10  N6  UNL     1      28.519  31.528  42.420  1.00  0.00    -0.321 NA
BRANCH  10  11
HETATM   11  N7  UNL     1      27.807  31.095  41.443  1.00  0.00    -0.064 N
ATOM     12  H7  UNL     1      26.886  31.521  41.341  1.00  0.00     0.221 HD
BRANCH  11  13
HETATM   13  C10 UNL     1      28.113  30.174  40.560  1.00  0.00     0.726 A
HETATM   14  N8  UNL     1      29.313  29.961  40.000  1.00  0.00    -0.126 N
HETATM   15  N9  UNL     1      29.201  28.941  39.169  1.00  0.00    -0.236 N
ATOM     16  H8  UNL     1      30.163  30.494  40.183  1.00  0.00     0.206 HD
HETATM   17  C11 UNL     1      27.917  28.468  39.172  1.00  0.00     0.353 A
ATOM     18  H9  UNL     1      29.962  28.560  38.607  1.00  0.00     0.192 HD
HETATM   19  O2  UNL     1      27.474  27.499  38.488  1.00  0.00    -0.245 OA
HETATM   20  N10 UNL     1      27.277  29.255  40.043  1.00  0.00    -0.137 N
ATOM     21  H10 UNL     1      26.290  29.171  40.284  1.00  0.00     0.189 HD
ENDBRANCH  11  13
ENDBRANCH  10  11
ENDBRANCH   9  10
ENDBRANCH   5   9
BRANCH   4  22
HETATM   22  O1  UNL     1      27.752  34.466  43.274  1.00  0.00    -0.344 OA
ATOM     23  H1  UNL     1      27.419  34.430  44.163  1.00  0.00     0.219 HD
ENDBRANCH   4  22
BRANCH   8  24
HETATM   24  N12 UNL     1      33.136  34.806  42.385  1.00  0.00    -0.288 N
ATOM     25  H12 UNL     1      33.471  34.385  41.519  1.00  0.00     0.188 HD
BRANCH  24  26
HETATM   26  N13 UNL     1      34.072  35.337  43.211  1.00  0.00    -0.343 N
ATOM     27 2H13 UNL     1      35.028  35.336  42.855  1.00  0.00     0.176 HD
ATOM     28 1H13 UNL     1      33.907  35.730  44.138  1.00  0.00     0.176 HD
ENDBRANCH  24  26
ENDBRANCH   8  24
BRANCH   1  29
HETATM   29  N4  UNL     1      31.483  37.025  42.589  1.00  0.00    -0.303 NA
BRANCH  29  30
HETATM   30  N3  UNL     1      31.957  38.191  42.505  1.00  0.00    -0.243 N
ATOM     31  H3  UNL     1      31.789  38.763  43.332  1.00  0.00     0.201 HD
BRANCH  30  32
HETATM   32  C5  UNL     1      32.616  38.803  41.571  1.00  0.00     0.152 C
BRANCH  32  33
HETATM   33  C4  UNL     1      32.112  39.986  40.914  1.00  0.00     0.069 A
HETATM   34  N1  UNL     1      31.731  40.100  39.623  1.00  0.00    -0.296 N
HETATM   35  C1  UNL     1      31.748  39.048  38.628  1.00  0.00     0.178 C
HETATM   36  N2  UNL     1      31.339  41.349  39.445  1.00  0.00    -0.310 N
HETATM   37  C2  UNL     1      31.450  42.054  40.565  1.00  0.00     0.109 A
ATOM     38  H2  UNL     1      30.996  41.724  38.561  1.00  0.00     0.186 HD
HETATM   39  C3  UNL     1      31.946  41.208  41.545  1.00  0.00     0.051 A
ENDBRANCH  32  33
ENDBRANCH  30  32
ENDBRANCH  29  30
ENDBRANCH   1  29
TORSDOF 11
ENDMDL