MODEL 2
REMARK VINA RESULT: -5.913933828      3.232      5.171
REMARK  8 active torsions:
REMARK  status: ('A' for Active; 'I' for Inactive)
REMARK       I    between atoms: C1_4  and  N3_6
REMARK       I    between atoms: C2_8  and  N5_10
REMARK    1  A    between atoms: C4_13  and  C5_14
REMARK    2  A    between atoms: C5_14  and  O1_15
REMARK    3  A    between atoms: O1_15  and  S1_16
REMARK    4  A    between atoms: C6_21  and  O6_22
REMARK    5  A    between atoms: C6_21  and  C7_24
REMARK    6  A    between atoms: C7_24  and  O8_26
REMARK    7  A    between atoms: O8_26  and  N6_27
REMARK    8  A    between atoms: C8_30  and  O9_31
ROOT
HETATM    1  N1  UNL     1      27.826  34.952  35.328  1.00  0.00    -0.373 N
ATOM      2  H11 UNL     1      27.119  34.818  36.051  1.00  0.00     0.158 HD
ATOM      3  H12 UNL     1      27.724  35.747  34.696  1.00  0.00     0.158 HD
HETATM    4  C1  UNL     1      28.799  34.117  35.255  1.00  0.00     0.188 C
HETATM    5  N2  UNL     1      29.781  34.303  34.251  1.00  0.00    -0.064 NA
HETATM    6  N3  UNL     1      28.940  33.013  36.133  1.00  0.00    -0.305 N
ATOM      7  H3  UNL     1      29.439  32.190  35.794  1.00  0.00     0.171 HD
HETATM    8  C2  UNL     1      28.474  32.987  37.337  1.00  0.00     0.194 C
HETATM    9  N4  UNL     1      27.782  34.145  37.789  1.00  0.00    -0.063 NA
HETATM   10  N5  UNL     1      28.682  31.832  38.104  1.00  0.00    -0.333 N
ATOM     11  H5  UNL     1      28.620  30.924  37.643  1.00  0.00     0.168 HD
HETATM   12  C3  UNL     1      28.945  31.864  39.342  1.00  0.00     0.055 C
HETATM   13  C4  UNL     1      29.186  30.727  40.265  1.00  0.00     0.199 C
HETATM   14  O5  UNL     1      30.260  31.205  41.012  1.00  0.00    -0.331 OA
HETATM   15  C6  UNL     1      29.958  32.518  41.313  1.00  0.00     0.288 C
HETATM   16  C8  UNL     1      29.083  33.064  40.208  1.00  0.00     0.239 C
ENDROOT
BRANCH  13  17
HETATM   17  C5  UNL     1      29.519  29.455  39.537  1.00  0.00     0.231 C
BRANCH  17  18
HETATM   18  O1  UNL     1      28.441  28.873  38.923  1.00  0.00    -0.254 OA
BRANCH  18  19
HETATM   19  S1  UNL     1      28.953  28.242  37.451  1.00  0.00     0.251 S
HETATM   20  O2  UNL     1      28.697  29.257  36.380  1.00  0.00    -0.572 OA
HETATM   21  O3  UNL     1      30.433  27.947  37.474  1.00  0.00    -0.572 OA
HETATM   22  O4  UNL     1      28.177  26.788  37.127  1.00  0.00    -0.572 OA
ENDBRANCH  18  19
ENDBRANCH  17  18
ENDBRANCH  13  17
BRANCH  16  23
HETATM   23  O9  UNL     1      27.843  33.349  40.740  1.00  0.00    -0.384 OA
ATOM     24  H9  UNL     1      27.826  33.024  41.633  1.00  0.00     0.210 HD
ENDBRANCH  16  23
BRANCH  15  25
HETATM   25  O6  UNL     1      31.101  33.319  41.360  1.00  0.00    -0.355 OA
ATOM     26  H6  UNL     1      30.885  34.242  41.422  1.00  0.00     0.213 HD
ENDBRANCH  15  25
BRANCH  15  27
HETATM   27  C7  UNL     1      29.291  32.570  42.642  1.00  0.00     0.346 C
HETATM   28  O7  UNL     1      28.813  31.510  43.167  1.00  0.00    -0.257 OA
BRANCH  27  29
HETATM   29  O8  UNL     1      29.147  33.726  43.376  1.00  0.00    -0.202 OA
BRANCH  29  30
HETATM   30  N6  UNL     1      27.959  34.402  43.405  1.00  0.00    -0.302 N
ATOM     31  H62 UNL     1      27.499  34.536  44.305  1.00  0.00     0.184 HD
ATOM     32  H61 UNL     1      27.539  34.766  42.550  1.00  0.00     0.184 HD
ENDBRANCH  29  30
ENDBRANCH  27  29
ENDBRANCH  15  27
TORSDOF 8
ENDMDL