MODEL 3
REMARK VINA RESULT: -6.001354814      1.041      2.558
REMARK  13 active torsions:
REMARK  status: ('A' for Active; 'I' for Inactive)
REMARK    1  A    between atoms: C2_5  and  C3_6
REMARK    2  A    between atoms: C3_6  and  C4_7
REMARK    3  A    between atoms: C3_6  and  C6_15
REMARK    4  A    between atoms: C4_7  and  C5_8
REMARK    5  A    between atoms: C5_8  and  O1_9
REMARK    6  A    between atoms: C5_8  and  N3_11
REMARK    7  A    between atoms: N3_11  and  O2_13
REMARK    8  A    between atoms: C6_15  and  O3_16
REMARK    9  A    between atoms: C6_15  and  N4_18
REMARK   10  A    between atoms: C8_20  and  N5_21
REMARK   11  A    between atoms: C10_26  and  N6_27
REMARK   12  A    between atoms: N9_36  and  N10_37
REMARK   13  A    between atoms: N10_37  and  O4_39
ROOT
HETATM    1  C3  UNL     1      28.830  32.580  40.287  1.00  0.00     0.041 C
ENDROOT
BRANCH   1   2
HETATM    2  C2  UNL     1      28.070  33.208  39.393  1.00  0.00     0.120 A
HETATM    3  N2  UNL     1      28.575  33.528  38.104  1.00  0.00    -0.314 N
HETATM    4  C1  UNL     1      27.900  34.097  37.188  1.00  0.00     0.219 A
ATOM      5  H2  UNL     1      29.545  33.286  37.899  1.00  0.00     0.170 HD
HETATM    6  N1  UNL     1      28.464  34.391  35.916  1.00  0.00    -0.061 NA
HETATM    7  N9  UNL     1      26.549  34.437  37.470  1.00  0.00    -0.178 N
HETATM    8  C12 UNL     1      25.967  34.143  38.756  1.00  0.00     0.219 A
HETATM    9  N7  UNL     1      26.734  33.561  39.625  1.00  0.00    -0.314 N
HETATM   10  N8  UNL     1      24.613  34.489  39.025  1.00  0.00    -0.061 NA
ATOM     11  H7  UNL     1      26.339  33.346  40.540  1.00  0.00     0.170 HD
BRANCH   7  12
HETATM   12  N10 UNL     1      25.750  35.059  36.520  1.00  0.00    -0.198 N
ATOM     13  H10 UNL     1      25.218  34.513  35.843  1.00  0.00     0.216 HD
BRANCH  12  14
HETATM   14  O4  UNL     1      25.702  36.306  36.522  1.00  0.00    -0.274 OA
ATOM     15  H4  UNL     1      25.456  36.744  35.715  1.00  0.00     0.246 HD
ENDBRANCH  12  14
ENDBRANCH   7  12
ENDBRANCH   1   2
BRANCH   1  16
HETATM   16  C4  UNL     1      29.659  33.253  41.274  1.00  0.00     0.102 C
BRANCH  16  17
HETATM   17  C5  UNL     1      29.195  33.435  42.677  1.00  0.00     0.243 C
BRANCH  17  18
HETATM   18  O1  UNL     1      28.406  32.411  43.173  1.00  0.00    -0.375 OA
ATOM     19  H1  UNL     1      28.783  31.542  43.108  1.00  0.00     0.212 HD
ENDBRANCH  17  18
BRANCH  17  20
HETATM   20  N3  UNL     1      28.348  34.613  42.660  1.00  0.00    -0.276 N
ATOM     21  H3  UNL     1      28.446  35.347  41.959  1.00  0.00     0.190 HD
BRANCH  20  22
HETATM   22  O2  UNL     1      27.447  34.664  43.611  1.00  0.00    -0.292 OA
ATOM     23  H2  UNL     1      27.776  34.922  44.464  1.00  0.00     0.244 HD
ENDBRANCH  20  22
ENDBRANCH  17  20
ENDBRANCH  16  17
ENDBRANCH   1  16
BRANCH   1  24
HETATM   24  C6  UNL     1      28.810  31.138  40.263  1.00  0.00     0.148 C
BRANCH  24  25
HETATM   25  O3  UNL     1      27.895  30.578  41.029  1.00  0.00    -0.346 OA
ATOM     26  H3  UNL     1      28.235  30.046  41.740  1.00  0.00     0.219 HD
ENDBRANCH  24  25
BRANCH  24  27
HETATM   27  N4  UNL     1      29.614  30.263  39.550  1.00  0.00    -0.358 N
HETATM   28  C7  UNL     1      28.969  29.626  38.353  1.00  0.00     0.157 C
HETATM   29  C8  UNL     1      28.810  28.178  38.676  1.00  0.00     0.203 C
HETATM   30  C9  UNL     1      30.163  27.613  38.967  1.00  0.00     0.068 C
HETATM   31  C10 UNL     1      31.259  28.620  38.876  1.00  0.00     0.203 C
HETATM   32  C11 UNL     1      30.955  29.861  39.753  1.00  0.00     0.157 C
BRANCH  29  33
HETATM   33  N5  UNL     1      28.190  27.479  37.576  1.00  0.00    -0.073 N
ATOM     34  H53 UNL     1      27.495  28.056  37.104  1.00  0.00     0.274 HD
ATOM     35  H52 UNL     1      28.836  27.349  36.797  1.00  0.00     0.274 HD
ATOM     36  H51 UNL     1      27.796  26.593  37.892  1.00  0.00     0.274 HD
ENDBRANCH  29  33
BRANCH  31  37
HETATM   37  N6  UNL     1      32.502  28.070  39.424  1.00  0.00    -0.073 N
ATOM     38  H63 UNL     1      32.336  27.224  39.969  1.00  0.00     0.274 HD
ATOM     39  H62 UNL     1      33.093  27.668  38.697  1.00  0.00     0.274 HD
ATOM     40  H61 UNL     1      32.995  28.780  39.965  1.00  0.00     0.274 HD
ENDBRANCH  31  37
ENDBRANCH  24  27
ENDBRANCH   1  24
TORSDOF 13
ENDMDL