MODEL 5
REMARK VINA RESULT: -5.339800498      3.698      7.891
REMARK  8 active torsions:
REMARK  status: ('A' for Active; 'I' for Inactive)
REMARK    1  A    between atoms: N1_1  and  C1_4
REMARK    2  A    between atoms: C2_9  and  C3_10
REMARK    3  A    between atoms: C3_10  and  N4_11
REMARK    4  A    between atoms: N5_12  and  O1_13
REMARK    5  A    between atoms: C4_15  and  S1_16
REMARK    6  A    between atoms: S1_16  and  C5_17
REMARK    7  A    between atoms: C5_17  and  C6_18
REMARK    8  A    between atoms: N9_24  and  N10_25
ROOT
HETATM    1  N4  UNL     1      29.155  27.116  38.194  1.00  0.00    -0.089 NA
HETATM    2  N5  UNL     1      28.402  27.890  39.035  1.00  0.00    -0.077 NA
HETATM    3  C4  UNL     1      28.851  29.228  39.071  1.00  0.00     0.276 C
HETATM    4  N11 UNL     1      29.125  29.707  37.735  1.00  0.00    -0.276 N
ATOM      5  H11 UNL     1      29.077  30.656  37.364  1.00  0.00     0.176 HD
HETATM    6  S2  UNL     1      29.558  28.224  36.930  1.00  0.00     0.316 S
HETATM    7  O2  UNL     1      31.014  28.181  36.596  1.00  0.00    -0.187 OA
HETATM    8  O3  UNL     1      28.746  28.009  35.702  1.00  0.00    -0.187 OA
ENDROOT
BRANCH   3   9
HETATM    9  S1  UNL     1      27.684  30.319  39.878  1.00  0.00    -0.117 SA
BRANCH   9  10
HETATM   10  C5  UNL     1      28.219  32.016  39.994  1.00  0.00     0.158 C
BRANCH  10  11
HETATM   11  C6  UNL     1      28.571  32.302  41.414  1.00  0.00     0.145 A
HETATM   12  N6  UNL     1      28.588  31.445  42.449  1.00  0.00    -0.268 N
HETATM   13  N7  UNL     1      28.955  32.087  43.559  1.00  0.00    -0.004 NA
ATOM     14  H6  UNL     1      28.355  30.454  42.394  1.00  0.00     0.185 HD
HETATM   15  N8  UNL     1      29.170  33.356  43.215  1.00  0.00    -0.204 N
HETATM   16  N9  UNL     1      28.940  33.487  41.929  1.00  0.00    -0.176 N
ATOM     17  H8  UNL     1      29.463  34.102  43.846  1.00  0.00     0.208 HD
BRANCH  16  18
HETATM   18  N10 UNL     1      29.066  34.698  41.211  1.00  0.00    -0.322 N
ATOM     19 2H10 UNL     1      29.286  34.762  40.218  1.00  0.00     0.179 HD
ATOM     20 1H10 UNL     1      28.954  35.636  41.597  1.00  0.00     0.179 HD
ENDBRANCH  16  18
ENDBRANCH  10  11
ENDBRANCH   9  10
ENDBRANCH   3   9
BRANCH   2  21
HETATM   21  O1  UNL     1      27.091  27.688  38.933  1.00  0.00    -0.294 OA
ATOM     22  H1  UNL     1      26.595  27.952  39.700  1.00  0.00     0.238 HD
ENDBRANCH   2  21
BRANCH   1  23
HETATM   23  C3  UNL     1      30.352  26.569  38.737  1.00  0.00     0.216 C
BRANCH  23  24
HETATM   24  C2  UNL     1      30.622  25.181  38.275  1.00  0.00     0.157 A
HETATM   25  N3  UNL     1      31.690  24.477  38.665  1.00  0.00    -0.279 N
HETATM   26  N2  UNL     1      31.641  23.300  38.086  1.00  0.00    -0.263 N
ATOM     27  H3  UNL     1      32.418  24.799  39.303  1.00  0.00     0.189 HD
HETATM   28  C1  UNL     1      30.539  23.264  37.331  1.00  0.00     0.238 A
ATOM     29  H2  UNL     1      32.321  22.548  38.194  1.00  0.00     0.190 HD
HETATM   30  O4  UNL     1      29.942  24.420  37.466  1.00  0.00    -0.263 OA
BRANCH  28  31
HETATM   31  N1  UNL     1      30.179  22.255  36.623  1.00  0.00    -0.364 N
ATOM     32  H12 UNL     1      29.692  21.410  36.922  1.00  0.00     0.159 HD
ATOM     33  H11 UNL     1      30.345  22.169  35.620  1.00  0.00     0.159 HD
ENDBRANCH  28  31
ENDBRANCH  23  24
ENDBRANCH   1  23
TORSDOF 8
ENDMDL