MODEL 5
REMARK VINA RESULT: -4.537870768      7.565      9.385
REMARK  1 active torsions:
REMARK  status: ('A' for Active; 'I' for Inactive)
REMARK    1  A    between atoms: N1_2  and  C2_5
ROOT
HETATM    1  C2  UNL     1      13.289   9.665  -0.257  1.00  0.00     0.237 C
HETATM    2  C3  UNL     1      13.044  10.962  -1.021  1.00  0.00     0.079 C
HETATM    3  C4  UNL     1      14.261  11.186  -1.879  1.00  0.00     0.267 C
HETATM    4  C5  UNL     1      14.166  10.422  -3.208  1.00  0.00     0.119 C
HETATM    5  S1  UNL     1      14.306   8.704  -2.549  1.00  0.00    -0.123 SA
HETATM    6  C6  UNL     1      14.603   9.227  -0.812  1.00  0.00     0.346 C
HETATM    7  N2  UNL     1      15.272  10.497  -1.089  1.00  0.00     0.030 N
HETATM    8  C7  UNL     1      16.513  10.329  -1.793  1.00  0.00     0.358 C
HETATM    9  O1  UNL     1      15.466  11.225   0.016  1.00  0.00    -0.063 OA
ENDROOT
BRANCH   1  10
HETATM   10  N1  UNL     1      13.413   9.869   1.154  1.00  0.00    -0.071 N
HETATM   11  C1  UNL     1      13.602   8.618   1.819  1.00  0.00     0.267 C
ATOM     12  H12 UNL     1      12.622  10.388   1.535  1.00  0.00     0.277 HD
ATOM     13  H11 UNL     1      14.152  10.535   1.379  1.00  0.00     0.277 HD
ENDBRANCH   1  10
TORSDOF 1
ENDMDL