MODEL 5
REMARK VINA RESULT: -4.557034077      2.637      3.798
REMARK  3 active torsions:
REMARK  status: ('A' for Active; 'I' for Inactive)
REMARK    1  A    between atoms: N1_4  and  C4_5
REMARK    2  A    between atoms: C4_5  and  C6_7
REMARK    3  A    between atoms: C6_7  and  N2_8
ROOT
HETATM    1  C1  UNL     1      12.634   8.620   2.025  1.00  0.00     0.023 C
HETATM    2  C2  UNL     1      13.879   8.899   2.807  1.00  0.00     0.060 C
HETATM    3  C3  UNL     1      13.618   9.099   4.269  1.00  0.00     0.132 C
HETATM    4  N1  UNL     1      14.858   9.162   5.021  1.00  0.00    -0.405 N
HETATM    5  C7  UNL     1      15.783  10.103   4.522  1.00  0.00     0.127 C
HETATM    6  C8  UNL     1      15.141  11.286   3.770  1.00  0.00     0.093 C
HETATM    7  S1  UNL     1      14.521  10.522   2.215  1.00  0.00    -0.161 SA
ENDROOT
BRANCH   4   8
HETATM    8  C4  UNL     1      14.633   9.107   6.426  1.00  0.00     0.100 C
HETATM    9  C5  UNL     1      13.705  10.135   6.971  1.00  0.00     0.033 C
BRANCH   8  10
HETATM   10  C6  UNL     1      15.915   9.097   7.192  1.00  0.00     0.254 C
BRANCH  10  11
HETATM   11  N2  UNL     1      16.322   7.761   7.480  1.00  0.00    -0.077 N
ATOM     12  H23 UNL     1      16.617   7.657   8.450  1.00  0.00     0.274 HD
ATOM     13  H22 UNL     1      15.529   7.119   7.491  1.00  0.00     0.274 HD
ATOM     14  H21 UNL     1      17.046   7.455   6.829  1.00  0.00     0.274 HD
ENDBRANCH  10  11
ENDBRANCH   8  10
ENDBRANCH   4   8
TORSDOF 3
ENDMDL