MODEL 3
REMARK VINA RESULT: -5.159163292      1.444      3.172
REMARK  2 active torsions:
REMARK  status: ('A' for Active; 'I' for Inactive)
REMARK    1  A    between atoms: O1_2  and  C2_3
REMARK    2  A    between atoms: N2_10  and  O2_11
ROOT
HETATM    1  C2  UNL     1      15.863  10.543   1.321  1.00  0.00     0.347 C
HETATM    2  N1  UNL     1      15.497  10.660  -0.080  1.00  0.00    -0.024 N
ATOM      3  H11 UNL     1      16.276  10.469  -0.711  1.00  0.00     0.282 HD
ATOM      4  H12 UNL     1      15.326  11.624  -0.367  1.00  0.00     0.282 HD
HETATM    5  C3  UNL     1      14.374   9.803  -0.306  1.00  0.00     0.199 C
HETATM    6  C4  UNL     1      14.684   8.700  -1.326  1.00  0.00     0.066 C
HETATM    7  C5  UNL     1      13.249  10.616  -0.888  1.00  0.00     0.066 C
HETATM    8  N2  UNL     1      14.040   9.150   0.918  1.00  0.00    -0.150 NA
HETATM    9  C6  UNL     1      14.715   9.825   1.987  1.00  0.00     0.085 C
HETATM   10  C7  UNL     1      15.284   8.887   3.019  1.00  0.00     0.039 C
HETATM   11  C8  UNL     1      13.758  10.759   2.676  1.00  0.00     0.039 C
ENDROOT
BRANCH   1  12
HETATM   12  O1  UNL     1      16.130  11.768   1.890  1.00  0.00    -0.362 OA
HETATM   13  C1  UNL     1      17.457  12.086   1.729  1.00  0.00     0.204 C
ENDBRANCH   1  12
BRANCH   8  14
HETATM   14  O2  UNL     1      12.718   9.004   1.114  1.00  0.00    -0.310 OA
ATOM     15  H2  UNL     1      12.482   8.204   1.568  1.00  0.00     0.237 HD
ENDBRANCH   8  14
TORSDOF 2
ENDMDL