MODEL 1
REMARK VINA RESULT: -5.159081299      0.000      0.000
REMARK  4 active torsions:
REMARK  status: ('A' for Active; 'I' for Inactive)
REMARK    1  A    between atoms: C2_2  and  N1_5
REMARK    2  A    between atoms: N1_5  and  O1_6
REMARK    3  A    between atoms: N1_5  and  C5_8
REMARK    4  A    between atoms: C5_8  and  C6_9
ROOT
HETATM    1  N1  UNL     1      16.108  10.665  -1.270  1.00  0.00    -0.261 N
ENDROOT
BRANCH   1   2
HETATM    2  C2  UNL     1      14.908  10.183  -1.890  1.00  0.00     0.048 C
HETATM    3  C1  UNL     1      14.499   8.827  -1.340  1.00  0.00     0.040 C
HETATM    4  C3  UNL     1      15.068  10.035  -3.374  1.00  0.00     0.040 C
HETATM    5  C4  UNL     1      13.800  11.162  -1.536  1.00  0.00     0.040 C
ENDBRANCH   1   2
BRANCH   1   6
HETATM    6  O1  UNL     1      17.209  10.890  -2.041  1.00  0.00    -0.287 OA
ATOM      7  H1  UNL     1      17.830  11.560  -1.778  1.00  0.00     0.244 HD
ENDBRANCH   1   6
BRANCH   1   8
HETATM    8  C5  UNL     1      16.154  10.883  -0.015  1.00  0.00     0.157 C
BRANCH   8   9
HETATM    9  C6  UNL     1      17.409  11.487   0.578  1.00  0.00     0.124 A
HETATM   10  N2  UNL     1      17.973  12.621   0.442  1.00  0.00    -0.285 N
HETATM   11  N3  UNL     1      18.977  12.516   1.193  1.00  0.00    -0.267 N
ATOM     12  H2  UNL     1      17.685  13.414  -0.131  1.00  0.00     0.188 HD
HETATM   13  S1  UNL     1      18.583  10.988   1.632  1.00  0.00     0.022 SA
ATOM     14  H3  UNL     1      19.744  13.143   1.436  1.00  0.00     0.195 HD
ENDBRANCH   8   9
ENDBRANCH   1   8
TORSDOF 4
ENDMDL