MODEL 5
REMARK VINA RESULT: -5.483651259      1.329      1.701
REMARK  2 active torsions:
REMARK  status: ('A' for Active; 'I' for Inactive)
REMARK    1  A    between atoms: C2_2  and  N1_3
REMARK    2  A    between atoms: N1_3  and  C3_5
ROOT
HETATM    1  C3  UNL     1      17.455  11.261   1.349  1.00  0.00     0.139 A
HETATM    2  N2  UNL     1      16.171  10.894   1.236  1.00  0.00    -0.342 N
ATOM      3  H2  UNL     1      15.583  10.883   2.069  1.00  0.00     0.167 HD
HETATM    4  C4  UNL     1      15.630  10.535   0.039  1.00  0.00     0.029 A
HETATM    5  C5  UNL     1      14.200  10.135  -0.040  1.00  0.00     0.070 C
HETATM    6  C6  UNL     1      16.436  10.551  -1.082  1.00  0.00     0.028 A
HETATM    7  C7  UNL     1      15.834  10.159  -2.371  1.00  0.00     0.070 C
HETATM    8  N3  UNL     1      17.735  10.917  -0.996  1.00  0.00    -0.347 N
ATOM      9  H3  UNL     1      18.325  10.928  -1.828  1.00  0.00     0.166 HD
HETATM   10  C8  UNL     1      18.248  11.273   0.222  1.00  0.00     0.158 A
HETATM   11  C9  UNL     1      19.624  11.663   0.327  1.00  0.00     0.121 C
HETATM   12  N4  UNL     1      20.748  11.995   0.415  1.00  0.00    -0.190 NA
ENDROOT
BRANCH   1  13
HETATM   13  N1  UNL     1      17.955  11.598   2.478  1.00  0.00    -0.374 N
ATOM     14  H1  UNL     1      18.467  12.479   2.513  1.00  0.00     0.161 HD
BRANCH  13  15
HETATM   15  C2  UNL     1      17.862  10.856   3.689  1.00  0.00     0.116 C
HETATM   16  C1  UNL     1      18.863   9.696   3.589  1.00  0.00     0.026 C
ENDBRANCH  13  15
ENDBRANCH   1  13
TORSDOF 2
ENDMDL