MODEL 4
REMARK VINA RESULT: -5.263471489      1.112      4.091
REMARK  1 active torsions:
REMARK  status: ('A' for Active; 'I' for Inactive)
REMARK    1  A    between atoms: C3_3  and  N1_4
ROOT
HETATM    1  C1  UNL     1      14.833  10.809   4.975  1.00  0.00     0.014 C
HETATM    2  C2  UNL     1      15.183  10.066   4.079  1.00  0.00    -0.098 C
HETATM    3  C3  UNL     1      15.577   9.144   3.009  1.00  0.00     0.219 C
ENDROOT
BRANCH   3   4
HETATM    4  N1  UNL     1      15.191   9.653   1.715  1.00  0.00    -0.334 N
HETATM    5  C4  UNL     1      15.782  10.668   0.967  1.00  0.00     0.188 C
HETATM    6  N2  UNL     1      16.836  11.542   1.373  1.00  0.00    -0.064 NA
HETATM    7  N3  UNL     1      15.247  10.745  -0.218  1.00  0.00    -0.354 N
HETATM    8  C5  UNL     1      14.205   9.748  -0.387  1.00  0.00     0.050 C
ATOM      9  H3  UNL     1      15.523  11.418  -0.933  1.00  0.00     0.163 HD
HETATM   10  C6  UNL     1      14.720   8.744  -1.394  1.00  0.00     0.041 C
HETATM   11  C7  UNL     1      12.995  10.432  -0.943  1.00  0.00     0.041 C
HETATM   12  C8  UNL     1      14.035   9.153   0.968  1.00  0.00     0.053 C
HETATM   13  C9  UNL     1      14.008   7.664   1.029  1.00  0.00     0.041 C
HETATM   14  C10 UNL     1      12.757   9.651   1.661  1.00  0.00     0.041 C
ENDBRANCH   3   4
TORSDOF 1
ENDMDL