MODEL 1
REMARK VINA RESULT: -5.661249539      0.000      0.000
REMARK  2 active torsions:
REMARK  status: ('A' for Active; 'I' for Inactive)
REMARK    1  A    between atoms: C3_3  and  N1_6
REMARK    2  A    between atoms: N1_6  and  C6_8
ROOT
HETATM    1  C1  UNL     1      15.238   7.645   8.179  1.00  0.00     0.015 C
HETATM    2  C2  UNL     1      14.695   8.676   8.488  1.00  0.00    -0.086 C
HETATM    3  C3  UNL     1      14.013   9.942   8.846  1.00  0.00     0.087 C
HETATM    4  C4  UNL     1      12.688   9.530   9.469  1.00  0.00     0.052 C
HETATM    5  C5  UNL     1      14.901  10.656   9.841  1.00  0.00     0.052 C
ENDROOT
BRANCH   3   6
HETATM    6  N1  UNL     1      13.855  10.715   7.663  1.00  0.00    -0.350 N
ATOM      7  H1  UNL     1      13.750  11.727   7.749  1.00  0.00     0.163 HD
BRANCH   6   8
HETATM    8  C6  UNL     1      13.840  10.184   6.475  1.00  0.00     0.162 A
HETATM    9  N2  UNL     1      12.948   9.385   5.887  1.00  0.00    -0.279 N
HETATM   10  N3  UNL     1      13.168   8.994   4.697  1.00  0.00    -0.296 N
ATOM     11  H2  UNL     1      12.105   9.094   6.382  1.00  0.00     0.189 HD
HETATM   12  C7  UNL     1      14.263   9.376   4.058  1.00  0.00     0.066 A
ATOM     13  H3  UNL     1      12.497   8.383   4.232  1.00  0.00     0.187 HD
HETATM   14  C8  UNL     1      14.712   9.035   2.664  1.00  0.00     0.078 C
HETATM   15  S1  UNL     1      15.015  10.358   5.255  1.00  0.00    -0.039 SA
ENDBRANCH   6   8
ENDBRANCH   3   6
TORSDOF 2
ENDMDL