MODEL 5
REMARK VINA RESULT: -5.402621856      2.392      3.398
REMARK  3 active torsions:
REMARK  status: ('A' for Active; 'I' for Inactive)
REMARK    1  A    between atoms: O1_3  and  N2_4
REMARK    2  A    between atoms: N2_4  and  C2_6
REMARK    3  A    between atoms: C2_6  and  N3_8
ROOT
HETATM    1  N1  UNL     1      18.148  12.592  -0.159  1.00  0.00    -0.162 NA
HETATM    2  C1  UNL     1      17.878  11.556  -0.625  1.00  0.00     0.253 C
HETATM    3  O1  UNL     1      17.583  10.332  -1.170  1.00  0.00    -0.157 OA
ENDROOT
BRANCH   3   4
HETATM    4  N2  UNL     1      16.679  10.289  -2.200  1.00  0.00    -0.224 N
ATOM      5  H2  UNL     1      17.021  10.550  -3.125  1.00  0.00     0.198 HD
BRANCH   4   6
HETATM    6  C2  UNL     1      15.328   9.921  -2.103  1.00  0.00     0.195 C
HETATM    7  S1  UNL     1      14.409   9.973  -3.466  1.00  0.00    -0.039 SA
BRANCH   6   8
HETATM    8  N3  UNL     1      14.759   9.513  -0.866  1.00  0.00    -0.357 N
HETATM    9  C3  UNL     1      14.604   8.125  -0.586  1.00  0.00     0.125 C
HETATM   10  C4  UNL     1      13.853   7.968   0.721  1.00  0.00     0.020 C
HETATM   11  C5  UNL     1      14.405   8.799   1.834  1.00  0.00     0.003 C
HETATM   12  C6  UNL     1      14.637  10.232   1.486  1.00  0.00     0.020 C
HETATM   13  C7  UNL     1      14.368  10.570   0.052  1.00  0.00     0.125 C
ENDBRANCH   6   8
ENDBRANCH   4   6
ENDBRANCH   3   4
TORSDOF 3
ENDMDL