MODEL 1
REMARK VINA RESULT: -5.649483909      0.000      0.000
REMARK  2 active torsions:
REMARK  status: ('A' for Active; 'I' for Inactive)
REMARK    1  A    between atoms: C2_2  and  C3_3
REMARK    2  A    between atoms: C6_8  and  N2_9
ROOT
HETATM    1  C3  UNL     1      13.828   8.905   7.486  1.00  0.00     0.045 C
HETATM    2  C4  UNL     1      13.734   7.418   7.371  1.00  0.00     0.040 C
HETATM    3  C5  UNL     1      15.235   9.419   7.274  1.00  0.00     0.153 C
HETATM    4  N1  UNL     1      15.302   9.519   5.833  1.00  0.00    -0.360 N
ATOM      5  H1  UNL     1      16.173   9.553   5.301  1.00  0.00     0.162 HD
HETATM    6  C6  UNL     1      14.128   9.561   5.301  1.00  0.00     0.174 C
HETATM    7  N3  UNL     1      13.152   9.491   6.351  1.00  0.00    -0.352 N
ATOM      8  H3  UNL     1      12.179   9.793   6.304  1.00  0.00     0.163 HD
ENDROOT
BRANCH   6   9
HETATM    9  N2  UNL     1      13.793   9.659   3.921  1.00  0.00    -0.353 N
HETATM   10  C7  UNL     1      13.205   8.581   3.119  1.00  0.00     0.126 C
HETATM   11  C8  UNL     1      13.006   9.163   1.761  1.00  0.00     0.021 C
HETATM   12  C9  UNL     1      12.857  10.658   2.065  1.00  0.00     0.021 C
HETATM   13  C10 UNL     1      13.970  10.828   3.080  1.00  0.00     0.126 C
ENDBRANCH   6   9
BRANCH   1  14
HETATM   14  C2  UNL     1      13.250   9.351   8.801  1.00  0.00     0.028 C
HETATM   15  C1  UNL     1      13.196  10.860   8.906  1.00  0.00     0.007 C
ENDBRANCH   1  14
TORSDOF 2
ENDMDL