MODEL 2
REMARK VINA RESULT: -5.587786569      1.362      3.046
REMARK  1 active torsions:
REMARK  status: ('A' for Active; 'I' for Inactive)
REMARK    1  A    between atoms: N2_6  and  C4_8
ROOT
HETATM    1  C1  UNL     1      15.125  10.023  -3.403  1.00  0.00     0.089 C
HETATM    2  C2  UNL     1      15.694  10.223  -2.047  1.00  0.00     0.078 A
HETATM    3  N1  UNL     1      14.911   9.997  -0.976  1.00  0.00    -0.332 N
ATOM      4  H1  UNL     1      13.948   9.694  -1.127  1.00  0.00     0.168 HD
HETATM    5  C3  UNL     1      15.351  10.155   0.283  1.00  0.00     0.110 A
HETATM    6  N2  UNL     1      14.633   9.948   1.331  1.00  0.00    -0.372 N
ATOM      7  H2  UNL     1      15.076  10.100   2.237  1.00  0.00     0.161 HD
HETATM    8  C7  UNL     1      16.653  10.564   0.450  1.00  0.00     0.004 A
HETATM    9  C8  UNL     1      17.186  10.752   1.802  1.00  0.00     0.054 C
HETATM   10  C9  UNL     1      17.497  10.809  -0.634  1.00  0.00     0.016 A
HETATM   11  C10 UNL     1      18.900  11.251  -0.416  1.00  0.00     0.069 C
HETATM   12  N3  UNL     1      16.963  10.622  -1.852  1.00  0.00    -0.349 N
ATOM     13  H3  UNL     1      17.550  10.791  -2.670  1.00  0.00     0.167 HD
ENDROOT
BRANCH   6  14
HETATM   14  C4  UNL     1      13.271   9.523   1.334  1.00  0.00     0.075 C
HETATM   15  C5  UNL     1      12.493  10.523   2.199  1.00  0.00     0.031 C
HETATM   16  C6  UNL     1      13.201   8.144   1.967  1.00  0.00     0.031 C
ENDBRANCH   6  14
TORSDOF 1
ENDMDL