MODEL 2
REMARK VINA RESULT: -9.294905879      1.087      1.942
REMARK  11 active torsions:
REMARK  status: ('A' for Active; 'I' for Inactive)
REMARK       I    between atoms: C1_4  and  N2_5
REMARK       I    between atoms: C1_4  and  N7_36
REMARK    1  A    between atoms: C2_7  and  C3_8
REMARK    2  A    between atoms: N3_10  and  C5_11
REMARK    3  A    between atoms: C6_13  and  C7_14
REMARK    4  A    between atoms: C7_14  and  O2_15
REMARK    5  A    between atoms: C8_17  and  O3_18
REMARK    6  A    between atoms: C8_17  and  C9_20
REMARK    7  A    between atoms: C9_20  and  O4_21
REMARK    8  A    between atoms: C10_23  and  O5_24
REMARK    9  A    between atoms: N7_36  and  N8_38
REMARK   10  A    between atoms: N8_38  and  N9_39
REMARK   11  A    between atoms: N8_38  and  O8_42
ROOT
HETATM    1  C3  UNL     1       0.703  20.481  24.889  1.00  0.00     0.067 A
HETATM    2  C4  UNL     1       0.357  21.079  23.667  1.00  0.00     0.130 A
HETATM    3  N3  UNL     1      -0.830  20.841  23.082  1.00  0.00    -0.160 N
HETATM    4  C11 UNL     1      -1.677  20.006  23.711  1.00  0.00     0.715 A
HETATM    5  N4  UNL     1      -2.909  19.570  23.399  1.00  0.00    -0.138 N
ATOM      6  H4  UNL     1      -3.430  19.832  22.563  1.00  0.00     0.189 HD
HETATM    7  C12 UNL     1      -3.348  18.744  24.348  1.00  0.00     0.354 A
HETATM    8  O6  UNL     1      -4.454  18.128  24.421  1.00  0.00    -0.245 OA
HETATM    9  N5  UNL     1      -2.374  18.656  25.272  1.00  0.00    -0.227 N
ATOM     10  H5  UNL     1      -2.408  18.097  26.124  1.00  0.00     0.193 HD
HETATM   11  N6  UNL     1      -1.368  19.418  24.888  1.00  0.00    -0.043 N
HETATM   12  C13 UNL     1      -0.192  19.630  25.506  1.00  0.00     0.295 A
HETATM   13  O7  UNL     1       0.086  19.086  26.587  1.00  0.00    -0.265 OA
ENDROOT
BRANCH   1  14
HETATM   14  C2  UNL     1       1.989  20.750  25.508  1.00  0.00     0.124 C
HETATM   15  N2  UNL     1       2.538  19.822  26.209  1.00  0.00    -0.200 N
HETATM   16  C1  UNL     1       3.807  20.085  26.821  1.00  0.00     0.689 C
ATOM     17  H2  UNL     1       2.079  18.918  26.327  1.00  0.00     0.183 HD
HETATM   18  N1  UNL     1       4.009  21.286  27.238  1.00  0.00    -0.234 N
HETATM   19  N7  UNL     1       4.793  19.067  26.958  1.00  0.00    -0.110 N
ATOM     20  H12 UNL     1       3.303  22.015  27.140  1.00  0.00     0.174 HD
ATOM     21  H11 UNL     1       4.912  21.473  27.673  1.00  0.00     0.174 HD
ATOM     22  H7  UNL     1       5.423  18.837  26.189  1.00  0.00     0.203 HD
BRANCH  19  23
HETATM   23  N8  UNL     1       4.870  18.398  28.174  1.00  0.00     0.004 NA
BRANCH  23  24
HETATM   24  N9  UNL     1       6.166  18.270  28.649  1.00  0.00    -0.322 NA
ATOM     25  H92 UNL     1       6.806  17.918  27.937  1.00  0.00     0.175 HD
ATOM     26  H91 UNL     1       6.225  17.751  29.525  1.00  0.00     0.175 HD
ENDBRANCH  23  24
BRANCH  23  27
HETATM   27  O8  UNL     1       4.030  18.905  29.105  1.00  0.00    -0.276 OA
ATOM     28  H8  UNL     1       3.616  19.713  28.826  1.00  0.00     0.241 HD
ENDBRANCH  23  27
ENDBRANCH  19  23
ENDBRANCH   1  14
BRANCH   3  29
HETATM   29  C5  UNL     1      -1.183  21.457  21.827  1.00  0.00     0.277 C
HETATM   30  O1  UNL     1      -0.228  22.328  21.389  1.00  0.00    -0.352 OA
HETATM   31  C6  UNL     1      -0.790  23.546  21.106  1.00  0.00     0.187 C
HETATM   32  C8  UNL     1      -2.228  23.268  20.820  1.00  0.00     0.137 C
HETATM   33  C10 UNL     1      -2.498  22.203  21.894  1.00  0.00     0.207 C
BRANCH  31  34
HETATM   34  C7  UNL     1      -0.064  24.206  19.953  1.00  0.00     0.199 C
BRANCH  34  35
HETATM   35  O2  UNL     1       0.315  25.513  20.238  1.00  0.00    -0.398 OA
ATOM     36  H2  UNL     1      -0.363  26.143  20.027  1.00  0.00     0.209 HD
ENDBRANCH  34  35
ENDBRANCH  31  34
BRANCH  32  37
HETATM   37  O3  UNL     1      -2.368  22.739  19.561  1.00  0.00    -0.382 OA
ATOM     38  H3  UNL     1      -2.813  21.901  19.604  1.00  0.00     0.210 HD
ENDBRANCH  32  37
BRANCH  32  39
HETATM   39  C9  UNL     1      -3.143  24.451  21.000  1.00  0.00     0.207 C
BRANCH  39  40
HETATM   40  O4  UNL     1      -2.538  25.486  21.684  1.00  0.00    -0.398 OA
ATOM     41  H4  UNL     1      -1.793  25.195  22.198  1.00  0.00     0.209 HD
ENDBRANCH  39  40
ENDBRANCH  32  39
BRANCH  33  42
HETATM   42  O5  UNL     1      -2.599  22.845  23.126  1.00  0.00    -0.388 OA
ATOM     43  H5  UNL     1      -2.106  22.356  23.774  1.00  0.00     0.210 HD
ENDBRANCH  33  42
ENDBRANCH   3  29
TORSDOF 11
ENDMDL