MODEL 3
REMARK VINA RESULT: -8.300521131      4.084      8.507
REMARK  10 active torsions:
REMARK  status: ('A' for Active; 'I' for Inactive)
REMARK    1  A    between atoms: O1_2  and  C2_3
REMARK    2  A    between atoms: C2_3  and  C3_5
REMARK    3  A    between atoms: C3_5  and  O3_6
REMARK    4  A    between atoms: C4_9  and  O4_10
REMARK    5  A    between atoms: C4_9  and  C5_12
REMARK    6  A    between atoms: C5_12  and  O5_13
REMARK    7  A    between atoms: C6_15  and  N1_16
REMARK    8  A    between atoms: C9_25  and  N5_26
REMARK    9  A    between atoms: C11_32  and  N7_33
REMARK   10  A    between atoms: N8_38  and  N9_40
ROOT
HETATM    1  C3  UNL     1      -1.685  23.690  20.037  1.00  0.00     0.241 C
HETATM    2  S1  UNL     1      -2.765  23.700  18.553  1.00  0.00    -0.072 SA
HETATM    3  C4  UNL     1      -1.748  24.146  17.120  1.00  0.00     0.155 C
HETATM    4  C6  UNL     1      -0.908  25.330  17.458  1.00  0.00     0.191 C
HETATM    5  C11 UNL     1       0.022  25.075  18.654  1.00  0.00     0.263 C
HETATM    6  C12 UNL     1      -0.735  24.811  19.863  1.00  0.00     0.090 C
HETATM    7  N8  UNL     1      -0.589  25.591  20.872  1.00  0.00    -0.309 N
ATOM      8  H8  UNL     1      -1.136  25.375  21.705  1.00  0.00     0.186 HD
ENDROOT
BRANCH   4   9
HETATM    9  N1  UNL     1      -0.063  25.705  16.333  1.00  0.00    -0.247 N
HETATM   10  N2  UNL     1       0.340  24.930  15.342  1.00  0.00    -0.017 NA
HETATM   11  N3  UNL     1       1.105  25.641  14.503  1.00  0.00    -0.276 N
HETATM   12  C7  UNL     1       1.200  26.907  14.962  1.00  0.00     0.161 A
ATOM     13  H3  UNL     1       1.544  25.284  13.654  1.00  0.00     0.184 HD
HETATM   14  C8  UNL     1       1.856  28.023  14.486  1.00  0.00     0.291 A
HETATM   15  C10 UNL     1       0.453  26.927  16.124  1.00  0.00     0.170 A
HETATM   16  O6  UNL     1       2.538  28.017  13.430  1.00  0.00    -0.265 OA
HETATM   17  N4  UNL     1       1.779  29.183  15.160  1.00  0.00    -0.154 N
HETATM   18  C9  UNL     1       1.047  29.209  16.302  1.00  0.00     0.680 A
ATOM     19  H4  UNL     1       2.257  30.019  14.823  1.00  0.00     0.187 HD
HETATM   20  N6  UNL     1       0.405  28.121  16.770  1.00  0.00    -0.173 N
ATOM     21  H6  UNL     1      -0.131  28.195  17.634  1.00  0.00     0.186 HD
BRANCH  18  22
HETATM   22  N5  UNL     1       0.991  30.340  16.929  1.00  0.00    -0.234 N
ATOM     23  H52 UNL     1       0.150  30.623  17.433  1.00  0.00     0.174 HD
ATOM     24  H51 UNL     1       1.825  30.925  16.890  1.00  0.00     0.174 HD
ENDBRANCH  18  22
ENDBRANCH   4   9
BRANCH   3  25
HETATM   25  O4  UNL     1      -1.023  23.026  16.741  1.00  0.00    -0.375 OA
ATOM     26  H4  UNL     1      -0.170  23.072  17.156  1.00  0.00     0.211 HD
ENDBRANCH   3  25
BRANCH   3  27
HETATM   27  C5  UNL     1      -2.702  24.570  16.020  1.00  0.00     0.216 C
BRANCH  27  28
HETATM   28  O5  UNL     1      -2.456  23.791  14.909  1.00  0.00    -0.397 OA
ATOM     29  H5  UNL     1      -1.635  24.073  14.522  1.00  0.00     0.209 HD
ENDBRANCH  27  28
ENDBRANCH   3  27
BRANCH   5  30
HETATM   30  N7  UNL     1       0.994  24.090  18.296  1.00  0.00    -0.068 N
ATOM     31  H73 UNL     1       1.714  24.465  17.679  1.00  0.00     0.275 HD
ATOM     32  H72 UNL     1       1.593  23.837  19.082  1.00  0.00     0.275 HD
ATOM     33  H71 UNL     1       0.523  23.280  17.893  1.00  0.00     0.275 HD
ENDBRANCH   5  30
BRANCH   1  34
HETATM   34  C2  UNL     1      -2.530  23.855  21.243  1.00  0.00     0.310 C
HETATM   35  O2  UNL     1      -3.443  24.712  21.286  1.00  0.00    -0.260 OA
BRANCH  34  36
HETATM   36  O1  UNL     1      -2.333  23.064  22.362  1.00  0.00    -0.323 OA
HETATM   37  C1  UNL     1      -1.244  23.335  23.249  1.00  0.00     0.213 C
ENDBRANCH  34  36
ENDBRANCH   1  34
BRANCH   1  38
HETATM   38  O3  UNL     1      -1.044  22.461  20.157  1.00  0.00    -0.366 OA
ATOM     39  H3  UNL     1      -1.457  21.872  19.536  1.00  0.00     0.212 HD
ENDBRANCH   1  38
BRANCH   7  40
HETATM   40  N9  UNL     1       0.233  26.687  20.936  1.00  0.00    -0.345 N
ATOM     41  H92 UNL     1       0.616  26.900  21.857  1.00  0.00     0.176 HD
ATOM     42  H91 UNL     1       0.489  27.295  20.158  1.00  0.00     0.176 HD
ENDBRANCH   7  40
TORSDOF 10
ENDMDL