MODEL 1
REMARK VINA RESULT: -9.022353325      0.000      0.000
REMARK  11 active torsions:
REMARK  status: ('A' for Active; 'I' for Inactive)
REMARK    1  A    between atoms: C3_5  and  N2_6
REMARK    2  A    between atoms: N2_6  and  N3_8
REMARK    3  A    between atoms: C4_13  and  N5_14
REMARK    4  A    between atoms: N5_14  and  C5_16
REMARK    5  A    between atoms: C6_23  and  N9_24
REMARK    6  A    between atoms: C7_29  and  N10_30
REMARK    7  A    between atoms: N11_32  and  O2_34
REMARK    8  A    between atoms: O2_34  and  C8_35
REMARK    9  A    between atoms: C8_35  and  C9_37
REMARK   10  A    between atoms: C12_42  and  C13_43
REMARK   11  A    between atoms: C13_43  and  O6_44
ROOT
HETATM    1  C1  UNL     1      -3.961  23.892  20.606  1.00  0.00     0.071 C
HETATM    2  C2  UNL     1      -2.745  23.758  21.488  1.00  0.00     0.054 A
HETATM    3  N1  UNL     1      -2.275  24.865  22.110  1.00  0.00    -0.192 N
ATOM      4  H1  UNL     1      -2.735  25.767  21.984  1.00  0.00     0.184 HD
HETATM    5  C3  UNL     1      -1.193  24.754  22.895  1.00  0.00     0.698 A
HETATM    6  N4  UNL     1      -0.576  23.568  23.070  1.00  0.00    -0.173 N
ATOM      7  H4  UNL     1       0.243  23.532  23.676  1.00  0.00     0.186 HD
HETATM    8  C4  UNL     1      -0.990  22.430  22.483  1.00  0.00     0.150 A
HETATM    9  C7  UNL     1      -2.121  22.550  21.663  1.00  0.00     0.117 A
ENDROOT
BRANCH   9  10
HETATM   10  N10 UNL     1      -2.596  21.378  21.021  1.00  0.00    -0.275 N
HETATM   11  N11 UNL     1      -2.272  21.031  19.855  1.00  0.00    -0.198 N
ATOM     12  H11 UNL     1      -2.672  20.167  19.489  1.00  0.00     0.216 HD
ATOM     13  H10 UNL     1      -3.240  20.778  21.537  1.00  0.00     0.189 HD
BRANCH  11  14
HETATM   14  O2  UNL     1      -1.420  21.732  19.042  1.00  0.00    -0.184 OA
BRANCH  14  15
HETATM   15  C8  UNL     1      -1.902  22.523  18.008  1.00  0.00     0.290 C
HETATM   16  O3  UNL     1      -3.134  22.403  17.730  1.00  0.00    -0.263 OA
BRANCH  15  17
HETATM   17  C9  UNL     1      -1.045  23.470  17.250  1.00  0.00     0.128 C
HETATM   18  C10 UNL     1       0.258  23.699  18.019  1.00  0.00     0.128 C
HETATM   19  C11 UNL     1      -0.165  24.694  19.024  1.00  0.00     0.260 C
HETATM   20  O4  UNL     1       0.226  24.828  20.232  1.00  0.00    -0.265 OA
HETATM   21  O5  UNL     1      -1.106  25.496  18.398  1.00  0.00    -0.313 OA
HETATM   22  C12 UNL     1      -1.666  24.829  17.285  1.00  0.00     0.169 C
BRANCH  22  23
HETATM   23  C13 UNL     1      -1.398  25.623  16.013  1.00  0.00     0.197 C
BRANCH  23  24
HETATM   24  O6  UNL     1      -2.582  25.811  15.331  1.00  0.00    -0.398 OA
ATOM     25  H6  UNL     1      -3.153  26.377  15.839  1.00  0.00     0.209 HD
ENDBRANCH  23  24
ENDBRANCH  22  23
ENDBRANCH  15  17
ENDBRANCH  14  15
ENDBRANCH  11  14
ENDBRANCH   9  10
BRANCH   8  26
HETATM   26  N5  UNL     1      -0.421  21.279  22.631  1.00  0.00    -0.330 N
ATOM     27  H5  UNL     1      -0.021  20.805  21.821  1.00  0.00     0.165 HD
BRANCH  26  28
HETATM   28  C5  UNL     1      -0.348  20.659  23.930  1.00  0.00     0.351 C
HETATM   29  N6  UNL     1      -1.670  20.167  24.311  1.00  0.00    -0.276 N
HETATM   30  N7  UNL     1      -2.067  20.141  25.503  1.00  0.00    -0.244 N
ATOM     31  H6  UNL     1      -2.297  19.831  23.580  1.00  0.00     0.186 HD
HETATM   32  N8  UNL     1      -1.204  20.605  26.500  1.00  0.00    -0.270 N
ATOM     33  H7  UNL     1      -2.996  19.790  25.737  1.00  0.00     0.207 HD
HETATM   34  C6  UNL     1       0.154  20.927  26.108  1.00  0.00     0.445 C
ATOM     35  H8  UNL     1      -1.517  20.713  27.464  1.00  0.00     0.186 HD
HETATM   36  O1  UNL     1       0.128  21.562  24.893  1.00  0.00    -0.298 OA
BRANCH  34  37
HETATM   37  N9  UNL     1       0.888  19.683  26.039  1.00  0.00    -0.033 N
ATOM     38  H93 UNL     1       0.865  19.157  26.913  1.00  0.00     0.279 HD
ATOM     39  H92 UNL     1       0.433  18.984  25.452  1.00  0.00     0.279 HD
ATOM     40  H91 UNL     1       1.835  19.906  25.732  1.00  0.00     0.279 HD
ENDBRANCH  34  37
ENDBRANCH  26  28
ENDBRANCH   8  26
BRANCH   5  41
HETATM   41  N2  UNL     1      -0.756  25.809  23.480  1.00  0.00    -0.138 N
ATOM     42  H2  UNL     1      -0.982  25.941  24.466  1.00  0.00     0.205 HD
BRANCH  41  43
HETATM   43  N3  UNL     1       0.008  26.784  22.846  1.00  0.00    -0.331 N
ATOM     44  H32 UNL     1      -0.174  26.944  21.856  1.00  0.00     0.177 HD
ATOM     45  H31 UNL     1       0.727  27.334  23.315  1.00  0.00     0.177 HD
ENDBRANCH  41  43
ENDBRANCH   5  41
TORSDOF 11
ENDMDL