MODEL 2
REMARK VINA RESULT: -6.983210926      2.575      3.567
REMARK  11 active torsions:
REMARK  status: ('A' for Active; 'I' for Inactive)
REMARK    1  A    between atoms: N1_1  and  C1_4
REMARK    2  A    between atoms: N3_8  and  C3_9
REMARK    3  A    between atoms: C4_10  and  O1_11
REMARK    4  A    between atoms: C5_13  and  C6_14
REMARK    5  A    between atoms: C6_14  and  O2_15
REMARK    6  A    between atoms: C6_14  and  C7_17
REMARK    7  A    between atoms: C7_17  and  O3_18
REMARK    8  A    between atoms: C7_17  and  C8_20
REMARK    9  A    between atoms: C8_20  and  O4_21
REMARK   10  A    between atoms: C9_24  and  N4_25
REMARK   11  A    between atoms: C10_26  and  N5_27
ROOT
HETATM    1  C3  UNL     1      -1.853  23.713  21.646  1.00  0.00     0.194 C
HETATM    2  C4  UNL     1      -1.435  22.907  22.908  1.00  0.00     0.179 C
HETATM    3  C5  UNL     1      -1.710  21.498  22.422  1.00  0.00     0.186 C
HETATM    4  O5  UNL     1      -2.534  21.674  21.275  1.00  0.00    -0.353 OA
HETATM    5  C9  UNL     1      -1.750  22.698  20.654  1.00  0.00     0.279 C
ENDROOT
BRANCH   5   6
HETATM    6  N4  UNL     1      -2.144  22.772  19.326  1.00  0.00    -0.103 N
HETATM    7  C10 UNL     1      -3.263  23.309  18.828  1.00  0.00     0.688 A
HETATM    8  N6  UNL     1      -3.543  23.324  17.507  1.00  0.00    -0.141 N
HETATM    9  C11 UNL     1      -2.693  22.789  16.618  1.00  0.00     0.342 A
ATOM     10  H6  UNL     1      -4.412  23.748  17.181  1.00  0.00     0.189 HD
HETATM   11  O6  UNL     1      -2.957  22.804  15.374  1.00  0.00    -0.246 OA
HETATM   12  N7  UNL     1      -1.560  22.243  17.092  1.00  0.00    -0.259 N
HETATM   13  C12 UNL     1      -1.300  22.236  18.387  1.00  0.00     0.347 A
ATOM     14  H7  UNL     1      -0.892  21.829  16.443  1.00  0.00     0.175 HD
HETATM   15  O7  UNL     1      -0.214  21.705  18.766  1.00  0.00    -0.246 OA
BRANCH   7  16
HETATM   16  N5  UNL     1      -4.085  23.820  19.646  1.00  0.00    -0.234 N
ATOM     17  H52 UNL     1      -4.356  24.798  19.542  1.00  0.00     0.174 HD
ATOM     18  H51 UNL     1      -4.448  23.221  20.387  1.00  0.00     0.174 HD
ENDBRANCH   7  16
ENDBRANCH   5   6
BRANCH   1  19
HETATM   19  N3  UNL     1      -1.072  24.885  21.661  1.00  0.00    -0.231 N
HETATM   20  N2  UNL     1      -0.918  25.496  22.843  1.00  0.00    -0.302 N
HETATM   21  C2  UNL     1      -0.215  26.601  23.023  1.00  0.00     0.155 A
ATOM     22  H2  UNL     1      -1.371  25.082  23.657  1.00  0.00     0.186 HD
HETATM   23  C1  UNL     1       0.411  27.185  21.944  1.00  0.00     0.119 A
HETATM   24  N8  UNL     1       0.266  26.587  20.755  1.00  0.00    -0.292 N
HETATM   25  C13 UNL     1      -0.460  25.465  20.629  1.00  0.00     0.343 A
ATOM     26  H8  UNL     1       0.713  26.991  19.933  1.00  0.00     0.172 HD
HETATM   27  O8  UNL     1      -0.558  24.960  19.512  1.00  0.00    -0.245 OA
BRANCH  23  28
HETATM   28  N1  UNL     1       1.113  28.268  22.057  1.00  0.00    -0.384 N
ATOM     29  H12 UNL     1       0.720  29.099  22.499  1.00  0.00     0.157 HD
ATOM     30  H11 UNL     1       2.071  28.332  21.716  1.00  0.00     0.157 HD
ENDBRANCH  23  28
ENDBRANCH   1  19
BRANCH   2  31
HETATM   31  O1  UNL     1      -0.085  23.127  23.170  1.00  0.00    -0.391 OA
ATOM     32  H1  UNL     1       0.026  23.992  23.548  1.00  0.00     0.210 HD
ENDBRANCH   2  31
BRANCH   3  33
HETATM   33  C6  UNL     1      -2.426  20.640  23.435  1.00  0.00     0.180 C
BRANCH  33  34
HETATM   34  O2  UNL     1      -3.251  19.783  22.683  1.00  0.00    -0.390 OA
ATOM     35  H2  UNL     1      -3.719  19.259  23.322  1.00  0.00     0.210 HD
ENDBRANCH  33  34
BRANCH  33  36
HETATM   36  C7  UNL     1      -1.422  19.759  24.133  1.00  0.00     0.173 C
BRANCH  36  37
HETATM   37  O3  UNL     1      -0.457  20.564  24.715  1.00  0.00    -0.391 OA
ATOM     38  H3  UNL     1      -0.302  21.311  24.148  1.00  0.00     0.210 HD
ENDBRANCH  36  37
BRANCH  36  39
HETATM   39  C8  UNL     1      -2.084  18.864  25.164  1.00  0.00     0.198 C
BRANCH  39  40
HETATM   40  O4  UNL     1      -2.684  17.806  24.466  1.00  0.00    -0.398 OA
ATOM     41  H4  UNL     1      -3.202  17.316  25.094  1.00  0.00     0.209 HD
ENDBRANCH  39  40
ENDBRANCH  36  39
ENDBRANCH  33  36
ENDBRANCH   3  33
TORSDOF 11
ENDMDL