MODEL 5
REMARK VINA RESULT: -7.742386441      2.461      3.670
REMARK  9 active torsions:
REMARK  status: ('A' for Active; 'I' for Inactive)
REMARK    1  A    between atoms: C2_2  and  N1_3
REMARK    2  A    between atoms: C2_2  and  O1_7
REMARK    3  A    between atoms: C2_2  and  C3_9
REMARK    4  A    between atoms: C3_9  and  O2_10
REMARK    5  A    between atoms: C3_9  and  N2_12
REMARK    6  A    between atoms: C5_17  and  C6_18
REMARK    7  A    between atoms: C6_18  and  N4_19
REMARK    8  A    between atoms: C10_33  and  C11_34
REMARK    9  A    between atoms: C13_39  and  O6_40
ROOT
HETATM    1  N2  UNL     1      -1.179  23.436  20.784  1.00  0.00    -0.343 N
ATOM      2  H2  UNL     1      -0.643  24.071  21.377  1.00  0.00     0.164 HD
HETATM    3  C4  UNL     1      -0.823  23.255  19.555  1.00  0.00     0.149 C
HETATM    4  N3  UNL     1      -1.557  22.378  18.715  1.00  0.00    -0.366 N
ATOM      5  H3  UNL     1      -2.045  21.571  19.102  1.00  0.00     0.161 HD
HETATM    6  C5  UNL     1      -1.595  22.655  17.295  1.00  0.00     0.123 C
HETATM    7  C7  UNL     1      -0.431  23.343  16.733  1.00  0.00     0.123 C
HETATM    8  C8  UNL     1      -0.601  24.779  16.398  1.00  0.00     0.108 A
HETATM    9  N5  UNL     1      -1.618  25.531  16.142  1.00  0.00    -0.262 N
ATOM     10  H5  UNL     1      -2.559  25.136  16.154  1.00  0.00     0.190 HD
HETATM   11  N6  UNL     1      -1.435  26.881  15.851  1.00  0.00    -0.119 N
HETATM   12  C9  UNL     1      -1.976  28.105  15.549  1.00  0.00     0.378 A
HETATM   13  O3  UNL     1      -3.149  28.526  15.371  1.00  0.00    -0.242 OA
HETATM   14  N7  UNL     1      -0.759  28.660  15.521  1.00  0.00    -0.228 N
ATOM     15  H7  UNL     1      -0.379  29.591  15.350  1.00  0.00     0.193 HD
HETATM   16  N8  UNL     1      -0.259  27.447  15.817  1.00  0.00    -0.169 N
HETATM   17  C10 UNL     1       0.935  26.718  16.045  1.00  0.00     0.332 A
HETATM   18  N9  UNL     1       0.677  25.352  16.424  1.00  0.00    -0.333 N
HETATM   19  C12 UNL     1       1.670  24.334  16.904  1.00  0.00     0.174 C
HETATM   20  C13 UNL     1       0.773  23.383  17.647  1.00  0.00     0.154 C
HETATM   21  C14 UNL     1       0.328  23.917  18.953  1.00  0.00     0.229 C
HETATM   22  O7  UNL     1       0.870  24.873  19.545  1.00  0.00    -0.286 OA
ENDROOT
BRANCH   1  23
HETATM   23  C3  UNL     1      -2.318  22.756  21.322  1.00  0.00     0.282 C
BRANCH  23  24
HETATM   24  C2  UNL     1      -1.868  21.414  21.915  1.00  0.00     0.262 C
HETATM   25  C1  UNL     1      -2.220  21.368  23.366  1.00  0.00     0.083 C
BRANCH  24  26
HETATM   26  N1  UNL     1      -2.544  20.326  21.236  1.00  0.00    -0.043 N
ATOM     27  H13 UNL     1      -2.170  19.413  21.494  1.00  0.00     0.278 HD
ATOM     28  H12 UNL     1      -3.498  20.188  21.573  1.00  0.00     0.278 HD
ATOM     29  H11 UNL     1      -2.506  20.492  20.230  1.00  0.00     0.278 HD
ENDBRANCH  24  26
BRANCH  24  30
HETATM   30  O1  UNL     1      -0.493  21.337  21.688  1.00  0.00    -0.362 OA
ATOM     31  H1  UNL     1      -0.229  21.752  20.875  1.00  0.00     0.212 HD
ENDBRANCH  24  30
ENDBRANCH  23  24
BRANCH  23  32
HETATM   32  O2  UNL     1      -3.174  22.459  20.252  1.00  0.00    -0.372 OA
ATOM     33  H2  UNL     1      -3.628  23.264  20.032  1.00  0.00     0.212 HD
ENDBRANCH  23  32
ENDBRANCH   1  23
BRANCH   6  34
HETATM   34  C6  UNL     1      -2.946  23.271  17.019  1.00  0.00     0.255 C
BRANCH  34  35
HETATM   35  N4  UNL     1      -3.348  22.738  15.705  1.00  0.00    -0.077 N
ATOM     36  H43 UNL     1      -3.164  23.373  14.928  1.00  0.00     0.274 HD
ATOM     37  H42 UNL     1      -2.761  21.973  15.372  1.00  0.00     0.274 HD
ATOM     38  H41 UNL     1      -4.331  22.489  15.810  1.00  0.00     0.274 HD
ENDBRANCH  34  35
ENDBRANCH   6  34
BRANCH  20  39
HETATM   39  O6  UNL     1       1.376  22.148  17.739  1.00  0.00    -0.379 OA
ATOM     40  H6  UNL     1       2.071  22.149  18.387  1.00  0.00     0.211 HD
ENDBRANCH  20  39
BRANCH  17  41
HETATM   41  C11 UNL     1       1.726  26.736  14.760  1.00  0.00     0.221 C
HETATM   42  O4  UNL     1       2.293  27.791  14.405  1.00  0.00    -0.645 OA
HETATM   43  O5  UNL     1       1.844  25.621  13.956  1.00  0.00    -0.645 OA
ENDBRANCH  17  41
TORSDOF 9
ENDMDL