MODEL 5
REMARK VINA RESULT: -7.484230067      3.898      6.539
REMARK  11 active torsions:
REMARK  status: ('A' for Active; 'I' for Inactive)
REMARK    1  A    between atoms: C1_2  and  C2_4
REMARK    2  A    between atoms: C2_4  and  O2_5
REMARK    3  A    between atoms: C6_12  and  C7_13
REMARK    4  A    between atoms: C7_13  and  C8_14
REMARK    5  A    between atoms: C8_14  and  N2_15
REMARK    6  A    between atoms: C8_14  and  O4_19
REMARK    7  A    between atoms: C9_21  and  O5_22
REMARK    8  A    between atoms: C10_24  and  O6_25
REMARK    9  A    between atoms: C12_29  and  O8_30
REMARK   10  A    between atoms: C12_29  and  O9_32
REMARK   11  A    between atoms: C13_34  and  O10_35
ROOT
HETATM    1  C2  UNL     1       0.142  26.109  16.087  1.00  0.00     0.146 C
HETATM    2  C3  UNL     1       0.299  25.123  16.972  1.00  0.00     0.053 A
HETATM    3  S1  UNL     1       1.364  23.912  17.743  1.00  0.00    -0.097 SA
HETATM    4  C4  UNL     1      -0.302  24.240  18.029  1.00  0.00     0.173 A
HETATM    5  C5  UNL     1      -1.339  23.275  17.615  1.00  0.00     0.166 C
HETATM    6  O3  UNL     1      -1.003  22.287  17.006  1.00  0.00    -0.295 OA
HETATM    7  C6  UNL     1      -2.751  23.541  17.952  1.00  0.00     0.103 C
HETATM    8  C9  UNL     1      -2.977  23.740  19.422  1.00  0.00     0.145 C
HETATM    9  C10 UNL     1      -3.193  22.460  20.185  1.00  0.00     0.232 C
HETATM   10  C11 UNL     1      -1.900  22.200  20.906  1.00  0.00     0.223 C
HETATM   11  O7  UNL     1      -1.495  21.096  21.221  1.00  0.00    -0.289 OA
HETATM   12  C12 UNL     1      -1.257  23.516  21.137  1.00  0.00     0.268 C
HETATM   13  C13 UNL     1      -1.862  24.453  20.111  1.00  0.00     0.219 C
HETATM   14  C14 UNL     1      -0.774  24.934  19.259  1.00  0.00     0.202 C
HETATM   15  O11 UNL     1      -0.201  25.966  19.554  1.00  0.00    -0.292 OA
ENDROOT
BRANCH   1  16
HETATM   16  C1  UNL     1       1.255  26.545  15.273  1.00  0.00     0.288 C
HETATM   17  N1  UNL     1       1.737  25.764  14.200  1.00  0.00    -0.055 NA
HETATM   18  O1  UNL     1       1.828  27.640  15.496  1.00  0.00    -0.269 OA
ENDBRANCH   1  16
BRANCH   1  19
HETATM   19  O2  UNL     1      -1.083  26.725  15.941  1.00  0.00    -0.355 OA
ATOM     20  H2  UNL     1      -1.368  27.352  16.595  1.00  0.00     0.218 HD
ENDBRANCH   1  19
BRANCH   7  21
HETATM   21  C7  UNL     1      -3.588  22.496  17.320  1.00  0.00     0.076 C
BRANCH  21  22
HETATM   22  C8  UNL     1      -4.342  22.893  16.097  1.00  0.00     0.316 C
BRANCH  22  23
HETATM   23  N2  UNL     1      -3.460  22.769  14.953  1.00  0.00    -0.053 N
ATOM     24  H23 UNL     1      -3.255  23.667  14.517  1.00  0.00     0.277 HD
ATOM     25  H22 UNL     1      -2.506  22.522  15.218  1.00  0.00     0.277 HD
ATOM     26  H21 UNL     1      -3.871  22.101  14.300  1.00  0.00     0.277 HD
ENDBRANCH  22  23
BRANCH  22  27
HETATM   27  O4  UNL     1      -5.345  21.913  15.906  1.00  0.00    -0.370 OA
ATOM     28  H4  UNL     1      -5.632  21.991  15.003  1.00  0.00     0.212 HD
ENDBRANCH  22  27
ENDBRANCH  21  22
ENDBRANCH   7  21
BRANCH  13  29
HETATM   29  O10 UNL     1      -2.340  25.558  20.856  1.00  0.00    -0.374 OA
ATOM     30  H10 UNL     1      -3.289  25.593  20.851  1.00  0.00     0.211 HD
ENDBRANCH  13  29
BRANCH   8  31
HETATM   31  O5  UNL     1      -4.128  24.513  19.572  1.00  0.00    -0.382 OA
ATOM     32  H5  UNL     1      -3.936  25.197  20.203  1.00  0.00     0.210 HD
ENDBRANCH   8  31
BRANCH  12  33
HETATM   33  O8  UNL     1      -1.549  23.888  22.446  1.00  0.00    -0.357 OA
ATOM     34  H8  UNL     1      -2.495  23.885  22.532  1.00  0.00     0.213 HD
ENDBRANCH  12  33
BRANCH  12  35
HETATM   35  O9  UNL     1       0.125  23.458  21.030  1.00  0.00    -0.357 OA
ATOM     36  H9  UNL     1       0.446  23.870  20.235  1.00  0.00     0.213 HD
ENDBRANCH  12  35
BRANCH   9  37
HETATM   37  O6  UNL     1      -4.184  22.592  21.175  1.00  0.00    -0.385 OA
ATOM     38  H6  UNL     1      -5.028  22.266  20.884  1.00  0.00     0.210 HD
ENDBRANCH   9  37
TORSDOF 11
ENDMDL