MODEL 1
REMARK VINA RESULT: -8.101766229      0.000      0.000
REMARK  8 active torsions:
REMARK  status: ('A' for Active; 'I' for Inactive)
REMARK    1  A    between atoms: C6_13  and  C7_14
REMARK    2  A    between atoms: N6_17  and  C8_18
REMARK    3  A    between atoms: C9_19  and  O3_20
REMARK    4  A    between atoms: N7_23  and  C11_25
REMARK    5  A    between atoms: C12_27  and  O5_28
REMARK    6  A    between atoms: C13_30  and  C14_31
REMARK    7  A    between atoms: C14_31  and  O6_32
REMARK    8  A    between atoms: N8_34  and  O7_35
ROOT
HETATM    1  C8  UNL     1      -1.618  24.574  19.167  1.00  0.00     0.227 C
HETATM    2  C9  UNL     1      -0.514  24.084  20.125  1.00  0.00     0.206 C
HETATM    3  C10 UNL     1      -1.163  23.444  21.335  1.00  0.00     0.051 C
HETATM    4  N7  UNL     1      -0.455  23.316  22.412  1.00  0.00    -0.337 N
ATOM      5  H7  UNL     1       0.509  23.650  22.409  1.00  0.00     0.168 HD
HETATM    6  C12 UNL     1      -2.559  23.000  21.220  1.00  0.00     0.188 C
HETATM    7  C13 UNL     1      -3.402  24.118  20.671  1.00  0.00     0.146 C
HETATM    8  N8  UNL     1      -2.535  25.142  20.076  1.00  0.00    -0.163 NA
ENDROOT
BRANCH   1   9
HETATM    9  N6  UNL     1      -1.078  25.176  18.035  1.00  0.00    -0.300 N
HETATM   10  C4  UNL     1      -0.598  26.451  17.868  1.00  0.00     0.151 A
HETATM   11  C3  UNL     1      -0.485  27.575  18.651  1.00  0.00     0.280 A
HETATM   12  C5  UNL     1      -0.158  26.518  16.540  1.00  0.00     0.146 A
HETATM   13  N2  UNL     1       0.048  28.703  18.111  1.00  0.00    -0.273 N
HETATM   14  O2  UNL     1      -0.861  27.583  19.824  1.00  0.00    -0.265 OA
HETATM   15  C2  UNL     1       0.463  28.746  16.843  1.00  0.00     0.330 A
ATOM     16  H2  UNL     1       0.134  29.539  18.690  1.00  0.00     0.173 HD
HETATM   17  N1  UNL     1       0.366  27.672  16.055  1.00  0.00    -0.287 N
HETATM   18  O1  UNL     1       0.959  29.813  16.359  1.00  0.00    -0.246 OA
HETATM   19  C1  UNL     1       0.799  27.660  14.672  1.00  0.00     0.163 C
HETATM   20  N3  UNL     1      -0.383  25.343  15.978  1.00  0.00    -0.324 N
HETATM   21  C6  UNL     1      -0.948  24.480  16.842  1.00  0.00     0.150 A
ATOM     22  H3  UNL     1      -0.157  25.118  15.009  1.00  0.00     0.169 HD
BRANCH  21  23
HETATM   23  C7  UNL     1      -1.345  23.142  16.440  1.00  0.00     0.172 C
HETATM   24  N4  UNL     1      -2.658  22.873  15.997  1.00  0.00    -0.082 NA
HETATM   25  N5  UNL     1      -0.715  22.058  17.191  1.00  0.00    -0.082 NA
ENDBRANCH  21  23
ENDBRANCH   1   9
BRANCH   2  26
HETATM   26  O3  UNL     1       0.260  25.131  20.612  1.00  0.00    -0.386 OA
ATOM     27  H3  UNL     1       1.101  25.188  20.174  1.00  0.00     0.210 HD
ENDBRANCH   2  26
BRANCH   8  28
HETATM   28  O7  UNL     1      -1.896  25.681  21.204  1.00  0.00    -0.310 OA
ATOM     29  H7  UNL     1      -2.401  25.551  21.998  1.00  0.00     0.237 HD
ENDBRANCH   8  28
BRANCH   7  30
HETATM   30  C14 UNL     1      -4.589  23.734  19.895  1.00  0.00     0.189 C
BRANCH  30  31
HETATM   31  O6  UNL     1      -4.500  23.577  18.551  1.00  0.00    -0.399 OA
ATOM     32  H6  UNL     1      -5.200  23.888  17.989  1.00  0.00     0.209 HD
ENDBRANCH  30  31
ENDBRANCH   7  30
BRANCH   4  33
HETATM   33  C11 UNL     1      -0.974  22.729  23.597  1.00  0.00     0.353 C
HETATM   34  O4  UNL     1      -0.261  21.978  24.314  1.00  0.00    -0.283 OA
ENDBRANCH   4  33
BRANCH   6  35
HETATM   35  O5  UNL     1      -2.659  21.842  20.451  1.00  0.00    -0.388 OA
ATOM     36  H5  UNL     1      -3.215  21.979  19.693  1.00  0.00     0.210 HD
ENDBRANCH   6  35
TORSDOF 8
ENDMDL