MODEL 1
REMARK VINA RESULT: -9.782535388      0.000      0.000
REMARK  6 active torsions:
REMARK  status: ('A' for Active; 'I' for Inactive)
REMARK    1  A    between atoms: C2_3  and  O1_4
REMARK    2  A    between atoms: C3_6  and  C4_7
REMARK    3  A    between atoms: N3_19  and  C10_21
REMARK    4  A    between atoms: C10_21  and  N4_22
REMARK    5  A    between atoms: N8_31  and  C13_32
REMARK    6  A    between atoms: C14_36  and  N10_37
ROOT
HETATM    1  C1  UNL     1      -1.415  24.042  15.212  1.00  0.00     0.159 C
HETATM    2  N1  UNL     1      -1.243  24.780  16.440  1.00  0.00    -0.325 N
HETATM    3  C2  UNL     1      -0.833  26.085  16.423  1.00  0.00     0.164 A
HETATM    4  C3  UNL     1      -0.653  26.832  17.540  1.00  0.00     0.143 A
HETATM    5  C5  UNL     1      -0.893  26.262  18.765  1.00  0.00     0.223 A
HETATM    6  O4  UNL     1      -0.725  26.958  19.766  1.00  0.00    -0.285 OA
HETATM    7  C6  UNL     1      -1.306  24.961  18.854  1.00  0.00     0.140 A
HETATM    8  C7  UNL     1      -1.477  24.227  17.656  1.00  0.00     0.137 A
HETATM    9  C8  UNL     1      -1.893  22.927  17.738  1.00  0.00     0.289 A
HETATM   10  O5  UNL     1      -2.060  22.233  16.739  1.00  0.00    -0.265 OA
HETATM   11  N2  UNL     1      -2.131  22.364  18.934  1.00  0.00    -0.154 N
ATOM     12  H2  UNL     1      -2.438  21.392  18.971  1.00  0.00     0.187 HD
HETATM   13  C9  UNL     1      -1.976  23.042  20.084  1.00  0.00     0.692 A
HETATM   14  N3  UNL     1      -2.189  22.583  21.240  1.00  0.00    -0.185 N
ATOM     15  H3  UNL     1      -2.028  23.219  22.021  1.00  0.00     0.185 HD
HETATM   16  N8  UNL     1      -1.559  24.355  20.044  1.00  0.00    -0.123 N
ENDROOT
BRANCH  14  17
HETATM   17  C10 UNL     1      -2.626  21.284  21.565  1.00  0.00     0.229 C
BRANCH  17  18
HETATM   18  N4  UNL     1      -1.984  20.715  22.721  1.00  0.00    -0.198 N
HETATM   19  N5  UNL     1      -2.571  19.848  23.536  1.00  0.00    -0.262 N
HETATM   20  C11 UNL     1      -1.725  19.521  24.497  1.00  0.00     0.211 A
ATOM     21  H5  UNL     1      -3.521  19.491  23.437  1.00  0.00     0.190 HD
HETATM   22  N6  UNL     1      -1.972  18.626  25.561  1.00  0.00    -0.062 NA
HETATM   23  N7  UNL     1      -0.573  20.185  24.304  1.00  0.00    -0.280 N
HETATM   24  C12 UNL     1      -0.754  20.925  23.190  1.00  0.00     0.348 A
ATOM     25  H7  UNL     1       0.266  20.138  24.881  1.00  0.00     0.173 HD
HETATM   26  O6  UNL     1       0.126  21.682  22.703  1.00  0.00    -0.245 OA
ENDBRANCH  17  18
ENDBRANCH  14  17
BRANCH  16  27
HETATM   27  C13 UNL     1      -1.388  25.114  21.252  1.00  0.00     0.459 C
HETATM   28  N9  UNL     1      -2.165  24.775  22.377  1.00  0.00     0.022 N
HETATM   29  C14 UNL     1      -0.924  24.879  23.122  1.00  0.00     0.529 C
ATOM     30  H92 UNL     1      -2.998  25.304  22.638  1.00  0.00     0.287 HD
ATOM     31  H91 UNL     1      -2.742  23.935  22.402  1.00  0.00     0.287 HD
HETATM   32  O7  UNL     1      -0.305  24.500  21.965  1.00  0.00    -0.288 OA
BRANCH  29  33
HETATM   33  N10 UNL     1      -0.676  26.241  23.570  1.00  0.00    -0.027 N
ATOM     34 3H10 UNL     1      -1.549  26.740  23.743  1.00  0.00     0.279 HD
ATOM     35 2H10 UNL     1      -0.293  26.257  24.516  1.00  0.00     0.279 HD
ATOM     36 1H10 UNL     1      -0.079  26.751  22.918  1.00  0.00     0.279 HD
ENDBRANCH  29  33
ENDBRANCH  16  27
BRANCH   4  37
HETATM   37  C4  UNL     1      -0.214  28.214  17.416  1.00  0.00     0.218 C
HETATM   38  O2  UNL     1       0.835  28.497  16.817  1.00  0.00    -0.644 OA
HETATM   39  O3  UNL     1      -0.968  29.252  17.971  1.00  0.00    -0.644 OA
ENDBRANCH   4  37
BRANCH   3  40
HETATM   40  O1  UNL     1      -0.596  26.633  15.163  1.00  0.00    -0.345 OA
ATOM     41  H1  UNL     1      -0.468  27.575  15.138  1.00  0.00     0.219 HD
ENDBRANCH   3  40
TORSDOF 6
ENDMDL