MODEL 3
REMARK VINA RESULT: -6.805456027      1.669      3.089
REMARK  10 active torsions:
REMARK  status: ('A' for Active; 'I' for Inactive)
REMARK    1  A    between atoms: N1_2  and  C3_4
REMARK    2  A    between atoms: N5_17  and  C9_18
REMARK    3  A    between atoms: C10_20  and  C11_21
REMARK    4  A    between atoms: C11_21  and  O4_22
REMARK    5  A    between atoms: C12_24  and  O5_25
REMARK    6  A    between atoms: C12_24  and  C13_27
REMARK    7  A    between atoms: C13_27  and  O6_28
REMARK    8  A    between atoms: C14_30  and  O7_31
REMARK    9  A    between atoms: C14_30  and  O8_33
REMARK   10  A    between atoms: C15_35  and  O9_36
ROOT
HETATM    1  C9  UNL     1      -1.103  24.415  18.916  1.00  0.00     0.177 C
HETATM    2  O3  UNL     1      -2.126  24.261  19.833  1.00  0.00    -0.325 OA
HETATM    3  C10 UNL     1      -2.822  23.061  19.544  1.00  0.00     0.196 C
HETATM    4  C12 UNL     1      -1.915  21.923  19.717  1.00  0.00     0.166 C
HETATM    5  C14 UNL     1      -0.456  22.309  19.998  1.00  0.00     0.230 C
HETATM    6  C15 UNL     1       0.000  23.421  19.083  1.00  0.00     0.259 C
ENDROOT
BRANCH   1   7
HETATM    7  N5  UNL     1      -0.714  25.751  18.593  1.00  0.00    -0.118 N
HETATM    8  C3  UNL     1      -0.395  26.735  19.502  1.00  0.00     0.690 A
HETATM    9  N2  UNL     1      -0.075  27.870  18.863  1.00  0.00    -0.173 N
HETATM   10  C4  UNL     1      -0.190  27.612  17.549  1.00  0.00     0.160 A
ATOM     11  H2  UNL     1       0.201  28.755  19.290  1.00  0.00     0.186 HD
HETATM   12  C5  UNL     1      -0.592  26.282  17.363  1.00  0.00     0.171 A
HETATM   13  N4  UNL     1       0.007  28.379  16.462  1.00  0.00    -0.287 N
HETATM   14  C6  UNL     1      -0.763  25.833  16.072  1.00  0.00     0.281 A
HETATM   15  O1  UNL     1      -1.123  24.645  15.878  1.00  0.00    -0.265 OA
HETATM   16  N3  UNL     1      -0.552  26.647  14.989  1.00  0.00    -0.273 N
HETATM   17  C7  UNL     1      -0.167  27.917  15.208  1.00  0.00     0.330 A
ATOM     18  H3  UNL     1      -0.683  26.298  14.039  1.00  0.00     0.173 HD
HETATM   19  O2  UNL     1       0.018  28.638  14.184  1.00  0.00    -0.246 OA
HETATM   20  C8  UNL     1       0.426  29.774  16.590  1.00  0.00     0.163 C
BRANCH   8  21
HETATM   21  N1  UNL     1      -0.417  26.515  20.920  1.00  0.00    -0.226 N
HETATM   22  C1  UNL     1      -1.491  25.867  21.603  1.00  0.00     0.168 C
HETATM   23  C2  UNL     1       0.719  26.972  21.737  1.00  0.00     0.168 C
ENDBRANCH   8  21
ENDBRANCH   1   7
BRANCH   6  24
HETATM   24  O9  UNL     1       1.205  23.939  19.525  1.00  0.00    -0.382 OA
ATOM     25  H9  UNL     1       1.930  23.863  18.915  1.00  0.00     0.210 HD
ENDBRANCH   6  24
BRANCH   3  26
HETATM   26  C11 UNL     1      -4.147  23.072  20.195  1.00  0.00     0.200 C
BRANCH  26  27
HETATM   27  O4  UNL     1      -4.668  24.275  20.576  1.00  0.00    -0.398 OA
ATOM     28  H4  UNL     1      -5.276  24.290  21.306  1.00  0.00     0.209 HD
ENDBRANCH  26  27
ENDBRANCH   3  26
BRANCH   5  29
HETATM   29  O7  UNL     1      -0.233  22.538  21.333  1.00  0.00    -0.361 OA
ATOM     30  H7  UNL     1      -0.023  21.737  21.800  1.00  0.00     0.213 HD
ENDBRANCH   5  29
BRANCH   5  31
HETATM   31  O8  UNL     1       0.274  21.139  19.674  1.00  0.00    -0.361 OA
ATOM     32  H8  UNL     1       1.144  21.462  19.471  1.00  0.00     0.213 HD
ENDBRANCH   5  31
BRANCH   4  33
HETATM   33  O5  UNL     1      -1.838  21.288  18.431  1.00  0.00    -0.379 OA
ATOM     34  H5  UNL     1      -0.911  21.229  18.228  1.00  0.00     0.211 HD
ENDBRANCH   4  33
BRANCH   4  35
HETATM   35  C13 UNL     1      -2.301  20.827  20.643  1.00  0.00     0.210 C
BRANCH  35  36
HETATM   36  O6  UNL     1      -2.467  21.161  21.966  1.00  0.00    -0.398 OA
ATOM     37  H6  UNL     1      -3.296  21.555  22.209  1.00  0.00     0.209 HD
ENDBRANCH  35  36
ENDBRANCH   4  35
TORSDOF 10
ENDMDL