MODEL 3
REMARK VINA RESULT: -5.980068783      1.218      2.181
REMARK  4 active torsions:
REMARK  status: ('A' for Active; 'I' for Inactive)
REMARK    1  A    between atoms: C2_2  and  C3_3
REMARK    2  A    between atoms: C3_3  and  C4_4
REMARK    3  A    between atoms: C4_4  and  N1_5
REMARK    4  A    between atoms: C6_10  and  N3_11
ROOT
HETATM    1  N1  UNL     1       7.038  27.614  21.078  1.00  0.00    -0.225 N
ATOM      2  H1  UNL     1       7.762  28.305  21.276  1.00  0.00     0.177 HD
HETATM    3  C5  UNL     1       6.333  27.441  22.080  1.00  0.00     0.695 A
HETATM    4  N2  UNL     1       6.629  28.164  23.218  1.00  0.00    -0.022 N
ATOM      5  H2  UNL     1       7.416  28.813  23.194  1.00  0.00     0.203 HD
HETATM    6  C6  UNL     1       5.933  28.051  24.341  1.00  0.00     0.691 A
HETATM    7  N4  UNL     1       4.891  27.210  24.417  1.00  0.00    -0.187 N
ATOM      8  H4  UNL     1       4.348  27.114  25.275  1.00  0.00     0.185 HD
HETATM    9  C7  UNL     1       4.594  26.505  23.322  1.00  0.00     0.217 A
HETATM   10  N5  UNL     1       5.290  26.601  22.159  1.00  0.00    -0.183 N
HETATM   11  C8  UNL     1       4.855  25.765  21.036  1.00  0.00     0.176 C
ENDROOT
BRANCH   1  12
HETATM   12  C4  UNL     1       7.155  27.162  19.761  1.00  0.00     0.142 C
BRANCH  12  13
HETATM   13  C3  UNL     1       8.557  26.560  19.508  1.00  0.00     0.046 C
BRANCH  13  14
HETATM   14  C2  UNL     1       8.471  25.720  18.290  1.00  0.00    -0.035 C
HETATM   15  C1  UNL     1       7.319  25.545  17.666  1.00  0.00     0.007 C
ENDBRANCH  13  14
ENDBRANCH  12  13
ENDBRANCH   1  12
BRANCH   6  16
HETATM   16  N3  UNL     1       6.207  28.730  25.415  1.00  0.00    -0.234 N
ATOM     17  H32 UNL     1       5.412  29.015  25.986  1.00  0.00     0.174 HD
ATOM     18  H31 UNL     1       7.159  28.974  25.690  1.00  0.00     0.174 HD
ENDBRANCH   6  16
TORSDOF 4
ENDMDL