MODEL 2
REMARK VINA RESULT: -5.791216792      1.575      4.720
REMARK  5 active torsions:
REMARK  status: ('A' for Active; 'I' for Inactive)
REMARK    1  A    between atoms: N1_2  and  C4_5
REMARK    2  A    between atoms: C4_5  and  C5_6
REMARK    3  A    between atoms: C5_6  and  N2_7
REMARK    4  A    between atoms: N2_7  and  C6_9
REMARK    5  A    between atoms: C7_14  and  N5_15
ROOT
HETATM    1  C6  UNL     1       6.908  27.355  23.129  1.00  0.00     0.707 A
HETATM    2  N3  UNL     1       6.616  28.461  23.843  1.00  0.00    -0.117 N
ATOM      3  H3  UNL     1       7.166  29.320  23.840  1.00  0.00     0.206 HD
HETATM    4  N4  UNL     1       5.512  28.271  24.549  1.00  0.00    -0.118 N
ATOM      5  H4  UNL     1       5.063  28.938  25.176  1.00  0.00     0.206 HD
HETATM    6  C7  UNL     1       5.101  27.015  24.271  1.00  0.00     0.705 A
HETATM    7  N6  UNL     1       5.964  26.460  23.399  1.00  0.00    -0.020 N
ATOM      8  H6  UNL     1       5.903  25.518  23.013  1.00  0.00     0.203 HD
ENDROOT
BRANCH   1   9
HETATM    9  N2  UNL     1       7.900  27.171  22.334  1.00  0.00    -0.223 N
ATOM     10  H2  UNL     1       8.666  26.562  22.623  1.00  0.00     0.177 HD
BRANCH   9  11
HETATM   11  C5  UNL     1       7.953  27.816  21.020  1.00  0.00     0.166 C
BRANCH  11  12
HETATM   12  C4  UNL     1       8.141  26.723  19.994  1.00  0.00     0.256 C
BRANCH  12  13
HETATM   13  N1  UNL     1       6.914  26.178  19.510  1.00  0.00    -0.077 N
HETATM   14  C1  UNL     1       5.822  27.118  19.503  1.00  0.00     0.271 C
HETATM   15  C2  UNL     1       6.477  25.008  20.243  1.00  0.00     0.271 C
HETATM   16  C3  UNL     1       7.124  25.759  18.134  1.00  0.00     0.271 C
ENDBRANCH  12  13
ENDBRANCH  11  12
ENDBRANCH   9  11
ENDBRANCH   1   9
BRANCH   6  17
HETATM   17  N5  UNL     1       4.066  26.379  24.724  1.00  0.00    -0.233 N
ATOM     18  H52 UNL     1       3.710  26.518  25.669  1.00  0.00     0.174 HD
ATOM     19  H51 UNL     1       3.481  25.690  24.252  1.00  0.00     0.174 HD
ENDBRANCH   6  17
TORSDOF 5
ENDMDL