MODEL 2
REMARK VINA RESULT: -6.032311677      1.523      5.299
REMARK  4 active torsions:
REMARK  status: ('A' for Active; 'I' for Inactive)
REMARK    1  A    between atoms: N2_5  and  C4_6
REMARK    2  A    between atoms: C4_6  and  C5_7
REMARK    3  A    between atoms: C5_7  and  C6_8
REMARK    4  A    between atoms: C7_14  and  N5_15
ROOT
HETATM    1  C1  UNL     1       7.089  25.476  17.613  1.00  0.00     0.175 C
HETATM    2  N1  UNL     1       7.146  26.211  18.874  1.00  0.00    -0.196 N
HETATM    3  C2  UNL     1       6.051  26.774  19.374  1.00  0.00     0.127 A
HETATM    4  C3  UNL     1       6.186  27.451  20.570  1.00  0.00     0.128 A
HETATM    5  N2  UNL     1       7.373  27.539  21.206  1.00  0.00    -0.288 N
HETATM    6  N4  UNL     1       8.423  26.957  20.655  1.00  0.00    -0.130 N
ATOM      7  H4  UNL     1       9.323  27.020  21.131  1.00  0.00     0.206 HD
HETATM    8  C7  UNL     1       8.353  26.285  19.492  1.00  0.00     0.692 A
ENDROOT
BRANCH   5   9
HETATM    9  C4  UNL     1       7.485  28.267  22.478  1.00  0.00     0.154 C
BRANCH   9  10
HETATM   10  C5  UNL     1       7.132  27.276  23.563  1.00  0.00     0.065 C
BRANCH  10  11
HETATM   11  C6  UNL     1       5.816  27.584  24.181  1.00  0.00     0.054 C
HETATM   12  N3  UNL     1       5.275  28.729  24.153  1.00  0.00    -0.411 N
ATOM     13  H32 UNL     1       5.786  29.472  23.676  1.00  0.00     0.155 HD
ATOM     14  H31 UNL     1       4.372  28.941  24.577  1.00  0.00     0.155 HD
ENDBRANCH  10  11
ENDBRANCH   9  10
ENDBRANCH   5   9
BRANCH   8  15
HETATM   15  N5  UNL     1       9.402  25.717  18.964  1.00  0.00    -0.233 N
ATOM     16  H52 UNL     1      10.187  26.264  18.612  1.00  0.00     0.174 HD
ATOM     17  H51 UNL     1       9.459  24.701  18.892  1.00  0.00     0.174 HD
ENDBRANCH   8  15
TORSDOF 4
ENDMDL