MODEL 5
REMARK VINA RESULT: -5.447433742      0.947      1.439
REMARK  4 active torsions:
REMARK  status: ('A' for Active; 'I' for Inactive)
REMARK    1  A    between atoms: N1_2  and  C4_5
REMARK    2  A    between atoms: C4_5  and  C5_6
REMARK    3  A    between atoms: C5_6  and  C6_7
REMARK    4  A    between atoms: C8_11  and  N3_12
ROOT
HETATM    1  C6  UNL     1       7.801  27.170  20.417  1.00  0.00     0.044 A
HETATM    2  C7  UNL     1       6.617  26.804  19.769  1.00  0.00     0.131 A
HETATM    3  N2  UNL     1       6.901  26.141  18.649  1.00  0.00    -0.200 N
ATOM      4  H2  UNL     1       6.228  25.759  17.985  1.00  0.00     0.183 HD
HETATM    5  C8  UNL     1       8.251  26.067  18.559  1.00  0.00     0.675 A
HETATM    6  N4  UNL     1       8.773  26.691  19.630  1.00  0.00    -0.194 N
ATOM      7  H4  UNL     1       9.771  26.787  19.816  1.00  0.00     0.184 HD
ENDROOT
BRANCH   1   8
HETATM    8  C5  UNL     1       7.924  27.919  21.690  1.00  0.00     0.087 C
BRANCH   8   9
HETATM    9  C4  UNL     1       6.566  28.255  22.247  1.00  0.00     0.242 C
BRANCH   9  10
HETATM   10  N1  UNL     1       6.231  27.504  23.416  1.00  0.00    -0.078 N
HETATM   11  C1  UNL     1       7.406  26.714  23.788  1.00  0.00     0.271 C
HETATM   12  C2  UNL     1       5.155  26.562  23.196  1.00  0.00     0.271 C
HETATM   13  C3  UNL     1       5.896  28.323  24.555  1.00  0.00     0.271 C
ENDBRANCH   9  10
ENDBRANCH   8   9
ENDBRANCH   1   8
BRANCH   5  14
HETATM   14  N3  UNL     1       8.842  25.483  17.583  1.00  0.00    -0.234 N
ATOM     15  H32 UNL     1       9.039  24.493  17.440  1.00  0.00     0.174 HD
ATOM     16  H31 UNL     1       9.207  25.996  16.781  1.00  0.00     0.174 HD
ENDBRANCH   5  14
TORSDOF 4
ENDMDL