MODEL 3
REMARK VINA RESULT: -6.292122396      1.220      5.374
REMARK  4 active torsions:
REMARK  status: ('A' for Active; 'I' for Inactive)
REMARK    1  A    between atoms: N2_5  and  C3_6
REMARK    2  A    between atoms: C3_6  and  C4_7
REMARK    3  A    between atoms: C4_7  and  C5_8
REMARK    4  A    between atoms: C5_8  and  N3_9
ROOT
HETATM    1  C3  UNL     1       8.353  27.364  20.601  1.00  0.00     0.151 C
ENDROOT
BRANCH   1   2
HETATM    2  N2  UNL     1       8.075  26.586  19.416  1.00  0.00    -0.287 N
HETATM    3  C2  UNL     1       6.844  26.310  18.970  1.00  0.00     0.201 A
HETATM    4  N1  UNL     1       6.958  25.570  17.851  1.00  0.00    -0.346 N
HETATM    5  C1  UNL     1       8.273  25.394  17.614  1.00  0.00     0.198 A
ATOM      6  H1  UNL     1       6.189  25.209  17.286  1.00  0.00     0.167 HD
HETATM    7  N6  UNL     1       8.948  26.026  18.586  1.00  0.00    -0.293 N
ATOM      8  H6  UNL     1       9.963  26.070  18.673  1.00  0.00     0.188 HD
ENDBRANCH   1   2
BRANCH   1   9
HETATM    9  C4  UNL     1       7.073  27.894  21.198  1.00  0.00     0.044 C
BRANCH   9  10
HETATM   10  C5  UNL     1       7.298  28.526  22.555  1.00  0.00     0.153 C
BRANCH  10  11
HETATM   11  N3  UNL     1       6.215  28.024  23.416  1.00  0.00    -0.272 N
HETATM   12  C6  UNL     1       5.746  26.801  23.706  1.00  0.00     0.219 A
HETATM   13  N4  UNL     1       4.827  27.343  24.516  1.00  0.00    -0.280 N
HETATM   14  N5  UNL     1       5.306  28.530  24.216  1.00  0.00    -0.239 N
ATOM     15  H4  UNL     1       4.078  26.988  25.111  1.00  0.00     0.189 HD
ATOM     16  H5  UNL     1       5.064  29.480  24.498  1.00  0.00     0.208 HD
ENDBRANCH  10  11
ENDBRANCH   9  10
ENDBRANCH   1   9
TORSDOF 4
ENDMDL