MODEL 1
REMARK VINA RESULT: -7.444890483      0.000      0.000
REMARK  5 active torsions:
REMARK  status: ('A' for Active; 'I' for Inactive)
REMARK    1  A    between atoms: N1_1  and  C1_5
REMARK    2  A    between atoms: C1_5  and  C2_6
REMARK    3  A    between atoms: C2_6  and  C3_7
REMARK    4  A    between atoms: C3_7  and  C4_8
REMARK    5  A    between atoms: C4_8  and  C5_9
ROOT
HETATM    1  C5  UNL     1       7.209  27.804  21.256  1.00  0.00    -0.039 A
HETATM    2  C6  UNL     1       5.973  27.446  20.737  1.00  0.00     0.012 A
HETATM    3  C7  UNL     1       5.832  26.701  19.585  1.00  0.00     0.015 A
HETATM    4  C8  UNL     1       6.949  26.283  18.907  1.00  0.00     0.001 A
HETATM    5  C9  UNL     1       8.184  26.621  19.397  1.00  0.00     0.002 A
HETATM    6  C10 UNL     1       8.311  27.369  20.552  1.00  0.00     0.025 A
HETATM    7  C11 UNL     1       8.038  25.832  18.179  1.00  0.00     0.068 A
HETATM    8  N2  UNL     1       8.582  25.131  17.078  1.00  0.00    -0.101 NA
ENDROOT
BRANCH   1   9
HETATM    9  C4  UNL     1       7.312  28.524  22.367  1.00  0.00    -0.015 C
BRANCH   9  10
HETATM   10  C3  UNL     1       7.224  27.856  23.667  1.00  0.00     0.029 C
BRANCH  10  11
HETATM   11  C2  UNL     1       5.824  27.861  24.222  1.00  0.00     0.031 C
BRANCH  11  12
HETATM   12  C1  UNL     1       5.253  26.473  24.147  1.00  0.00     0.230 C
BRANCH  12  13
HETATM   13  N1  UNL     1       3.953  26.496  24.779  1.00  0.00    -0.079 N
ATOM     14  H13 UNL     1       3.983  26.207  25.757  1.00  0.00     0.274 HD
ATOM     15  H12 UNL     1       3.602  27.441  24.928  1.00  0.00     0.274 HD
ATOM     16  H11 UNL     1       3.323  25.923  24.217  1.00  0.00     0.274 HD
ENDBRANCH  12  13
ENDBRANCH  11  12
ENDBRANCH  10  11
ENDBRANCH   9  10
ENDBRANCH   1   9
TORSDOF 5
ENDMDL