MODEL 1
REMARK VINA RESULT: -5.823920122      0.000      0.000
REMARK  4 active torsions:
REMARK  status: ('A' for Active; 'I' for Inactive)
REMARK    1  A    between atoms: C3_5  and  N2_6
REMARK    2  A    between atoms: N4_11  and  C4_12
REMARK    3  A    between atoms: C4_12  and  C5_13
REMARK    4  A    between atoms: C5_13  and  N5_14
ROOT
HETATM    1  C1  UNL     1       4.925  25.917  20.555  1.00  0.00     0.091 C
HETATM    2  C2  UNL     1       6.330  26.104  20.134  1.00  0.00     0.111 A
HETATM    3  N1  UNL     1       6.957  25.554  19.061  1.00  0.00    -0.178 N
ATOM      4  H1  UNL     1       6.524  24.924  18.387  1.00  0.00     0.185 HD
HETATM    5  C3  UNL     1       8.234  25.969  19.023  1.00  0.00     0.692 A
HETATM    6  N3  UNL     1       8.405  26.784  20.083  1.00  0.00    -0.129 N
ATOM      7  H3  UNL     1       9.269  27.264  20.336  1.00  0.00     0.206 HD
HETATM    8  N4  UNL     1       7.257  26.856  20.740  1.00  0.00    -0.264 N
ENDROOT
BRANCH   8   9
HETATM    9  C4  UNL     1       7.051  27.626  21.919  1.00  0.00     0.170 C
BRANCH   9  10
HETATM   10  C5  UNL     1       7.131  26.762  23.186  1.00  0.00     0.137 C
BRANCH  10  11
HETATM   11  N5  UNL     1       6.086  27.178  24.025  1.00  0.00    -0.419 N
HETATM   12  C6  UNL     1       6.295  28.278  24.871  1.00  0.00     0.142 C
HETATM   13  C7  UNL     1       4.920  26.416  24.140  1.00  0.00     0.142 C
ENDBRANCH  10  11
ENDBRANCH   9  10
ENDBRANCH   8   9
BRANCH   5  14
HETATM   14  N2  UNL     1       9.160  25.674  18.163  1.00  0.00    -0.233 N
ATOM     15  H22 UNL     1       9.209  26.045  17.214  1.00  0.00     0.174 HD
ATOM     16  H21 UNL     1       9.961  25.053  18.275  1.00  0.00     0.174 HD
ENDBRANCH   5  14
TORSDOF 4
ENDMDL