MODEL 2
REMARK VINA RESULT: -6.108247702      1.036      1.533
REMARK  4 active torsions:
REMARK  status: ('A' for Active; 'I' for Inactive)
REMARK    1  A    between atoms: C3_9  and  N4_10
REMARK    2  A    between atoms: N4_10  and  C4_12
REMARK    3  A    between atoms: C4_12  and  C5_13
REMARK    4  A    between atoms: C5_13  and  O1_14
ROOT
HETATM    1  C1  UNL     1       5.085  26.941  24.228  1.00  0.00     0.165 C
HETATM    2  N1  UNL     1       5.661  28.239  23.948  1.00  0.00    -0.229 N
ATOM      3  H1  UNL     1       5.401  29.067  24.485  1.00  0.00     0.177 HD
HETATM    4  C2  UNL     1       6.535  28.299  22.968  1.00  0.00     0.707 A
HETATM    5  N2  UNL     1       7.184  29.397  22.547  1.00  0.00    -0.117 N
ATOM      6  H2  UNL     1       7.086  30.336  22.933  1.00  0.00     0.206 HD
HETATM    7  N3  UNL     1       7.981  29.047  21.535  1.00  0.00    -0.117 N
ATOM      8  H3  UNL     1       8.588  29.691  21.029  1.00  0.00     0.206 HD
HETATM    9  C3  UNL     1       7.875  27.736  21.274  1.00  0.00     0.711 A
HETATM   10  N5  UNL     1       6.956  27.295  22.196  1.00  0.00    -0.020 N
ATOM     11  H5  UNL     1       6.638  26.330  22.278  1.00  0.00     0.203 HD
ENDROOT
BRANCH   9  12
HETATM   12  N4  UNL     1       8.401  26.953  20.445  1.00  0.00    -0.202 N
ATOM     13  H4  UNL     1       9.391  26.826  20.652  1.00  0.00     0.183 HD
BRANCH  12  14
HETATM   14  C4  UNL     1       8.038  26.213  19.337  1.00  0.00     0.105 C
BRANCH  14  15
HETATM   15  C5  UNL     1       6.563  26.171  19.097  1.00  0.00     0.212 C
BRANCH  15  16
HETATM   16  O1  UNL     1       5.983  25.200  19.893  1.00  0.00    -0.391 OA
HETATM   17  C6  UNL     1       4.887  25.689  20.555  1.00  0.00     0.201 C
ENDBRANCH  15  16
ENDBRANCH  14  15
ENDBRANCH  12  14
ENDBRANCH   9  12
TORSDOF 4
ENDMDL