MODEL 2
REMARK VINA RESULT: -6.141862771      2.271      4.880
REMARK  4 active torsions:
REMARK  status: ('A' for Active; 'I' for Inactive)
REMARK    1  A    between atoms: C2_2  and  C3_3
REMARK    2  A    between atoms: C3_3  and  C4_4
REMARK    3  A    between atoms: C4_4  and  N1_5
REMARK    4  A    between atoms: C7_11  and  N4_12
ROOT
HETATM    1  N1  UNL     1       2.875  28.698  14.642  1.00  0.00    -0.360 N
HETATM    2  C5  UNL     1       2.044  29.323  13.786  1.00  0.00     0.135 A
HETATM    3  C6  UNL     1       2.433  30.388  12.997  1.00  0.00     0.133 A
HETATM    4  N2  UNL     1       1.523  31.029  12.096  1.00  0.00    -0.081 NA
HETATM    5  N3  UNL     1       3.713  30.790  13.117  1.00  0.00    -0.329 N
ATOM      6  H3  UNL     1       4.049  31.571  12.555  1.00  0.00     0.168 HD
HETATM    7  C7  UNL     1       4.554  30.175  13.967  1.00  0.00     0.115 A
HETATM    8  C8  UNL     1       4.152  29.113  14.751  1.00  0.00     0.138 A
ENDROOT
BRANCH   1   9
HETATM    9  C4  UNL     1       2.440  27.580  15.462  1.00  0.00     0.128 C
BRANCH   9  10
HETATM   10  C3  UNL     1       2.081  26.369  14.604  1.00  0.00     0.020 C
BRANCH  10  11
HETATM   11  C2  UNL     1       3.116  25.300  14.935  1.00  0.00    -0.003 C
HETATM   12  C1  UNL     1       4.406  25.513  14.203  1.00  0.00     0.005 C
ENDBRANCH  10  11
ENDBRANCH   9  10
ENDBRANCH   1   9
BRANCH   7  13
HETATM   13  N4  UNL     1       5.778  30.594  14.053  1.00  0.00    -0.384 N
ATOM     14  H42 UNL     1       5.979  31.578  13.876  1.00  0.00     0.157 HD
ATOM     15  H41 UNL     1       6.512  29.928  14.296  1.00  0.00     0.157 HD
ENDBRANCH   7  13
TORSDOF 4
ENDMDL