MODEL 2
REMARK VINA RESULT: -5.117991465      0.076      1.607
REMARK  5 active torsions:
REMARK  status: ('A' for Active; 'I' for Inactive)
REMARK    1  A    between atoms: C3_5  and  N2_6
REMARK    2  A    between atoms: N2_6  and  C4_8
REMARK    3  A    between atoms: C4_8  and  C5_9
REMARK    4  A    between atoms: C5_9  and  C6_10
REMARK    5  A    between atoms: C6_10  and  N3_11
ROOT
HETATM    1  C1  UNL     1       0.514  26.343  14.516  1.00  0.00     0.046 C
HETATM    2  C2  UNL     1       1.728  26.830  14.557  1.00  0.00     0.066 A
HETATM    3  N1  UNL     1       2.074  28.119  14.415  1.00  0.00    -0.191 N
ATOM      4  H1  UNL     1       1.420  28.885  14.256  1.00  0.00     0.184 HD
HETATM    5  C3  UNL     1       3.407  28.253  14.513  1.00  0.00     0.679 A
HETATM    6  N4  UNL     1       3.940  27.038  14.721  1.00  0.00    -0.191 N
ATOM      7  H4  UNL     1       4.931  26.828  14.836  1.00  0.00     0.184 HD
HETATM    8  C7  UNL     1       2.934  26.147  14.752  1.00  0.00     0.066 A
HETATM    9  C8  UNL     1       3.038  24.854  14.933  1.00  0.00     0.046 C
ENDROOT
BRANCH   5  10
HETATM   10  N2  UNL     1       4.084  29.372  14.422  1.00  0.00    -0.226 N
ATOM     11  H2  UNL     1       3.783  30.100  13.775  1.00  0.00     0.177 HD
BRANCH  10  12
HETATM   12  C4  UNL     1       5.255  29.569  15.243  1.00  0.00     0.139 C
BRANCH  12  13
HETATM   13  C5  UNL     1       6.256  30.351  14.393  1.00  0.00     0.047 C
BRANCH  13  14
HETATM   14  C6  UNL     1       7.550  29.549  14.432  1.00  0.00     0.231 C
BRANCH  14  15
HETATM   15  N3  UNL     1       7.394  28.241  13.836  1.00  0.00    -0.079 N
ATOM     16  H33 UNL     1       6.468  27.856  14.025  1.00  0.00     0.274 HD
ATOM     17  H32 UNL     1       7.339  28.301  12.819  1.00  0.00     0.274 HD
ATOM     18  H31 UNL     1       8.130  27.598  14.130  1.00  0.00     0.274 HD
ENDBRANCH  14  15
ENDBRANCH  13  14
ENDBRANCH  12  13
ENDBRANCH  10  12
ENDBRANCH   5  10
TORSDOF 5
ENDMDL