MODEL 2
REMARK VINA RESULT: -4.959223082      1.605      4.273
REMARK  5 active torsions:
REMARK  status: ('A' for Active; 'I' for Inactive)
REMARK    1  A    between atoms: N1_2  and  C3_4
REMARK    2  A    between atoms: C3_4  and  C4_5
REMARK    3  A    between atoms: C4_5  and  N2_6
REMARK    4  A    between atoms: N2_6  and  C5_8
REMARK    5  A    between atoms: C8_13  and  N4_14
ROOT
HETATM    1  C5  UNL     1       3.505  27.467  15.049  1.00  0.00     0.118 A
HETATM    2  C6  UNL     1       3.176  26.111  14.935  1.00  0.00     0.066 A
HETATM    3  C7  UNL     1       4.128  25.220  14.537  1.00  0.00     0.110 A
HETATM    4  N3  UNL     1       5.373  25.649  14.257  1.00  0.00    -0.202 N
ATOM      5  H3  UNL     1       6.075  24.971  13.960  1.00  0.00     0.183 HD
HETATM    6  C8  UNL     1       5.718  26.946  14.357  1.00  0.00     0.677 A
HETATM    7  N5  UNL     1       4.764  27.821  14.753  1.00  0.00    -0.177 N
ATOM      8  H5  UNL     1       5.017  28.806  14.831  1.00  0.00     0.185 HD
ENDROOT
BRANCH   1   9
HETATM    9  N2  UNL     1       2.572  28.236  15.423  1.00  0.00    -0.374 N
ATOM     10  H2  UNL     1       2.559  28.454  16.419  1.00  0.00     0.161 HD
BRANCH   9  11
HETATM   11  C4  UNL     1       1.538  28.839  14.653  1.00  0.00     0.141 C
BRANCH  11  12
HETATM   12  C3  UNL     1       2.021  28.963  13.214  1.00  0.00     0.140 C
BRANCH  12  13
HETATM   13  N1  UNL     1       2.457  30.290  12.921  1.00  0.00    -0.402 N
HETATM   14  C1  UNL     1       1.633  31.130  12.442  1.00  0.00     0.114 C
HETATM   15  C2  UNL     1       3.817  30.636  13.174  1.00  0.00     0.148 C
ENDBRANCH  12  13
ENDBRANCH  11  12
ENDBRANCH   9  11
ENDBRANCH   1   9
BRANCH   6  16
HETATM   16  N4  UNL     1       6.915  27.266  14.074  1.00  0.00    -0.234 N
ATOM     17  H42 UNL     1       7.635  26.606  13.782  1.00  0.00     0.174 HD
ATOM     18  H41 UNL     1       7.175  28.250  14.144  1.00  0.00     0.174 HD
ENDBRANCH   6  16
TORSDOF 5
ENDMDL