MODEL 4
REMARK VINA RESULT: -5.260880979      1.953      4.062
REMARK  6 active torsions:
REMARK  status: ('A' for Active; 'I' for Inactive)
REMARK    1  A    between atoms: C4_5  and  C5_6
REMARK    2  A    between atoms: C5_6  and  N2_7
REMARK    3  A    between atoms: C6_13  and  N4_14
REMARK    4  A    between atoms: N4_14  and  C7_16
REMARK    5  A    between atoms: C7_16  and  C8_17
REMARK    6  A    between atoms: C8_17  and  N5_18
ROOT
HETATM    1  C1  UNL     1       1.514  27.595  14.057  1.00  0.00     0.174 C
HETATM    2  N1  UNL     1       2.816  28.248  14.204  1.00  0.00    -0.198 N
HETATM    3  C2  UNL     1       2.909  29.580  13.902  1.00  0.00     0.110 A
HETATM    4  C3  UNL     1       4.107  30.239  14.025  1.00  0.00     0.045 A
HETATM    5  C4  UNL     1       5.214  29.541  14.458  1.00  0.00     0.053 A
HETATM    6  N3  UNL     1       5.064  28.258  14.734  1.00  0.00    -0.194 N
ATOM      7  H3  UNL     1       5.888  27.748  15.053  1.00  0.00     0.184 HD
HETATM    8  C6  UNL     1       3.876  27.548  14.626  1.00  0.00     0.680 A
ENDROOT
BRANCH   8   9
HETATM    9  N4  UNL     1       3.955  26.361  14.932  1.00  0.00    -0.224 N
ATOM     10  H4  UNL     1       4.000  26.309  15.950  1.00  0.00     0.177 HD
BRANCH   9  11
HETATM   11  C7  UNL     1       4.006  25.104  14.460  1.00  0.00     0.165 C
BRANCH  11  12
HETATM   12  C8  UNL     1       3.112  24.090  15.232  1.00  0.00     0.249 C
BRANCH  12  13
HETATM   13  N5  UNL     1       3.933  23.600  16.316  1.00  0.00    -0.078 N
ATOM     14  H53 UNL     1       3.982  24.234  17.113  1.00  0.00     0.274 HD
ATOM     15  H52 UNL     1       3.525  22.811  16.816  1.00  0.00     0.274 HD
ATOM     16  H51 UNL     1       4.841  23.395  15.898  1.00  0.00     0.274 HD
ENDBRANCH  12  13
ENDBRANCH  11  12
ENDBRANCH   9  11
ENDBRANCH   8   9
BRANCH   5  17
HETATM   17  C5  UNL     1       6.536  30.250  14.597  1.00  0.00     0.287 C
BRANCH  17  18
HETATM   18  N2  UNL     1       7.585  29.430  14.020  1.00  0.00    -0.074 N
ATOM     19  H23 UNL     1       7.803  28.618  14.598  1.00  0.00     0.274 HD
ATOM     20  H22 UNL     1       7.272  28.934  13.185  1.00  0.00     0.274 HD
ATOM     21  H21 UNL     1       8.406  30.008  13.840  1.00  0.00     0.274 HD
ENDBRANCH  17  18
ENDBRANCH   5  17
TORSDOF 6
ENDMDL