MODEL 5
REMARK VINA RESULT: -5.970862806      2.445      4.944
REMARK  3 active torsions:
REMARK  status: ('A' for Active; 'I' for Inactive)
REMARK    1  A    between atoms: N1_2  and  C3_4
REMARK    2  A    between atoms: C3_4  and  C4_5
REMARK    3  A    between atoms: C4_5  and  C5_6
ROOT
HETATM    1  C5  UNL     1       4.821  28.171  14.680  1.00  0.00     0.025 C
HETATM    2  C6  UNL     1       4.377  26.929  14.730  1.00  0.00     0.120 A
HETATM    3  N2  UNL     1       5.134  25.744  14.535  1.00  0.00    -0.282 N
ATOM      4  H2  UNL     1       6.133  25.725  14.330  1.00  0.00     0.188 HD
HETATM    5  N3  UNL     1       4.341  24.622  14.660  1.00  0.00    -0.250 N
ATOM      6  H3  UNL     1       4.653  23.656  14.563  1.00  0.00     0.192 HD
HETATM    7  C7  UNL     1       3.005  25.050  14.948  1.00  0.00     0.340 A
HETATM    8  O1  UNL     1       2.051  24.254  15.119  1.00  0.00    -0.245 OA
HETATM    9  N4  UNL     1       3.044  26.466  14.988  1.00  0.00    -0.293 N
ATOM     10  H4  UNL     1       2.242  27.068  15.172  1.00  0.00     0.172 HD
ENDROOT
BRANCH   1  11
HETATM   11  C4  UNL     1       3.929  29.331  14.901  1.00  0.00     0.061 C
BRANCH  11  12
HETATM   12  C3  UNL     1       3.711  30.139  13.646  1.00  0.00     0.275 C
BRANCH  12  13
HETATM   13  N1  UNL     1       2.384  29.944  13.157  1.00  0.00     0.080 N
HETATM   14  C1  UNL     1       1.437  29.432  14.089  1.00  0.00     0.309 C
HETATM   15  C2  UNL     1       1.818  31.066  12.455  1.00  0.00     0.309 C
ENDBRANCH  12  13
ENDBRANCH  11  12
ENDBRANCH   1  11
TORSDOF 3
ENDMDL