MODEL 1
REMARK VINA RESULT: -5.442758575      0.000      0.000
REMARK  6 active torsions:
REMARK  status: ('A' for Active; 'I' for Inactive)
REMARK    1  A    between atoms: N1_1  and  C1_4
REMARK    2  A    between atoms: N2_8  and  C5_9
REMARK    3  A    between atoms: C5_9  and  C6_10
REMARK    4  A    between atoms: C6_10  and  C7_11
REMARK    5  A    between atoms: C7_11  and  C8_12
REMARK    6  A    between atoms: C9_13  and  N3_14
ROOT
HETATM    1  C1  UNL     1       2.765  30.513  13.126  1.00  0.00     0.113 A
HETATM    2  C2  UNL     1       1.630  29.836  13.589  1.00  0.00     0.051 A
HETATM    3  C3  UNL     1       1.782  28.929  14.604  1.00  0.00     0.023 A
HETATM    4  C4  UNL     1       3.047  28.732  15.113  1.00  0.00     0.110 A
HETATM    5  N2  UNL     1       4.121  29.380  14.667  1.00  0.00    -0.302 N
HETATM    6  N4  UNL     1       3.959  30.250  13.690  1.00  0.00    -0.284 N
ATOM      7  H4  UNL     1       4.779  30.748  13.345  1.00  0.00     0.188 HD
ENDROOT
BRANCH   5   8
HETATM    8  C5  UNL     1       5.447  29.172  15.203  1.00  0.00     0.149 C
BRANCH   8   9
HETATM    9  C6  UNL     1       6.341  28.683  14.077  1.00  0.00     0.034 C
BRANCH   9  10
HETATM   10  C7  UNL     1       6.767  27.267  14.401  1.00  0.00     0.097 C
BRANCH  10  11
HETATM   11  C8  UNL     1       5.589  26.386  14.327  1.00  0.00    -0.084 C
HETATM   12  C9  UNL     1       4.635  25.647  14.263  1.00  0.00     0.003 C
BRANCH  12  13
HETATM   13  N3  UNL     1       3.543  24.772  14.199  1.00  0.00    -0.359 N
ATOM     14  H32 UNL     1       4.124  25.207  14.915  1.00  0.00     0.166 HD
ATOM     15  H31 UNL     1       2.748  24.136  14.134  1.00  0.00     0.166 HD
ENDBRANCH  12  13
ENDBRANCH  10  11
ENDBRANCH   9  10
ENDBRANCH   8   9
ENDBRANCH   5   8
BRANCH   1  16
HETATM   16  N1  UNL     1       2.627  31.362  12.177  1.00  0.00    -0.384 N
ATOM     17  H12 UNL     1       1.799  31.950  12.086  1.00  0.00     0.157 HD
ATOM     18  H11 UNL     1       3.376  31.451  11.490  1.00  0.00     0.157 HD
ENDBRANCH   1  16
TORSDOF 6
ENDMDL