MODEL 1
REMARK VINA RESULT: -6.775666414      0.000      0.000
REMARK  3 active torsions:
REMARK  status: ('A' for Active; 'I' for Inactive)
REMARK    1  A    between atoms: C4_4  and  O1_5
REMARK    2  A    between atoms: O1_5  and  C5_6
REMARK    3  A    between atoms: C5_6  and  C6_7
ROOT
HETATM    1  C1  UNL     1       0.382  26.455  14.698  1.00  0.00     0.019 C
HETATM    2  C2  UNL     1       1.555  26.710  14.624  1.00  0.00    -0.055 C
HETATM    3  C3  UNL     1       2.954  27.032  14.546  1.00  0.00     0.140 A
HETATM    4  C4  UNL     1       3.538  28.289  14.548  1.00  0.00     0.180 A
HETATM    5  N3  UNL     1       4.885  28.153  14.458  1.00  0.00    -0.331 N
ATOM      6  H3  UNL     1       5.570  28.908  14.439  1.00  0.00     0.168 HD
HETATM    7  C7  UNL     1       5.149  26.830  14.399  1.00  0.00     0.185 A
HETATM    8  N4  UNL     1       3.980  26.164  14.453  1.00  0.00    -0.337 N
HETATM    9  C8  UNL     1       3.911  24.705  14.410  1.00  0.00     0.158 C
ENDROOT
BRANCH   4  10
HETATM   10  O1  UNL     1       2.825  29.473  14.632  1.00  0.00    -0.326 OA
BRANCH  10  11
HETATM   11  C5  UNL     1       1.935  29.813  13.563  1.00  0.00     0.250 C
BRANCH  11  12
HETATM   12  C6  UNL     1       2.540  30.786  12.652  1.00  0.00     0.111 C
HETATM   13  N1  UNL     1       3.781  30.734  12.305  1.00  0.00    -0.389 N
ATOM     14  H12 UNL     1       4.346  29.979  12.691  1.00  0.00     0.157 HD
ATOM     15  H11 UNL     1       4.202  31.412  11.671  1.00  0.00     0.157 HD
HETATM   16  N2  UNL     1       1.752  31.838  12.114  1.00  0.00    -0.086 NA
ENDBRANCH  11  12
ENDBRANCH  10  11
ENDBRANCH   4  10
TORSDOF 3
ENDMDL