MODEL 1
REMARK VINA RESULT: -6.838290928      0.000      0.000
REMARK  5 active torsions:
REMARK  status: ('A' for Active; 'I' for Inactive)
REMARK    1  A    between atoms: N1_1  and  N2_4
REMARK    2  A    between atoms: C1_6  and  C2_7
REMARK    3  A    between atoms: N4_14  and  C7_16
REMARK    4  A    between atoms: C7_16  and  C8_17
REMARK    5  A    between atoms: C8_17  and  N5_18
ROOT
HETATM    1  C2  UNL     1       3.066  28.482  14.518  1.00  0.00     0.025 A
HETATM    2  C3  UNL     1       1.830  28.717  13.862  1.00  0.00     0.018 A
HETATM    3  C4  UNL     1       1.647  29.816  13.074  1.00  0.00     0.018 A
HETATM    4  C5  UNL     1       2.660  30.725  12.895  1.00  0.00     0.089 A
HETATM    5  N3  UNL     1       3.828  30.508  13.510  1.00  0.00    -0.352 N
ATOM      6  H3  UNL     1       4.585  31.180  13.383  1.00  0.00     0.166 HD
HETATM    7  C6  UNL     1       4.035  29.433  14.293  1.00  0.00     0.112 A
HETATM    8  N4  UNL     1       5.200  29.359  14.814  1.00  0.00    -0.374 N
ATOM      9  H4  UNL     1       5.391  28.556  15.412  1.00  0.00     0.161 HD
ENDROOT
BRANCH   1  10
HETATM   10  C1  UNL     1       3.188  27.317  15.324  1.00  0.00     0.121 C
HETATM   11  N2  UNL     1       3.554  26.145  15.154  1.00  0.00    -0.318 N
ATOM     12  H2  UNL     1       3.494  25.595  16.011  1.00  0.00     0.185 HD
BRANCH  11  13
HETATM   13  N1  UNL     1       4.022  25.398  14.091  1.00  0.00    -0.345 N
ATOM     14  H12 UNL     1       3.642  25.745  13.211  1.00  0.00     0.176 HD
ATOM     15  H11 UNL     1       4.645  24.598  13.976  1.00  0.00     0.176 HD
ENDBRANCH  11  13
ENDBRANCH   1  10
BRANCH   8  16
HETATM   16  C7  UNL     1       6.250  30.291  14.635  1.00  0.00     0.148 C
BRANCH  16  17
HETATM   17  C8  UNL     1       7.624  29.648  14.478  1.00  0.00     0.249 C
BRANCH  17  18
HETATM   18  N5  UNL     1       7.458  28.378  13.799  1.00  0.00    -0.078 N
ATOM     19  H53 UNL     1       6.846  28.444  12.986  1.00  0.00     0.274 HD
ATOM     20  H52 UNL     1       8.303  28.080  13.311  1.00  0.00     0.274 HD
ATOM     21  H51 UNL     1       7.134  27.690  14.478  1.00  0.00     0.274 HD
ENDBRANCH  17  18
ENDBRANCH  16  17
ENDBRANCH   8  16
TORSDOF 5
ENDMDL