MODEL 4
REMARK VINA RESULT: -5.531492339      1.750      1.891
REMARK  6 active torsions:
REMARK  status: ('A' for Active; 'I' for Inactive)
REMARK    1  A    between atoms: N1_1  and  N2_4
REMARK    2  A    between atoms: N2_4  and  C1_6
REMARK    3  A    between atoms: C1_6  and  C2_7
REMARK    4  A    between atoms: C2_7  and  C3_8
REMARK    5  A    between atoms: C3_8  and  N3_9
REMARK    6  A    between atoms: N3_9  and  C4_11
ROOT
HETATM    1  C3  UNL     1       3.481  27.851  15.498  1.00  0.00     0.123 C
ENDROOT
BRANCH   1   2
HETATM    2  C2  UNL     1       3.459  26.598  14.665  1.00  0.00     0.041 C
BRANCH   2   3
HETATM    3  C1  UNL     1       4.820  26.176  14.196  1.00  0.00     0.140 C
BRANCH   3   4
HETATM    4  N2  UNL     1       5.700  27.311  14.406  1.00  0.00    -0.343 N
ATOM      5  H2  UNL     1       5.363  28.194  14.791  1.00  0.00     0.179 HD
BRANCH   4   6
HETATM    6  N1  UNL     1       6.884  27.143  14.090  1.00  0.00    -0.349 N
ATOM      7  H12 UNL     1       7.608  27.021  14.799  1.00  0.00     0.176 HD
ATOM      8  H11 UNL     1       7.081  27.134  13.089  1.00  0.00     0.176 HD
ENDBRANCH   4   6
ENDBRANCH   3   4
ENDBRANCH   2   3
ENDBRANCH   1   2
BRANCH   1   9
HETATM    9  N3  UNL     1       2.577  28.869  15.008  1.00  0.00    -0.368 N
ATOM     10  H3  UNL     1       1.659  28.972  15.440  1.00  0.00     0.161 HD
BRANCH   9  11
HETATM   11  C4  UNL     1       2.908  29.645  14.039  1.00  0.00     0.177 A
HETATM   12  N4  UNL     1       3.979  30.244  13.507  1.00  0.00    -0.272 N
HETATM   13  N5  UNL     1       3.493  30.906  12.478  1.00  0.00    -0.265 N
ATOM     14  H4  UNL     1       4.948  30.198  13.824  1.00  0.00     0.189 HD
HETATM   15  S1  UNL     1       1.955  30.352  12.828  1.00  0.00     0.040 SA
ATOM     16  H5  UNL     1       3.893  31.511  11.760  1.00  0.00     0.195 HD
ENDBRANCH   9  11
ENDBRANCH   1   9
TORSDOF 6
ENDMDL