MODEL 4
REMARK VINA RESULT: -4.509614020      1.947      4.548
REMARK  5 active torsions:
REMARK  status: ('A' for Active; 'I' for Inactive)
REMARK    1  A    between atoms: C4_5  and  N2_6
REMARK    2  A    between atoms: N2_6  and  C5_8
REMARK    3  A    between atoms: C5_8  and  C6_9
REMARK    4  A    between atoms: C6_9  and  C7_10
REMARK    5  A    between atoms: C7_10  and  N3_11
ROOT
HETATM    1  N2  UNL     1       3.782  29.776  14.048  1.00  0.00    -0.376 N
ATOM      2  H2  UNL     1       3.012  30.441  13.969  1.00  0.00     0.161 HD
ENDROOT
BRANCH   1   3
HETATM    3  C4  UNL     1       3.506  28.539  14.279  1.00  0.00     0.102 A
HETATM    4  C3  UNL     1       2.245  28.105  14.629  1.00  0.00     0.065 A
HETATM    5  C2  UNL     1       2.017  26.768  14.863  1.00  0.00     0.095 A
HETATM    6  N1  UNL     1       2.993  25.852  14.764  1.00  0.00    -0.357 N
HETATM    7  C1  UNL     1       2.734  24.448  15.014  1.00  0.00     0.156 C
HETATM    8  C8  UNL     1       4.218  26.297  14.422  1.00  0.00     0.183 A
HETATM    9  N4  UNL     1       4.485  27.592  14.183  1.00  0.00    -0.339 N
ATOM     10  H4  UNL     1       5.431  27.872  13.928  1.00  0.00     0.168 HD
ENDBRANCH   1   3
BRANCH   1  11
HETATM   11  C5  UNL     1       5.113  30.257  13.898  1.00  0.00     0.123 C
BRANCH  11  12
HETATM   12  C6  UNL     1       5.988  29.927  15.105  1.00  0.00     0.047 C
BRANCH  12  13
HETATM   13  C7  UNL     1       7.429  29.881  14.630  1.00  0.00     0.231 C
BRANCH  13  14
HETATM   14  N3  UNL     1       7.564  28.710  13.792  1.00  0.00    -0.079 N
ATOM     15  H33 UNL     1       7.078  27.894  14.165  1.00  0.00     0.274 HD
ATOM     16  H32 UNL     1       7.045  28.782  12.917  1.00  0.00     0.274 HD
ATOM     17  H31 UNL     1       8.562  28.553  13.654  1.00  0.00     0.274 HD
ENDBRANCH  13  14
ENDBRANCH  12  13
ENDBRANCH  11  12
ENDBRANCH   1  11
TORSDOF 5
ENDMDL