MODEL 1
REMARK VINA RESULT: -5.112390569      0.000      0.000
REMARK  9 active torsions:
REMARK  status: ('A' for Active; 'I' for Inactive)
REMARK    1  A    between atoms: O1_2  and  C2_3
REMARK    2  A    between atoms: C2_3  and  C3_5
REMARK    3  A    between atoms: C3_5  and  O3_6
REMARK    4  A    between atoms: C6_10  and  C7_11
REMARK    5  A    between atoms: C7_11  and  O4_13
REMARK    6  A    between atoms: C9_15  and  O5_16
REMARK    7  A    between atoms: C9_15  and  O6_18
REMARK    8  A    between atoms: N1_21  and  N2_23
REMARK    9  A    between atoms: C12_26  and  C13_27
ROOT
HETATM    1  C3  UNL     1      43.848   6.899   7.960  1.00  0.00     0.186 C
HETATM    2  C4  UNL     1      43.604   8.357   8.250  1.00  0.00    -0.028 C
HETATM    3  C5  UNL     1      44.410   8.827   9.440  1.00  0.00     0.048 C
HETATM    4  C6  UNL     1      42.838   9.163   7.589  1.00  0.00     0.021 C
HETATM    5  C9  UNL     1      42.109   8.647   6.331  1.00  0.00     0.233 C
HETATM    6  C11 UNL     1      42.590   7.371   5.880  1.00  0.00     0.086 C
HETATM    7  N1  UNL     1      42.385   7.067   4.631  1.00  0.00    -0.309 N
ATOM      8  H1  UNL     1      41.898   7.737   4.037  1.00  0.00     0.186 HD
HETATM    9  C12 UNL     1      43.313   6.376   6.696  1.00  0.00     0.177 C
ENDROOT
BRANCH   1  10
HETATM   10  C2  UNL     1      43.402   6.075   9.143  1.00  0.00     0.299 C
HETATM   11  O2  UNL     1      44.174   5.210   9.663  1.00  0.00    -0.261 OA
BRANCH  10  12
HETATM   12  O1  UNL     1      42.150   6.206   9.724  1.00  0.00    -0.324 OA
HETATM   13  C1  UNL     1      41.504   5.143  10.401  1.00  0.00     0.213 C
ENDBRANCH  10  12
ENDBRANCH   1  10
BRANCH   1  14
HETATM   14  O3  UNL     1      45.247   6.782   7.943  1.00  0.00    -0.374 OA
ATOM     15  H3  UNL     1      45.566   7.666   7.800  1.00  0.00     0.211 HD
ENDBRANCH   1  14
BRANCH   9  16
HETATM   16  C13 UNL     1      42.451   5.182   6.847  1.00  0.00     0.244 C
HETATM   17  N3  UNL     1      41.015   5.297   6.735  1.00  0.00    -0.061 NA
HETATM   18  O7  UNL     1      42.879   4.028   7.072  1.00  0.00    -0.276 OA
ENDBRANCH   9  16
BRANCH   4  19
HETATM   19  C7  UNL     1      42.551  10.582   7.816  1.00  0.00     0.149 C
HETATM   20  C8  UNL     1      41.992  11.039   9.109  1.00  0.00     0.044 C
BRANCH  19  21
HETATM   21  O4  UNL     1      43.656  11.394   7.439  1.00  0.00    -0.391 OA
ATOM     22  H4  UNL     1      43.378  12.282   7.247  1.00  0.00     0.210 HD
ENDBRANCH  19  21
ENDBRANCH   4  19
BRANCH   5  23
HETATM   23  O5  UNL     1      42.414   9.615   5.345  1.00  0.00    -0.357 OA
ATOM     24  H5  UNL     1      42.283  10.443   5.793  1.00  0.00     0.213 HD
ENDBRANCH   5  23
BRANCH   5  25
HETATM   25  O6  UNL     1      40.791   8.649   6.666  1.00  0.00    -0.352 OA
HETATM   26  C10 UNL     1      39.948   9.469   5.977  1.00  0.00     0.206 C
ENDBRANCH   5  25
BRANCH   7  27
HETATM   27  N2  UNL     1      42.803   5.866   4.080  1.00  0.00    -0.345 N
ATOM     28  H22 UNL     1      43.773   5.588   4.228  1.00  0.00     0.176 HD
ATOM     29  H21 UNL     1      42.180   5.265   3.540  1.00  0.00     0.176 HD
ENDBRANCH   7  27
TORSDOF 9
ENDMDL