MODEL 1
REMARK VINA RESULT: -5.201041406      0.000      0.000
REMARK  7 active torsions:
REMARK  status: ('A' for Active; 'I' for Inactive)
REMARK    1  A    between atoms: C2_2  and  S1_4
REMARK    2  A    between atoms: S1_4  and  N1_7
REMARK    3  A    between atoms: C3_8  and  N2_9
REMARK    4  A    between atoms: N2_9  and  C5_11
REMARK    5  A    between atoms: C5_11  and  C6_12
REMARK    6  A    between atoms: C6_12  and  N3_13
REMARK    7  A    between atoms: C8_20  and  N5_21
ROOT
HETATM    1  N1  UNL     1      37.875   1.263  12.807  1.00  0.00    -0.046 N
HETATM    2  C3  UNL     1      39.192   1.434  12.632  1.00  0.00     0.699 A
HETATM    3  N4  UNL     1      39.766   0.240  12.291  1.00  0.00    -0.183 N
ATOM      4  H4  UNL     1      40.756   0.089  12.102  1.00  0.00     0.184 HD
HETATM    5  C7  UNL     1      38.808  -0.701  12.248  1.00  0.00     0.139 A
HETATM    6  C8  UNL     1      38.840  -2.068  11.959  1.00  0.00     0.146 A
HETATM    7  N6  UNL     1      37.681  -2.735  12.005  1.00  0.00    -0.175 N
ATOM      8  H6  UNL     1      37.670  -3.734  11.799  1.00  0.00     0.186 HD
HETATM    9  C9  UNL     1      36.530  -2.115  12.317  1.00  0.00     0.679 A
HETATM   10  N7  UNL     1      35.406  -2.779  12.357  1.00  0.00    -0.234 N
ATOM     11  H71 UNL     1      34.533  -2.308  12.594  1.00  0.00     0.174 HD
ATOM     12  H72 UNL     1      35.412  -3.777  12.148  1.00  0.00     0.174 HD
HETATM   13  N8  UNL     1      36.522  -0.787  12.595  1.00  0.00    -0.173 N
ATOM     14  H8  UNL     1      35.636  -0.337  12.830  1.00  0.00     0.186 HD
HETATM   15  C10 UNL     1      37.641  -0.044  12.572  1.00  0.00     0.186 A
ENDROOT
BRANCH   2  16
HETATM   16  N2  UNL     1      40.025   2.574  12.753  1.00  0.00    -0.219 N
HETATM   17  C4  UNL     1      40.802   2.766  13.952  1.00  0.00     0.168 C
BRANCH  16  18
HETATM   18  C5  UNL     1      40.053   3.531  11.670  1.00  0.00     0.168 C
BRANCH  18  19
HETATM   19  C6  UNL     1      39.945   4.961  12.195  1.00  0.00     0.250 C
BRANCH  19  20
HETATM   20  N3  UNL     1      38.637   5.457  11.808  1.00  0.00    -0.078 N
ATOM     21  H33 UNL     1      38.470   5.405  10.803  1.00  0.00     0.274 HD
ATOM     22  H32 UNL     1      37.874   4.844  12.098  1.00  0.00     0.274 HD
ATOM     23  H31 UNL     1      38.554   6.403  12.180  1.00  0.00     0.274 HD
ENDBRANCH  19  20
ENDBRANCH  18  19
ENDBRANCH  16  18
ENDBRANCH   2  16
BRANCH   1  24
HETATM   24  S1  UNL     1      36.771   2.500  13.218  1.00  0.00     0.318 S
HETATM   25  O2  UNL     1      35.395   1.997  13.527  1.00  0.00    -0.196 OA
HETATM   26  O3  UNL     1      36.583   3.417  12.011  1.00  0.00    -0.196 OA
BRANCH  24  27
HETATM   27  C2  UNL     1      37.314   3.393  14.599  1.00  0.00     0.260 C
HETATM   28  C1  UNL     1      37.598   2.678  15.871  1.00  0.00     0.111 C
HETATM   29  O1  UNL     1      37.477   4.599  14.585  1.00  0.00    -0.279 OA
ENDBRANCH  24  27
ENDBRANCH   1  24
BRANCH   6  30
HETATM   30  N5  UNL     1      39.954  -2.630  11.670  1.00  0.00    -0.383 N
ATOM     31  H52 UNL     1      40.510  -2.372  10.854  1.00  0.00     0.157 HD
ATOM     32  H51 UNL     1      40.316  -3.373  12.268  1.00  0.00     0.157 HD
ENDBRANCH   6  30
TORSDOF 7
ENDMDL