MODEL 4
REMARK VINA RESULT: -6.083381943      2.510      7.170
REMARK  7 active torsions:
REMARK  status: ('A' for Active; 'I' for Inactive)
REMARK    1  A    between atoms: N1_2  and  C2_4
REMARK    2  A    between atoms: C2_4  and  O1_5
REMARK    3  A    between atoms: C3_7  and  S1_8
REMARK    4  A    between atoms: S1_8  and  C4_9
REMARK    5  A    between atoms: C7_16  and  C8_17
REMARK    6  A    between atoms: C10_22  and  N6_23
REMARK    7  A    between atoms: C11_26  and  N7_27
ROOT
HETATM    1  C4  UNL     1      37.469  -1.943  14.463  1.00  0.00     0.151 C
HETATM    2  N2  UNL     1      37.556  -3.165  13.748  1.00  0.00    -0.321 N
ATOM      3  H2  UNL     1      38.409  -3.716  13.842  1.00  0.00     0.169 HD
HETATM    4  C5  UNL     1      36.566  -3.647  12.944  1.00  0.00     0.140 A
HETATM    5  C6  UNL     1      35.710  -2.884  12.145  1.00  0.00     0.109 A
HETATM    6  N3  UNL     1      34.822  -3.674  11.631  1.00  0.00    -0.333 N
ATOM      7  H3  UNL     1      34.059  -3.400  11.011  1.00  0.00     0.168 HD
HETATM    8  C7  UNL     1      35.091  -4.942  12.068  1.00  0.00     0.175 A
HETATM    9  N5  UNL     1      36.171  -4.917  12.871  1.00  0.00    -0.318 N
HETATM   10  C9  UNL     1      36.838  -6.089  13.463  1.00  0.00     0.159 C
HETATM   11  C10 UNL     1      35.914  -1.544  11.879  1.00  0.00     0.101 C
HETATM   12  C11 UNL     1      36.574  -0.558  12.615  1.00  0.00     0.130 C
HETATM   13  N8  UNL     1      37.227  -0.809  13.785  1.00  0.00    -0.321 N
ATOM     14  H8  UNL     1      37.607   0.026  14.232  1.00  0.00     0.169 HD
ENDROOT
BRANCH   1  15
HETATM   15  S1  UNL     1      37.759  -2.026  16.180  1.00  0.00    -0.061 SA
BRANCH  15  16
HETATM   16  C3  UNL     1      38.447  -0.581  16.934  1.00  0.00     0.108 C
HETATM   17  C2  UNL     1      37.615   0.591  17.037  1.00  0.00     0.141 C
BRANCH  17  18
HETATM   18  N1  UNL     1      37.822   1.935  16.952  1.00  0.00    -0.375 N
HETATM   19  C1  UNL     1      37.574   2.597  15.638  1.00  0.00     0.148 C
ATOM     20  H1  UNL     1      38.137   2.471  17.760  1.00  0.00     0.161 HD
ENDBRANCH  17  18
BRANCH  17  21
HETATM   21  O1  UNL     1      36.302   0.340  17.299  1.00  0.00    -0.346 OA
ATOM     22  H1  UNL     1      35.885  -0.033  16.532  1.00  0.00     0.219 HD
ENDBRANCH  17  21
ENDBRANCH  15  16
ENDBRANCH   1  15
BRANCH  12  23
HETATM   23  N7  UNL     1      36.607   0.574  12.147  1.00  0.00    -0.384 N
ATOM     24  H72 UNL     1      36.567   0.692  11.135  1.00  0.00     0.157 HD
ATOM     25  H71 UNL     1      36.628   1.357  12.801  1.00  0.00     0.157 HD
ENDBRANCH  12  23
BRANCH  11  26
HETATM   26  N6  UNL     1      35.484  -1.133  10.715  1.00  0.00    -0.394 N
ATOM     27  H62 UNL     1      35.823  -1.691   9.931  1.00  0.00     0.156 HD
ATOM     28  H61 UNL     1      34.830  -0.351  10.743  1.00  0.00     0.156 HD
ENDBRANCH  11  26
BRANCH   8  29
HETATM   29  C8  UNL     1      34.275  -6.154  11.877  1.00  0.00     0.299 C
HETATM   30  N4  UNL     1      33.091  -6.337  12.624  1.00  0.00    -0.054 NA
HETATM   31  O2  UNL     1      34.654  -7.012  11.017  1.00  0.00    -0.268 OA
ENDBRANCH   8  29
TORSDOF 7
ENDMDL