MODEL 4
REMARK VINA RESULT: -6.372760195      2.268      3.002
REMARK  6 active torsions:
REMARK  status: ('A' for Active; 'I' for Inactive)
REMARK    1  A    between atoms: C6_8  and  C7_9
REMARK    2  A    between atoms: C8_12  and  C9_13
REMARK    3  A    between atoms: C9_13  and  C10_14
REMARK    4  A    between atoms: C10_14  and  N4_15
REMARK    5  A    between atoms: C10_14  and  C11_19
REMARK    6  A    between atoms: C12_27  and  N8_28
ROOT
HETATM    1  N1  UNL     1      35.362  -9.401  11.228  1.00  0.00    -0.191 NA
HETATM    2  C1  UNL     1      35.314  -8.283  11.529  1.00  0.00     0.105 C
HETATM    3  C2  UNL     1      35.262  -6.896  11.892  1.00  0.00     0.112 A
HETATM    4  C3  UNL     1      36.451  -6.249  12.258  1.00  0.00     0.100 A
HETATM    5  C4  UNL     1      37.668  -6.993  12.157  1.00  0.00     0.103 C
HETATM    6  N2  UNL     1      38.643  -7.627  12.034  1.00  0.00    -0.191 NA
HETATM    7  C5  UNL     1      36.448  -4.924  12.613  1.00  0.00     0.114 A
HETATM    8  C6  UNL     1      37.414  -4.019  12.995  1.00  0.00     0.085 A
HETATM    9  C8  UNL     1      36.748  -2.785  13.192  1.00  0.00     0.048 A
HETATM   10  N5  UNL     1      35.480  -3.038  12.931  1.00  0.00    -0.282 N
ATOM     11  H5  UNL     1      34.746  -2.333  12.990  1.00  0.00     0.189 HD
HETATM   12  N6  UNL     1      35.255  -4.271  12.590  1.00  0.00    -0.193 N
HETATM   13  N7  UNL     1      34.117  -4.883  12.242  1.00  0.00    -0.263 N
ATOM     14  H7  UNL     1      33.247  -4.350  12.241  1.00  0.00     0.190 HD
HETATM   15  C12 UNL     1      34.091  -6.176  11.893  1.00  0.00     0.138 A
ENDROOT
BRANCH  15  16
HETATM   16  N8  UNL     1      33.014  -6.795  11.555  1.00  0.00    -0.383 N
ATOM     17  H82 UNL     1      32.364  -7.198  12.229  1.00  0.00     0.157 HD
ATOM     18  H81 UNL     1      32.815  -6.879  10.558  1.00  0.00     0.157 HD
ENDBRANCH  15  16
BRANCH   8  19
HETATM   19  C7  UNL     1      38.811  -4.224  13.302  1.00  0.00     0.269 C
HETATM   20  N3  UNL     1      39.169  -4.688  14.631  1.00  0.00    -0.057 NA
HETATM   21  O1  UNL     1      39.705  -4.018  12.480  1.00  0.00    -0.271 OA
ENDBRANCH   8  19
BRANCH   9  22
HETATM   22  C9  UNL     1      37.467  -1.586  13.599  1.00  0.00     0.103 C
BRANCH  22  23
HETATM   23  C10 UNL     1      37.839  -0.682  12.455  1.00  0.00     0.289 C
BRANCH  23  24
HETATM   24  N4  UNL     1      38.562  -1.322  11.403  1.00  0.00    -0.065 N
ATOM     25  H43 UNL     1      39.246  -1.973  11.788  1.00  0.00     0.275 HD
ATOM     26  H42 UNL     1      37.958  -1.976  10.904  1.00  0.00     0.275 HD
ATOM     27  H41 UNL     1      39.011  -0.683  10.746  1.00  0.00     0.275 HD
ENDBRANCH  23  24
BRANCH  23  28
HETATM   28  C11 UNL     1      36.706   0.072  11.910  1.00  0.00     0.204 C
HETATM   29  O2  UNL     1      36.332  -0.137  10.736  1.00  0.00    -0.646 OA
HETATM   30  O3  UNL     1      36.000   1.025  12.624  1.00  0.00    -0.646 OA
ENDBRANCH  23  28
ENDBRANCH  22  23
ENDBRANCH   9  22
TORSDOF 6
ENDMDL