MODEL 3
REMARK VINA RESULT: -5.600373224      3.048      4.161
REMARK  10 active torsions:
REMARK  status: ('A' for Active; 'I' for Inactive)
REMARK    1  A    between atoms: C2_2  and  O1_4
REMARK    2  A    between atoms: C2_2  and  C4_6
REMARK    3  A    between atoms: C4_6  and  O3_8
REMARK    4  A    between atoms: O3_8  and  C5_9
REMARK    5  A    between atoms: C7_11  and  O4_12
REMARK    6  A    between atoms: O4_12  and  C8_13
REMARK    7  A    between atoms: C9_15  and  N1_16
REMARK    8  A    between atoms: C11_21  and  N2_22
REMARK    9  A    between atoms: C12_26  and  N3_27
REMARK   10  A    between atoms: C14_32  and  N4_33
ROOT
HETATM    1  C5  UNL     1      37.143  -2.183  13.138  1.00  0.00     0.164 C
HETATM    2  C6  UNL     1      36.084  -3.044  13.769  1.00  0.00     0.068 C
HETATM    3  C7  UNL     1      35.535  -3.955  12.693  1.00  0.00     0.157 C
HETATM    4  C12 UNL     1      34.840  -3.168  11.633  1.00  0.00     0.214 C
HETATM    5  C13 UNL     1      35.198  -1.703  11.634  1.00  0.00     0.070 C
HETATM    6  C14 UNL     1      36.641  -1.442  11.927  1.00  0.00     0.215 C
ENDROOT
BRANCH   3   7
HETATM    7  O4  UNL     1      34.637  -4.860  13.253  1.00  0.00    -0.352 OA
BRANCH   7   8
HETATM    8  C8  UNL     1      35.082  -6.139  13.042  1.00  0.00     0.293 C
HETATM    9  O5  UNL     1      34.973  -6.868  14.204  1.00  0.00    -0.327 OA
HETATM   10  C9  UNL     1      34.014  -7.829  14.064  1.00  0.00     0.323 C
HETATM   11  C10 UNL     1      34.178  -8.241  12.595  1.00  0.00     0.099 C
HETATM   12  C11 UNL     1      34.263  -6.863  11.972  1.00  0.00     0.242 C
BRANCH  10  13
HETATM   13  N1  UNL     1      34.187  -8.945  14.944  1.00  0.00    -0.053 N
ATOM     14  H13 UNL     1      34.499  -9.767  14.427  1.00  0.00     0.277 HD
ATOM     15  H12 UNL     1      34.998  -8.806  15.548  1.00  0.00     0.277 HD
ATOM     16  H11 UNL     1      33.358  -9.162  15.498  1.00  0.00     0.277 HD
ENDBRANCH  10  13
BRANCH  12  17
HETATM   17  N2  UNL     1      32.922  -6.318  11.889  1.00  0.00    -0.070 N
ATOM     18  H23 UNL     1      32.709  -5.718  12.686  1.00  0.00     0.274 HD
ATOM     19  H22 UNL     1      32.843  -5.623  11.146  1.00  0.00     0.274 HD
ATOM     20  H21 UNL     1      32.232  -7.061  11.783  1.00  0.00     0.274 HD
ENDBRANCH  12  17
ENDBRANCH   7   8
ENDBRANCH   3   7
BRANCH   4  21
HETATM   21  N3  UNL     1      35.113  -3.794  10.354  1.00  0.00    -0.072 N
ATOM     22  H33 UNL     1      34.810  -4.768  10.318  1.00  0.00     0.274 HD
ATOM     23  H32 UNL     1      34.518  -3.438   9.606  1.00  0.00     0.274 HD
ATOM     24  H31 UNL     1      36.107  -3.683  10.152  1.00  0.00     0.274 HD
ENDBRANCH   4  21
BRANCH   1  25
HETATM   25  O3  UNL     1      37.602  -1.284  14.157  1.00  0.00    -0.311 OA
BRANCH  25  26
HETATM   26  C4  UNL     1      38.523  -1.642  15.097  1.00  0.00     0.293 C
HETATM   27  O2  UNL     1      39.654  -2.068  14.765  1.00  0.00    -0.262 OA
BRANCH  26  28
HETATM   28  C2  UNL     1      38.200  -1.531  16.538  1.00  0.00     0.138 C
HETATM   29  C1  UNL     1      38.901  -0.261  17.036  1.00  0.00     0.056 C
HETATM   30  C3  UNL     1      38.749  -2.672  17.336  1.00  0.00     0.056 C
BRANCH  28  31
HETATM   31  O1  UNL     1      36.837  -1.325  16.742  1.00  0.00    -0.380 OA
ATOM     32  H1  UNL     1      36.447  -2.189  16.800  1.00  0.00     0.211 HD
ENDBRANCH  28  31
ENDBRANCH  26  28
ENDBRANCH  25  26
ENDBRANCH   1  25
BRANCH   6  33
HETATM   33  N4  UNL     1      36.792  -0.021  12.190  1.00  0.00    -0.072 N
ATOM     34  H43 UNL     1      36.158   0.319  12.915  1.00  0.00     0.274 HD
ATOM     35  H42 UNL     1      37.667   0.205  12.663  1.00  0.00     0.274 HD
ATOM     36  H41 UNL     1      36.681   0.469  11.303  1.00  0.00     0.274 HD
ENDBRANCH   6  33
TORSDOF 10
ENDMDL