MODEL 5
REMARK VINA RESULT: -6.418126565      6.255      9.664
REMARK  6 active torsions:
REMARK  status: ('A' for Active; 'I' for Inactive)
REMARK    1  A    between atoms: N1_2  and  C2_4
REMARK    2  A    between atoms: C3_7  and  N3_8
REMARK       I    between atoms: N3_8  and  C5_10
REMARK    3  A    between atoms: C6_15  and  N6_16
REMARK    4  A    between atoms: C7_19  and  O3_20
REMARK    5  A    between atoms: O3_20  and  N7_21
REMARK    6  A    between atoms: N7_21  and  C8_23
ROOT
HETATM    1  C2  UNL     1      40.143   2.509  12.479  1.00  0.00     0.681 A
HETATM    2  N2  UNL     1      39.471   1.359  12.450  1.00  0.00    -0.174 N
ATOM      3  H2  UNL     1      39.921   0.563  11.997  1.00  0.00     0.186 HD
HETATM    4  C3  UNL     1      38.229   1.162  12.979  1.00  0.00     0.163 A
HETATM    5  C6  UNL     1      37.646   2.241  13.583  1.00  0.00     0.201 A
HETATM    6  C7  UNL     1      38.343   3.463  13.619  1.00  0.00     0.222 A
HETATM    7  N12 UNL     1      39.579   3.570  13.065  1.00  0.00    -0.166 N
ATOM      8  H12 UNL     1      40.077   4.460  13.095  1.00  0.00     0.186 HD
ENDROOT
BRANCH   6   9
HETATM    9  O3  UNL     1      37.760   4.550  14.224  1.00  0.00    -0.202 OA
BRANCH   9  10
HETATM   10  N7  UNL     1      37.402   5.684  13.558  1.00  0.00    -0.086 N
ATOM     11  H7  UNL     1      38.134   6.306  13.213  1.00  0.00     0.214 HD
BRANCH  10  12
HETATM   12  C8  UNL     1      36.159   5.998  13.347  1.00  0.00     0.734 A
HETATM   13  N8  UNL     1      35.105   5.197  13.230  1.00  0.00    -0.113 N
HETATM   14  N9  UNL     1      34.035   5.961  13.021  1.00  0.00    -0.213 N
ATOM     15  H8  UNL     1      35.114   4.180  13.289  1.00  0.00     0.207 HD
HETATM   16  N10 UNL     1      34.380   7.227  13.003  1.00  0.00    -0.213 N
ATOM     17  H9  UNL     1      33.085   5.612  12.893  1.00  0.00     0.210 HD
HETATM   18  N11 UNL     1      35.706   7.244  13.207  1.00  0.00    -0.113 N
ATOM     19  H10 UNL     1      33.768   8.031  12.863  1.00  0.00     0.210 HD
ATOM     20  H11 UNL     1      36.282   8.085  13.249  1.00  0.00     0.207 HD
ENDBRANCH  10  12
ENDBRANCH   9  10
ENDBRANCH   6   9
BRANCH   5  21
HETATM   21  N6  UNL     1      36.363   2.204  14.219  1.00  0.00    -0.107 N
HETATM   22  O1  UNL     1      35.307   2.407  13.565  1.00  0.00    -0.531 OA
HETATM   23  O2  UNL     1      36.210   1.911  15.548  1.00  0.00    -0.531 OA
ENDBRANCH   5  21
BRANCH   4  24
HETATM   24  N3  UNL     1      37.609  -0.103  12.811  1.00  0.00    -0.309 N
HETATM   25  C4  UNL     1      36.707  -0.271  11.662  1.00  0.00     0.160 C
HETATM   26  C5  UNL     1      37.726  -1.193  13.677  1.00  0.00     0.189 C
HETATM   27  N4  UNL     1      37.202  -1.135  14.880  1.00  0.00    -0.373 N
HETATM   28  N5  UNL     1      38.358  -2.408  13.354  1.00  0.00    -0.064 NA
ATOM     29  H42 UNL     1      36.744  -0.254  15.114  1.00  0.00     0.158 HD
ATOM     30  H41 UNL     1      37.287  -1.931  15.511  1.00  0.00     0.158 HD
ENDBRANCH   4  24
BRANCH   1  31
HETATM   31  N1  UNL     1      41.291   2.560  11.944  1.00  0.00    -0.230 N
HETATM   32  C1  UNL     1      42.580   2.470  12.528  1.00  0.00     0.165 C
ATOM     33  H1  UNL     1      41.287   2.686  10.932  1.00  0.00     0.177 HD
ENDBRANCH   1  31
TORSDOF 6
ENDMDL