MODEL 1
REMARK VINA RESULT: -6.757578932      0.000      0.000
REMARK  6 active torsions:
REMARK  status: ('A' for Active; 'I' for Inactive)
REMARK    1  A    between atoms: O1_2  and  C2_3
REMARK    2  A    between atoms: C6_10  and  N2_11
REMARK    3  A    between atoms: C10_17  and  N4_18
REMARK       I    between atoms: N4_18  and  C11_20
REMARK       I    between atoms: C11_20  and  N5_21
REMARK       I    between atoms: C11_20  and  N6_25
REMARK    4  A    between atoms: C12_31  and  N8_32
REMARK    5  A    between atoms: N8_32  and  N9_34
REMARK    6  A    between atoms: N9_34  and  O3_36
ROOT
HETATM    1  C2  UNL     1      36.026  -5.873  12.732  1.00  0.00     0.114 C
HETATM    2  C3  UNL     1      37.043  -5.592  13.620  1.00  0.00     0.060 C
HETATM    3  C4  UNL     1      37.367  -4.368  14.178  1.00  0.00     0.066 A
HETATM    4  C5  UNL     1      38.364  -4.480  15.115  1.00  0.00     0.272 A
HETATM    5  O2  UNL     1      38.859  -5.623  15.363  1.00  0.00    -0.267 OA
HETATM    6  N1  UNL     1      38.768  -3.376  15.725  1.00  0.00    -0.155 N
ATOM      7  H1  UNL     1      39.509  -3.451  16.422  1.00  0.00     0.187 HD
HETATM    8  C6  UNL     1      38.244  -2.141  15.468  1.00  0.00     0.683 A
HETATM    9  N3  UNL     1      37.273  -2.067  14.548  1.00  0.00    -0.187 N
ATOM     10  H3  UNL     1      36.874  -1.150  14.347  1.00  0.00     0.184 HD
HETATM   11  C9  UNL     1      36.789  -3.132  13.869  1.00  0.00     0.108 A
HETATM   12  C10 UNL     1      35.795  -2.821  12.972  1.00  0.00     0.134 C
HETATM   13  N7  UNL     1      35.066  -3.659  12.229  1.00  0.00    -0.324 N
ATOM     14  H7  UNL     1      34.299  -3.227  11.713  1.00  0.00     0.169 HD
HETATM   15  C12 UNL     1      35.195  -5.008  12.058  1.00  0.00     0.157 C
ENDROOT
BRANCH  12  16
HETATM   16  N4  UNL     1      35.540  -1.599  12.838  1.00  0.00    -0.325 N
HETATM   17  C11 UNL     1      36.298  -0.575  12.213  1.00  0.00     0.481 C
HETATM   18  N5  UNL     1      35.905   0.764  12.636  1.00  0.00    -0.033 N
HETATM   19  N6  UNL     1      36.302  -0.593  10.785  1.00  0.00    -0.033 N
ATOM     20  H53 UNL     1      34.907   0.912  12.494  1.00  0.00     0.278 HD
ATOM     21  H52 UNL     1      35.945   0.851  13.651  1.00  0.00     0.278 HD
ATOM     22  H51 UNL     1      36.450   1.500  12.186  1.00  0.00     0.278 HD
ATOM     23  H63 UNL     1      36.608  -1.506  10.449  1.00  0.00     0.278 HD
ATOM     24  H62 UNL     1      35.345  -0.581  10.434  1.00  0.00     0.278 HD
ATOM     25  H61 UNL     1      36.847   0.143  10.335  1.00  0.00     0.278 HD
ATOM     26  H4  UNL     1      34.653  -1.295  13.239  1.00  0.00     0.165 HD
ENDBRANCH  12  16
BRANCH  15  27
HETATM   27  N8  UNL     1      34.454  -5.556  11.156  1.00  0.00    -0.264 N
ATOM     28  H8  UNL     1      34.707  -5.399  10.181  1.00  0.00     0.190 HD
BRANCH  27  29
HETATM   29  N9  UNL     1      33.348  -6.337  11.407  1.00  0.00    -0.208 N
ATOM     30  H9  UNL     1      32.966  -6.895  10.643  1.00  0.00     0.215 HD
BRANCH  29  31
HETATM   31  O3  UNL     1      32.784  -6.398  12.530  1.00  0.00    -0.274 OA
ATOM     32  H3  UNL     1      33.219  -6.705  13.317  1.00  0.00     0.246 HD
ENDBRANCH  29  31
ENDBRANCH  27  29
ENDBRANCH  15  27
BRANCH   8  33
HETATM   33  N2  UNL     1      38.720  -0.994  16.154  1.00  0.00    -0.226 N
HETATM   34  C7  UNL     1      39.788  -1.080  17.110  1.00  0.00     0.168 C
HETATM   35  C8  UNL     1      38.127   0.297  15.901  1.00  0.00     0.168 C
ENDBRANCH   8  33
BRANCH   1  36
HETATM   36  O1  UNL     1      35.837  -7.221  12.505  1.00  0.00    -0.352 OA
HETATM   37  C1  UNL     1      35.735  -8.173  13.548  1.00  0.00     0.210 C
ENDBRANCH   1  36
TORSDOF 6
ENDMDL