MODEL 4
REMARK VINA RESULT: -5.624004135      2.073      4.970
REMARK  7 active torsions:
REMARK  status: ('A' for Active; 'I' for Inactive)
REMARK    1  A    between atoms: O1_2  and  C2_3
REMARK    2  A    between atoms: C4_5  and  O2_6
REMARK    3  A    between atoms: C5_8  and  O3_9
REMARK    4  A    between atoms: O3_9  and  C6_10
REMARK       I    between atoms: C6_10  and  N1_12
REMARK    5  A    between atoms: N1_12  and  N2_14
REMARK    6  A    between atoms: C7_17  and  S1_18
REMARK    7  A    between atoms: C8_22  and  C9_23
ROOT
HETATM    1  C2  UNL     1      35.244  -4.920  12.034  1.00  0.00     0.087 A
HETATM    2  C3  UNL     1      35.017  -3.579  11.912  1.00  0.00     0.077 A
HETATM    3  C4  UNL     1      35.922  -2.665  12.393  1.00  0.00     0.104 A
HETATM    4  C5  UNL     1      37.082  -3.067  13.012  1.00  0.00     0.139 A
HETATM    5  C7  UNL     1      37.327  -4.433  13.144  1.00  0.00     0.135 A
HETATM    6  C8  UNL     1      36.427  -5.357  12.663  1.00  0.00     0.089 A
ENDROOT
BRANCH   4   7
HETATM    7  O3  UNL     1      37.971  -2.098  13.485  1.00  0.00    -0.256 OA
BRANCH   7   8
HETATM    8  C6  UNL     1      37.617  -1.364  14.639  1.00  0.00     0.384 C
HETATM    9  O4  UNL     1      37.669  -0.112  14.554  1.00  0.00    -0.236 OA
HETATM   10  N1  UNL     1      37.220  -2.039  15.835  1.00  0.00    -0.252 N
ATOM     11  H1  UNL     1      37.183  -3.057  15.885  1.00  0.00     0.191 HD
BRANCH  10  12
HETATM   12  N2  UNL     1      36.884  -1.242  16.935  1.00  0.00    -0.341 N
ATOM     13  H22 UNL     1      37.323  -0.331  17.068  1.00  0.00     0.177 HD
ATOM     14  H21 UNL     1      36.191  -1.614  17.584  1.00  0.00     0.177 HD
ENDBRANCH  10  12
ENDBRANCH   7   8
ENDBRANCH   4   7
BRANCH   3  15
HETATM   15  O2  UNL     1      35.703  -1.286  12.273  1.00  0.00    -0.358 OA
ATOM     16  H2  UNL     1      35.911  -0.687  12.981  1.00  0.00     0.217 HD
ENDBRANCH   3  15
BRANCH   5  17
HETATM   17  S1  UNL     1      38.791  -4.929  13.964  1.00  0.00     0.141 S
HETATM   18  O5  UNL     1      38.489  -4.963  15.478  1.00  0.00    -0.591 OA
HETATM   19  O6  UNL     1      39.180  -6.314  13.631  1.00  0.00    -0.591 OA
HETATM   20  O7  UNL     1      40.060  -3.865  13.737  1.00  0.00    -0.591 OA
ENDBRANCH   5  17
BRANCH   6  21
HETATM   21  C9  UNL     1      36.556  -6.787  12.716  1.00  0.00     0.269 C
HETATM   22  N3  UNL     1      37.023  -7.640  11.713  1.00  0.00    -0.057 NA
HETATM   23  O8  UNL     1      36.194  -7.375  13.810  1.00  0.00    -0.271 OA
ENDBRANCH   6  21
BRANCH   1  24
HETATM   24  O1  UNL     1      34.320  -5.835  11.543  1.00  0.00    -0.355 OA
HETATM   25  C1  UNL     1      33.178  -6.139  12.319  1.00  0.00     0.210 C
ENDBRANCH   1  24
TORSDOF 7
ENDMDL