MODEL 5
REMARK VINA RESULT: -5.854553643      2.356      3.588
REMARK  6 active torsions:
REMARK  status: ('A' for Active; 'I' for Inactive)
REMARK    1  A    between atoms: S1_2  and  C2_3
REMARK    2  A    between atoms: C3_4  and  C4_5
REMARK       I    between atoms: C4_5  and  N1_7
REMARK    3  A    between atoms: N1_7  and  N2_8
REMARK    4  A    between atoms: N2_8  and  C5_10
REMARK    5  A    between atoms: C8_20  and  S2_21
REMARK    6  A    between atoms: S2_21  and  N7_22
ROOT
HETATM    1  C2  UNL     1      37.358  -2.317  13.891  1.00  0.00     0.059 A
HETATM    2  C3  UNL     1      36.814  -3.487  13.521  1.00  0.00     0.136 A
HETATM    3  N6  UNL     1      35.966  -3.316  12.466  1.00  0.00    -0.352 N
ATOM      4  H6  UNL     1      35.440  -4.055  12.000  1.00  0.00     0.166 HD
HETATM    5  C6  UNL     1      35.938  -2.015  12.142  1.00  0.00     0.030 A
HETATM    6  C7  UNL     1      35.023  -1.427  11.114  1.00  0.00     0.070 C
HETATM    7  C8  UNL     1      36.788  -1.347  12.983  1.00  0.00     0.120 A
ENDROOT
BRANCH   2   8
HETATM    8  C4  UNL     1      36.932  -4.847  14.183  1.00  0.00     0.363 C
HETATM    9  O1  UNL     1      37.794  -4.835  15.081  1.00  0.00    -0.247 OA
HETATM   10  N1  UNL     1      36.134  -5.878  13.706  1.00  0.00    -0.281 NA
BRANCH  10  11
HETATM   11  N2  UNL     1      35.386  -6.867  13.267  1.00  0.00    -0.226 N
ATOM     12  H2  UNL     1      35.377  -7.713  13.837  1.00  0.00     0.199 HD
BRANCH  11  13
HETATM   13  C5  UNL     1      34.627  -6.892  12.142  1.00  0.00     0.343 A
HETATM   14  N3  UNL     1      33.284  -7.390  12.416  1.00  0.00    -0.284 N
HETATM   15  N4  UNL     1      32.887  -6.333  11.857  1.00  0.00    -0.244 N
ATOM     16  H3  UNL     1      32.863  -8.210  12.854  1.00  0.00     0.185 HD
HETATM   17  N5  UNL     1      34.143  -5.717  11.528  1.00  0.00    -0.075 NA
ATOM     18  H4  UNL     1      31.937  -6.004  11.685  1.00  0.00     0.203 HD
ENDBRANCH  11  13
ENDBRANCH  10  11
ENDBRANCH   2   8
BRANCH   1  19
HETATM   19  S1  UNL     1      38.500  -1.911  15.150  1.00  0.00    -0.130 SA
HETATM   20  C1  UNL     1      37.887  -1.504  16.754  1.00  0.00     0.095 C
ENDBRANCH   1  19
BRANCH   7  21
HETATM   21  S2  UNL     1      37.178   0.302  12.846  1.00  0.00     0.260 S
HETATM   22  O2  UNL     1      38.644   0.447  12.558  1.00  0.00    -0.201 OA
HETATM   23  O3  UNL     1      36.410   1.026  11.804  1.00  0.00    -0.201 OA
BRANCH  21  24
HETATM   24  N7  UNL     1      36.905   1.131  14.363  1.00  0.00    -0.324 N
ATOM     25  H72 UNL     1      36.397   2.012  14.445  1.00  0.00     0.169 HD
ATOM     26  H71 UNL     1      37.321   0.614  15.137  1.00  0.00     0.169 HD
ENDBRANCH  21  24
ENDBRANCH   7  21
TORSDOF 6
ENDMDL