MODEL 5
REMARK VINA RESULT: -5.670484938      3.924      6.767
REMARK  9 active torsions:
REMARK  status: ('A' for Active; 'I' for Inactive)
REMARK    1  A    between atoms: S1_2  and  C2_5
REMARK    2  A    between atoms: C3_7  and  C4_8
REMARK    3  A    between atoms: C4_8  and  C5_9
REMARK    4  A    between atoms: C5_9  and  O3_10
REMARK    5  A    between atoms: C5_9  and  O4_12
REMARK    6  A    between atoms: C7_15  and  C8_16
REMARK    7  A    between atoms: C8_16  and  N1_17
REMARK    8  A    between atoms: C8_16  and  N3_22
REMARK    9  A    between atoms: N1_17  and  N2_19
REMARK       I    between atoms: N3_22  and  C9_24
ROOT
HETATM    1  C2  UNL     1      36.439  -5.317  12.593  1.00  0.00     0.113 A
HETATM    2  S2  UNL     1      36.985  -3.731  12.910  1.00  0.00    -0.082 SA
HETATM    3  C3  UNL     1      35.680  -2.850  12.264  1.00  0.00    -0.011 A
HETATM    4  C6  UNL     1      34.846  -3.820  11.815  1.00  0.00     0.032 A
HETATM    5  C7  UNL     1      35.232  -5.118  11.981  1.00  0.00     0.039 A
ENDROOT
BRANCH   5   6
HETATM    6  C8  UNL     1      34.420  -6.288  11.560  1.00  0.00     0.135 C
BRANCH   6   7
HETATM    7  N1  UNL     1      33.356  -6.615  12.180  1.00  0.00    -0.291 N
ATOM      8  H1  UNL     1      33.412  -7.142  13.052  1.00  0.00     0.188 HD
BRANCH   7   9
HETATM    9  N2  UNL     1      32.123  -6.250  11.663  1.00  0.00    -0.344 N
ATOM     10  H22 UNL     1      31.817  -6.649  10.776  1.00  0.00     0.176 HD
ATOM     11  H21 UNL     1      31.538  -5.590  12.175  1.00  0.00     0.176 HD
ENDBRANCH   7   9
ENDBRANCH   6   7
BRANCH   6  12
HETATM   12  N3  UNL     1      34.843  -7.038  10.442  1.00  0.00    -0.295 N
HETATM   13  C9  UNL     1      34.756  -8.435  10.288  1.00  0.00     0.334 C
HETATM   14  N4  UNL     1      35.214  -9.054   9.112  1.00  0.00    -0.040 NA
HETATM   15  O5  UNL     1      34.275  -9.140  11.190  1.00  0.00    -0.251 OA
ATOM     16  H3  UNL     1      35.252  -6.515   9.667  1.00  0.00     0.171 HD
ENDBRANCH   6  12
ENDBRANCH   5   6
BRANCH   1  17
HETATM   17  S1  UNL     1      37.304  -6.787  13.013  1.00  0.00     0.179 S
HETATM   18  C1  UNL     1      38.760  -6.322  13.941  1.00  0.00     0.167 C
HETATM   19  O1  UNL     1      36.430  -7.562  13.961  1.00  0.00    -0.222 OA
HETATM   20  O2  UNL     1      37.648  -7.632  11.853  1.00  0.00    -0.222 OA
ENDBRANCH   1  17
BRANCH   3  21
HETATM   21  C4  UNL     1      35.490  -1.350  12.204  1.00  0.00     0.106 C
BRANCH  21  22
HETATM   22  C5  UNL     1      36.692  -0.691  11.577  1.00  0.00     0.258 C
BRANCH  22  23
HETATM   23  O3  UNL     1      37.097   0.323  12.444  1.00  0.00    -0.371 OA
ATOM     24  H3  UNL     1      38.016   0.487  12.268  1.00  0.00     0.212 HD
ENDBRANCH  22  23
BRANCH  22  25
HETATM   25  O4  UNL     1      36.441  -0.159  10.338  1.00  0.00    -0.371 OA
ATOM     26  H4  UNL     1      37.111  -0.360   9.695  1.00  0.00     0.212 HD
ENDBRANCH  22  25
ENDBRANCH  21  22
ENDBRANCH   3  21
TORSDOF 9
ENDMDL