MODEL 5
REMARK VINA RESULT: -5.950773375      2.973      6.488
REMARK  7 active torsions:
REMARK  status: ('A' for Active; 'I' for Inactive)
REMARK    1  A    between atoms: O1_2  and  C2_3
REMARK    2  A    between atoms: C2_3  and  N1_4
REMARK    3  A    between atoms: C2_3  and  C3_8
REMARK       I    between atoms: C3_8  and  N2_10
REMARK    4  A    between atoms: N2_10  and  C4_12
REMARK    5  A    between atoms: C4_12  and  O3_13
REMARK    6  A    between atoms: C4_12  and  C5_15
REMARK    7  A    between atoms: C10_27  and  N7_28
ROOT
HETATM    1  C5  UNL     1      38.403   4.791  23.085  1.00  0.00     0.084 A
HETATM    2  C6  UNL     1      39.334   5.880  22.900  1.00  0.00     0.134 A
HETATM    3  N3  UNL     1      38.882   7.075  22.288  1.00  0.00    -0.082 NA
HETATM    4  N4  UNL     1      40.605   5.816  23.279  1.00  0.00    -0.329 N
ATOM      5  H4  UNL     1      41.216   6.618  23.121  1.00  0.00     0.168 HD
HETATM    6  C7  UNL     1      41.095   4.720  23.862  1.00  0.00     0.123 A
HETATM    7  N5  UNL     1      42.334   4.710  24.211  1.00  0.00    -0.384 N
ATOM      8  H51 UNL     1      42.708   3.873  24.658  1.00  0.00     0.157 HD
ATOM      9  H52 UNL     1      42.957   5.503  24.061  1.00  0.00     0.157 HD
HETATM   10  C8  UNL     1      40.253   3.648  24.066  1.00  0.00     0.115 A
HETATM   11  C9  UNL     1      40.763   2.489  24.703  1.00  0.00     0.105 C
HETATM   12  N6  UNL     1      41.205   1.560  25.235  1.00  0.00    -0.191 NA
HETATM   13  C10 UNL     1      38.889   3.680  23.673  1.00  0.00     0.073 A
ENDROOT
BRANCH  13  14
HETATM   14  N7  UNL     1      38.148   2.504  23.940  1.00  0.00    -0.375 N
HETATM   15  C11 UNL     1      38.322   1.350  23.043  1.00  0.00     0.149 C
HETATM   16  C12 UNL     1      37.617   0.177  23.666  1.00  0.00     0.187 C
HETATM   17  O4  UNL     1      36.289   0.427  23.877  1.00  0.00    -0.388 OA
HETATM   18  C13 UNL     1      36.004   1.580  24.546  1.00  0.00     0.187 C
HETATM   19  C14 UNL     1      37.187   2.387  24.995  1.00  0.00     0.149 C
ENDBRANCH  13  14
BRANCH   1  20
HETATM   20  C4  UNL     1      37.075   5.008  22.626  1.00  0.00     0.158 C
BRANCH  20  21
HETATM   21  N2  UNL     1      36.183   6.044  22.782  1.00  0.00    -0.303 N
HETATM   22  C3  UNL     1      35.103   5.966  23.760  1.00  0.00     0.280 C
HETATM   23  O2  UNL     1      34.990   4.953  24.458  1.00  0.00    -0.268 OA
ATOM     24  H2  UNL     1      36.280   6.880  22.205  1.00  0.00     0.171 HD
BRANCH  22  25
HETATM   25  C2  UNL     1      34.167   7.089  23.904  1.00  0.00     0.411 C
BRANCH  25  26
HETATM   26  O1  UNL     1      33.930   7.733  22.716  1.00  0.00    -0.357 OA
HETATM   27  C1  UNL     1      34.326   9.061  22.770  1.00  0.00     0.204 C
ENDBRANCH  25  26
BRANCH  25  28
HETATM   28  N1  UNL     1      32.942   6.605  24.533  1.00  0.00    -0.044 N
ATOM     29  H13 UNL     1      32.315   7.378  24.757  1.00  0.00     0.278 HD
ATOM     30  H12 UNL     1      32.357   6.108  23.862  1.00  0.00     0.278 HD
ATOM     31  H11 UNL     1      33.125   6.031  25.356  1.00  0.00     0.278 HD
ENDBRANCH  25  28
ENDBRANCH  22  25
ENDBRANCH  20  21
BRANCH  20  32
HETATM   32  O3  UNL     1      36.570   4.030  21.900  1.00  0.00    -0.345 OA
ATOM     33  H3  UNL     1      36.997   3.959  21.054  1.00  0.00     0.219 HD
ENDBRANCH  20  32
ENDBRANCH   1  20
TORSDOF 7
ENDMDL