MODEL 2
REMARK VINA RESULT: -6.447049256      1.204      1.525
REMARK  7 active torsions:
REMARK  status: ('A' for Active; 'I' for Inactive)
REMARK    1  A    between atoms: N1_2  and  C3_4
REMARK    2  A    between atoms: C3_4  and  N2_5
REMARK       I    between atoms: N2_5  and  C4_7
REMARK    3  A    between atoms: C4_7  and  O2_9
REMARK    4  A    between atoms: O2_9  and  N3_10
REMARK    5  A    between atoms: C6_14  and  C7_15
REMARK    6  A    between atoms: C11_20  and  C12_21
REMARK       I    between atoms: C12_21  and  N4_23
REMARK       I    between atoms: N4_23  and  C13_25
REMARK    7  A    between atoms: N6_27  and  O5_29
ROOT
HETATM    1  C3  UNL     1      38.059  -1.706  21.082  1.00  0.00     0.278 C
HETATM    2  C5  UNL     1      39.454  -1.796  21.614  1.00  0.00     0.099 C
HETATM    3  C6  UNL     1      39.746  -0.452  22.261  1.00  0.00     0.089 C
HETATM    4  C11 UNL     1      38.443  -0.029  22.668  1.00  0.00     0.293 C
HETATM    5  N7  UNL     1      37.607  -0.358  21.457  1.00  0.00    -0.016 N
ATOM      6  H71 UNL     1      36.600  -0.274  21.602  1.00  0.00     0.283 HD
ATOM      7  H72 UNL     1      37.663   0.330  20.706  1.00  0.00     0.283 HD
ENDROOT
BRANCH   1   8
HETATM    8  N1  UNL     1      38.158  -1.705  19.679  1.00  0.00    -0.373 N
HETATM    9  C1  UNL     1      37.507  -0.746  18.926  1.00  0.00     0.147 C
HETATM   10  C2  UNL     1      38.917  -2.670  19.062  1.00  0.00     0.147 C
ENDBRANCH   1   8
BRANCH   1  11
HETATM   11  N2  UNL     1      37.071  -2.515  21.724  1.00  0.00    -0.285 N
HETATM   12  C4  UNL     1      36.931  -3.189  22.905  1.00  0.00     0.385 C
HETATM   13  O1  UNL     1      37.723  -3.305  23.837  1.00  0.00    -0.236 OA
ATOM     14  H2  UNL     1      36.241  -2.619  21.140  1.00  0.00     0.169 HD
BRANCH  12  15
HETATM   15  O2  UNL     1      35.676  -3.877  23.093  1.00  0.00    -0.188 OA
BRANCH  15  16
HETATM   16  N3  UNL     1      35.442  -5.132  22.617  1.00  0.00    -0.301 N
ATOM     17  H32 UNL     1      36.143  -5.847  22.809  1.00  0.00     0.184 HD
ATOM     18  H31 UNL     1      34.606  -5.376  22.086  1.00  0.00     0.184 HD
ENDBRANCH  15  16
ENDBRANCH  12  15
ENDBRANCH   1  11
BRANCH   3  19
HETATM   19  C7  UNL     1      40.673  -0.849  23.428  1.00  0.00     0.059 A
HETATM   20  C8  UNL     1      41.328  -0.029  24.310  1.00  0.00     0.035 A
HETATM   21  C9  UNL     1      42.029  -0.861  25.154  1.00  0.00     0.027 A
HETATM   22  C10 UNL     1      41.774  -2.182  24.758  1.00  0.00     0.142 A
HETATM   23  O3  UNL     1      40.978  -2.070  23.755  1.00  0.00    -0.327 OA
ENDBRANCH   3  19
BRANCH   4  24
HETATM   24  C12 UNL     1      37.914   1.299  22.936  1.00  0.00     0.256 C
HETATM   25  O4  UNL     1      38.542   2.288  22.431  1.00  0.00    -0.271 OA
HETATM   26  N4  UNL     1      36.780   1.601  23.735  1.00  0.00    -0.298 N
HETATM   27  C13 UNL     1      36.405   2.971  23.964  1.00  0.00     0.214 C
ATOM     28  H4  UNL     1      36.231   0.846  24.147  1.00  0.00     0.171 HD
HETATM   29  N5  UNL     1      37.034   4.048  23.335  1.00  0.00    -0.061 NA
HETATM   30  N6  UNL     1      35.439   3.208  24.814  1.00  0.00    -0.241 N
ATOM     31  H6  UNL     1      35.125   4.157  25.020  1.00  0.00     0.197 HD
BRANCH  30  32
HETATM   32  O5  UNL     1      34.873   2.118  25.411  1.00  0.00    -0.287 OA
ATOM     33  H5  UNL     1      35.450   1.577  25.937  1.00  0.00     0.244 HD
ENDBRANCH  30  32
ENDBRANCH   4  24
TORSDOF 7
ENDMDL