MODEL 2
REMARK VINA RESULT: -6.806584546      1.151      1.414
REMARK  6 active torsions:
REMARK  status: ('A' for Active; 'I' for Inactive)
REMARK    1  A    between atoms: C2_3  and  C3_5
REMARK    2  A    between atoms: C3_5  and  N2_6
REMARK    3  A    between atoms: C4_12  and  N4_13
REMARK    4  A    between atoms: N4_13  and  C5_15
REMARK    5  A    between atoms: C5_15  and  C6_16
REMARK    6  A    between atoms: C5_15  and  C7_19
ROOT
HETATM    1  N1  UNL     1      37.143  -0.151  24.629  1.00  0.00    -0.188 NA
HETATM    2  C1  UNL     1      36.969   0.981  24.475  1.00  0.00     0.143 C
HETATM    3  C2  UNL     1      36.814   2.375  24.327  1.00  0.00     0.290 C
HETATM    4  O1  UNL     1      36.214   3.010  25.262  1.00  0.00    -0.276 OA
ENDROOT
BRANCH   3   5
HETATM    5  C3  UNL     1      37.329   3.133  23.164  1.00  0.00     0.314 A
HETATM    6  N3  UNL     1      36.348   4.083  22.654  1.00  0.00    -0.179 N
HETATM    7  C4  UNL     1      36.656   5.471  22.552  1.00  0.00     0.678 A
ATOM      8  H3  UNL     1      35.428   3.750  22.366  1.00  0.00     0.181 HD
HETATM    9  N5  UNL     1      37.862   5.833  22.867  1.00  0.00    -0.191 N
HETATM   10  C8  UNL     1      38.920   5.021  23.309  1.00  0.00     0.061 A
ATOM     11  H5  UNL     1      38.067   6.829  22.782  1.00  0.00     0.184 HD
HETATM   12  C9  UNL     1      40.142   5.521  23.638  1.00  0.00     0.053 A
HETATM   13  C14 UNL     1      38.646   3.666  23.409  1.00  0.00     0.034 A
HETATM   14  C10 UNL     1      41.167   4.689  24.082  1.00  0.00     0.046 A
HETATM   15  C11 UNL     1      42.416   5.285  24.594  1.00  0.00     0.099 C
HETATM   16  C12 UNL     1      40.917   3.348  24.175  1.00  0.00     0.023 A
HETATM   17  N6  UNL     1      43.382   5.727  25.029  1.00  0.00    -0.191 NA
HETATM   18  C13 UNL     1      39.668   2.832  23.848  1.00  0.00     0.016 A
BRANCH   5  19
HETATM   19  N2  UNL     1      37.392   2.067  22.087  1.00  0.00    -0.039 N
ATOM     20  H23 UNL     1      38.084   2.235  21.357  1.00  0.00     0.278 HD
ATOM     21  H22 UNL     1      37.780   1.174  22.388  1.00  0.00     0.278 HD
ATOM     22  H21 UNL     1      36.426   2.029  21.763  1.00  0.00     0.278 HD
ENDBRANCH   5  19
BRANCH   7  23
HETATM   23  N4  UNL     1      35.771   6.486  22.142  1.00  0.00    -0.202 N
ATOM     24  H4  UNL     1      35.453   6.552  21.175  1.00  0.00     0.179 HD
BRANCH  23  25
HETATM   25  C5  UNL     1      35.322   7.450  23.158  1.00  0.00     0.301 C
BRANCH  25  26
HETATM   26  C6  UNL     1      34.537   8.539  22.511  1.00  0.00     0.208 C
HETATM   27  O2  UNL     1      34.448   8.523  21.278  1.00  0.00    -0.646 OA
HETATM   28  O3  UNL     1      33.953   9.529  23.328  1.00  0.00    -0.646 OA
ENDBRANCH  25  26
BRANCH  25  29
HETATM   29  C7  UNL     1      34.385   6.706  24.101  1.00  0.00     0.208 C
HETATM   30  O4  UNL     1      33.210   6.558  23.713  1.00  0.00    -0.646 OA
HETATM   31  O5  UNL     1      34.793   6.214  25.312  1.00  0.00    -0.646 OA
ENDBRANCH  25  29
ENDBRANCH  23  25
ENDBRANCH   7  23
ENDBRANCH   3   5
TORSDOF 6
ENDMDL