MODEL 1
REMARK VINA RESULT: -5.894072320      0.000      0.000
REMARK  7 active torsions:
REMARK  status: ('A' for Active; 'I' for Inactive)
REMARK    1  A    between atoms: O1_2  and  C2_3
REMARK    2  A    between atoms: C2_3  and  O2_4
REMARK    3  A    between atoms: C2_3  and  N1_6
REMARK    4  A    between atoms: C4_9  and  C5_10
REMARK       I    between atoms: C5_10  and  N2_12
REMARK    5  A    between atoms: N2_12  and  N3_14
REMARK       I    between atoms: N3_14  and  C6_16
REMARK    6  A    between atoms: C11_26  and  O6_27
REMARK    7  A    between atoms: O6_27  and  C12_28
ROOT
HETATM    1  N1  UNL     1      39.015   1.333  23.139  1.00  0.00    -0.342 N
ATOM      2  H1  UNL     1      38.883   2.343  23.175  1.00  0.00     0.164 HD
HETATM    3  C3  UNL     1      38.698   0.718  22.085  1.00  0.00     0.062 C
HETATM    4  C4  UNL     1      38.169   1.651  21.049  1.00  0.00     0.080 C
HETATM    5  C8  UNL     1      38.086   1.436  19.753  1.00  0.00     0.154 C
HETATM    6  O5  UNL     1      38.446   0.337  18.973  1.00  0.00    -0.356 OA
HETATM    7  C9  UNL     1      38.765  -0.994  19.289  1.00  0.00     0.229 C
HETATM    8  C10 UNL     1      39.455  -1.043  20.581  1.00  0.00     0.040 C
HETATM    9  N4  UNL     1      40.664  -1.345  20.606  1.00  0.00    -0.401 N
ATOM     10  H41 UNL     1      41.145  -1.379  21.506  1.00  0.00     0.155 HD
ATOM     11  H42 UNL     1      41.076  -1.540  19.693  1.00  0.00     0.155 HD
HETATM   12  C11 UNL     1      38.844  -0.753  21.937  1.00  0.00     0.231 C
ENDROOT
BRANCH   4  13
HETATM   13  C5  UNL     1      37.738   2.922  21.554  1.00  0.00     0.274 C
HETATM   14  O3  UNL     1      38.590   3.887  21.540  1.00  0.00    -0.266 OA
HETATM   15  N2  UNL     1      36.486   3.277  22.073  1.00  0.00    -0.263 N
ATOM     16  H2  UNL     1      35.759   2.564  22.126  1.00  0.00     0.190 HD
BRANCH  15  17
HETATM   17  N3  UNL     1      36.189   4.590  22.531  1.00  0.00    -0.268 N
HETATM   18  C6  UNL     1      35.557   4.812  23.764  1.00  0.00     0.232 C
HETATM   19  C7  UNL     1      35.257   6.185  24.217  1.00  0.00     0.119 C
HETATM   20  O4  UNL     1      35.216   3.864  24.540  1.00  0.00    -0.272 OA
ATOM     21  H3  UNL     1      36.442   5.389  21.949  1.00  0.00     0.190 HD
ENDBRANCH  15  17
ENDBRANCH   4  13
BRANCH   1  22
HETATM   22  C2  UNL     1      39.555   0.666  24.290  1.00  0.00     0.367 C
BRANCH  22  23
HETATM   23  O1  UNL     1      40.620   1.386  24.845  1.00  0.00    -0.349 OA
HETATM   24  C1  UNL     1      40.445   2.732  24.560  1.00  0.00     0.206 C
ENDBRANCH  22  23
BRANCH  22  25
HETATM   25  O2  UNL     1      38.606   0.397  25.285  1.00  0.00    -0.355 OA
ATOM     26  H2  UNL     1      37.785   0.817  25.060  1.00  0.00     0.214 HD
ENDBRANCH  22  25
ENDBRANCH   1  22
BRANCH  12  27
HETATM   27  O6  UNL     1      37.529  -1.325  21.838  1.00  0.00    -0.289 OA
BRANCH  27  28
HETATM   28  C12 UNL     1      36.899  -2.027  22.831  1.00  0.00     0.373 C
HETATM   29  N5  UNL     1      35.975  -3.078  22.477  1.00  0.00    -0.032 NA
HETATM   30  O7  UNL     1      37.137  -1.745  24.027  1.00  0.00    -0.242 OA
ENDBRANCH  27  28
ENDBRANCH  12  27
TORSDOF 7
ENDMDL