MODEL 1
REMARK VINA RESULT: -6.108217632      0.000      0.000
REMARK  7 active torsions:
REMARK  status: ('A' for Active; 'I' for Inactive)
REMARK    1  A    between atoms: C3_6  and  S1_7
REMARK    2  A    between atoms: S1_7  and  N3_8
REMARK    3  A    between atoms: C4_13  and  N4_14
REMARK    4  A    between atoms: N4_14  and  N5_16
REMARK    5  A    between atoms: N5_16  and  C5_18
REMARK    6  A    between atoms: C6_21  and  C7_22
REMARK    7  A    between atoms: C9_27  and  N8_28
ROOT
HETATM    1  N4  UNL     1      36.348   5.738  21.990  1.00  0.00    -0.281 N
ATOM      2  H4  UNL     1      36.462   5.988  21.008  1.00  0.00     0.188 HD
ENDROOT
BRANCH   1   3
HETATM    3  C4  UNL     1      36.836   6.622  22.970  1.00  0.00     0.161 A
HETATM    4  N1  UNL     1      38.097   6.849  23.385  1.00  0.00    -0.279 N
HETATM    5  C1  UNL     1      39.273   6.174  22.864  1.00  0.00     0.179 C
HETATM    6  N2  UNL     1      38.105   7.785  24.347  1.00  0.00    -0.307 N
HETATM    7  C2  UNL     1      36.850   8.175  24.565  1.00  0.00     0.136 A
ATOM      8  H2  UNL     1      38.932   8.138  24.830  1.00  0.00     0.186 HD
HETATM    9  C3  UNL     1      36.026   7.476  23.729  1.00  0.00     0.142 A
BRANCH   9  10
HETATM   10  S1  UNL     1      34.310   7.629  23.637  1.00  0.00     0.262 S
HETATM   11  O1  UNL     1      33.603   6.309  23.555  1.00  0.00    -0.201 OA
HETATM   12  O2  UNL     1      33.941   8.409  22.410  1.00  0.00    -0.201 OA
BRANCH  10  13
HETATM   13  N3  UNL     1      33.749   8.523  25.022  1.00  0.00    -0.324 N
ATOM     14  H32 UNL     1      34.092   8.396  25.974  1.00  0.00     0.169 HD
ATOM     15  H31 UNL     1      33.031   9.182  24.720  1.00  0.00     0.169 HD
ENDBRANCH  10  13
ENDBRANCH   9  10
ENDBRANCH   1   3
BRANCH   1  16
HETATM   16  N5  UNL     1      35.727   4.559  22.295  1.00  0.00    -0.281 N
ATOM     17  H5  UNL     1      34.727   4.503  22.103  1.00  0.00     0.188 HD
BRANCH  16  18
HETATM   18  C5  UNL     1      36.289   3.502  22.807  1.00  0.00     0.154 A
HETATM   19  N6  UNL     1      37.121   2.772  22.033  1.00  0.00    -0.335 N
HETATM   20  C6  UNL     1      37.787   1.671  22.360  1.00  0.00     0.106 A
ATOM     21  H6  UNL     1      37.254   3.109  21.079  1.00  0.00     0.168 HD
HETATM   22  C8  UNL     1      37.763   1.037  23.583  1.00  0.00     0.086 A
HETATM   23  S2  UNL     1      36.767   1.785  24.736  1.00  0.00    -0.079 SA
HETATM   24  C9  UNL     1      35.993   3.198  24.113  1.00  0.00     0.113 A
BRANCH  20  25
HETATM   25  C7  UNL     1      38.666   1.006  21.352  1.00  0.00     0.281 C
HETATM   26  N7  UNL     1      38.467   1.118  19.973  1.00  0.00    -0.056 NA
HETATM   27  O3  UNL     1      39.635   0.309  21.761  1.00  0.00    -0.269 OA
ENDBRANCH  20  25
BRANCH  24  28
HETATM   28  N8  UNL     1      35.200   3.885  24.865  1.00  0.00    -0.390 N
ATOM     29  H82 UNL     1      34.204   3.934  24.648  1.00  0.00     0.157 HD
ATOM     30  H81 UNL     1      35.491   4.405  25.693  1.00  0.00     0.157 HD
ENDBRANCH  24  28
ENDBRANCH  16  18
ENDBRANCH   1  16
TORSDOF 7
ENDMDL