MODEL 1
REMARK VINA RESULT: -7.525316493      0.000      0.000
REMARK  6 active torsions:
REMARK  status: ('A' for Active; 'I' for Inactive)
REMARK    1  A    between atoms: N1_1  and  N2_4
REMARK       I    between atoms: N2_4  and  C1_6
REMARK       I    between atoms: C1_6  and  N3_8
REMARK    2  A    between atoms: N3_8  and  C2_10
REMARK    3  A    between atoms: C3_15  and  C4_16
REMARK    4  A    between atoms: C4_16  and  C5_17
REMARK       I    between atoms: C5_17  and  N6_19
REMARK    5  A    between atoms: N6_19  and  N7_21
REMARK    6  A    between atoms: C6_23  and  C7_24
ROOT
HETATM    1  C4  UNL     1      37.301  -0.442  24.141  1.00  0.00     0.170 C
ENDROOT
BRANCH   1   2
HETATM    2  C3  UNL     1      36.917   1.008  24.051  1.00  0.00     0.078 A
HETATM    3  N5  UNL     1      35.733   1.505  23.739  1.00  0.00    -0.295 N
HETATM    4  N4  UNL     1      35.547   2.762  23.700  1.00  0.00    -0.279 N
ATOM      5  H5  UNL     1      34.959   0.874  23.527  1.00  0.00     0.187 HD
HETATM    6  C2  UNL     1      36.584   3.564  23.982  1.00  0.00     0.169 A
ATOM      7  H4  UNL     1      34.635   3.150  23.460  1.00  0.00     0.189 HD
HETATM    8  S1  UNL     1      37.822   2.437  24.302  1.00  0.00    -0.037 SA
BRANCH   6   9
HETATM    9  N3  UNL     1      36.599   4.877  23.997  1.00  0.00    -0.286 N
HETATM   10  C1  UNL     1      35.404   5.621  23.800  1.00  0.00     0.340 C
HETATM   11  N2  UNL     1      34.537   6.003  24.826  1.00  0.00    -0.258 N
HETATM   12  O1  UNL     1      35.146   5.934  22.612  1.00  0.00    -0.245 OA
ATOM     13  H2  UNL     1      34.744   5.748  25.792  1.00  0.00     0.191 HD
ATOM     14  H3  UNL     1      37.479   5.370  24.151  1.00  0.00     0.172 HD
BRANCH  11  15
HETATM   15  N1  UNL     1      33.385   6.732  24.528  1.00  0.00    -0.341 N
ATOM     16  H12 UNL     1      32.485   6.399  24.870  1.00  0.00     0.177 HD
ATOM     17  H11 UNL     1      33.455   7.586  23.974  1.00  0.00     0.177 HD
ENDBRANCH  11  15
ENDBRANCH   6   9
ENDBRANCH   1   2
BRANCH   1  18
HETATM   18  C5  UNL     1      37.009  -1.065  22.845  1.00  0.00     0.242 C
HETATM   19  O2  UNL     1      36.116  -1.953  22.764  1.00  0.00    -0.271 OA
HETATM   20  N6  UNL     1      37.714  -0.689  21.666  1.00  0.00    -0.270 N
ATOM     21  H6  UNL     1      38.437   0.028  21.725  1.00  0.00     0.190 HD
BRANCH  20  22
HETATM   22  N7  UNL     1      37.443  -1.275  20.438  1.00  0.00    -0.307 N
HETATM   23  C6  UNL     1      37.852  -0.729  19.368  1.00  0.00     0.140 C
ATOM     24  H7  UNL     1      36.913  -2.146  20.396  1.00  0.00     0.186 HD
BRANCH  23  25
HETATM   25  C7  UNL     1      37.587  -1.316  18.043  1.00  0.00     0.089 A
HETATM   26  N8  UNL     1      36.573  -0.891  17.283  1.00  0.00    -0.298 N
HETATM   27  N9  UNL     1      36.289  -1.377  16.093  1.00  0.00    -0.311 N
ATOM     28  H8  UNL     1      35.983  -0.143  17.648  1.00  0.00     0.187 HD
HETATM   29  C8  UNL     1      37.046  -2.358  15.587  1.00  0.00     0.109 A
ATOM     30  H9  UNL     1      35.500  -1.009  15.562  1.00  0.00     0.186 HD
HETATM   31  C9  UNL     1      38.118  -2.855  16.314  1.00  0.00     0.047 A
HETATM   32  C10 UNL     1      38.395  -2.328  17.563  1.00  0.00     0.077 A
HETATM   33  N10 UNL     1      39.468  -2.773  18.372  1.00  0.00    -0.100 NA
ENDBRANCH  23  25
ENDBRANCH  20  22
ENDBRANCH   1  18
TORSDOF 6
ENDMDL