MODEL 3
REMARK VINA RESULT: -6.836285735      1.524      1.862
REMARK  7 active torsions:
REMARK  status: ('A' for Active; 'I' for Inactive)
REMARK    1  A    between atoms: S1_2  and  N1_5
REMARK    2  A    between atoms: N1_5  and  C2_7
REMARK    3  A    between atoms: C3_10  and  O3_11
REMARK    4  A    between atoms: C4_13  and  C5_14
REMARK    5  A    between atoms: N3_15  and  N4_17
REMARK       I    between atoms: N4_17  and  C6_19
REMARK    6  A    between atoms: C6_19  and  C7_21
REMARK    7  A    between atoms: C8_27  and  N7_28
ROOT
HETATM    1  C5  UNL     1      35.844   3.821  24.489  1.00  0.00     0.130 C
HETATM    2  N3  UNL     1      35.175   4.477  23.635  1.00  0.00    -0.308 N
ATOM      3  H3  UNL     1      35.141   4.139  22.674  1.00  0.00     0.186 HD
ENDROOT
BRANCH   2   4
HETATM    4  N4  UNL     1      34.474   5.661  23.966  1.00  0.00    -0.265 N
HETATM    5  C6  UNL     1      34.878   6.892  23.459  1.00  0.00     0.292 C
HETATM    6  O4  UNL     1      35.911   6.882  22.681  1.00  0.00    -0.264 OA
ATOM      7  H4  UNL     1      33.665   5.611  24.584  1.00  0.00     0.190 HD
BRANCH   5   8
HETATM    8  C7  UNL     1      34.263   8.173  23.709  1.00  0.00     0.171 A
HETATM    9  N5  UNL     1      33.720   8.602  24.879  1.00  0.00    -0.232 N
HETATM   10  O5  UNL     1      33.271   9.793  24.710  1.00  0.00    -0.155 OA
ATOM     11  H5  UNL     1      33.676   8.068  25.747  1.00  0.00     0.197 HD
HETATM   12  N6  UNL     1      33.474  10.197  23.506  1.00  0.00    -0.224 N
HETATM   13  C8  UNL     1      34.108   9.198  22.818  1.00  0.00     0.155 A
ATOM     14  H6  UNL     1      33.209  11.107  23.129  1.00  0.00     0.198 HD
BRANCH  13  15
HETATM   15  N7  UNL     1      34.450   9.294  21.583  1.00  0.00    -0.382 N
ATOM     16  H72 UNL     1      34.522   8.494  20.955  1.00  0.00     0.157 HD
ATOM     17  H71 UNL     1      34.699  10.110  21.023  1.00  0.00     0.157 HD
ENDBRANCH  13  15
ENDBRANCH   5   8
ENDBRANCH   2   4
BRANCH   1  18
HETATM   18  C4  UNL     1      36.537   2.598  24.033  1.00  0.00     0.076 A
HETATM   19  C3  UNL     1      37.048   2.300  22.799  1.00  0.00     0.161 A
HETATM   20  N2  UNL     1      37.620   1.143  22.640  1.00  0.00    -0.316 N
HETATM   21  C2  UNL     1      37.678   0.311  23.679  1.00  0.00     0.160 A
ATOM     22  H2  UNL     1      38.016   0.878  21.738  1.00  0.00     0.170 HD
HETATM   23  S2  UNL     1      36.903   1.186  24.922  1.00  0.00    -0.048 SA
BRANCH  19  24
HETATM   24  O3  UNL     1      36.932   3.259  21.757  1.00  0.00    -0.345 OA
ATOM     25  H3  UNL     1      36.751   4.178  21.915  1.00  0.00     0.219 HD
ENDBRANCH  19  24
BRANCH  21  26
HETATM   26  N1  UNL     1      38.214  -0.892  23.707  1.00  0.00    -0.264 N
ATOM     27  H1  UNL     1      39.169  -1.021  24.045  1.00  0.00     0.180 HD
BRANCH  26  28
HETATM   28  S1  UNL     1      37.295  -2.246  23.171  1.00  0.00     0.228 S
HETATM   29  C1  UNL     1      38.180  -2.970  21.793  1.00  0.00     0.186 C
HETATM   30  O1  UNL     1      35.960  -1.722  22.705  1.00  0.00    -0.206 OA
HETATM   31  O2  UNL     1      37.160  -3.304  24.212  1.00  0.00    -0.206 OA
ENDBRANCH  26  28
ENDBRANCH  21  26
ENDBRANCH   1  18
TORSDOF 7
ENDMDL