MODEL 4
REMARK VINA RESULT: -5.403172371      2.569      4.254
REMARK  6 active torsions:
REMARK  status: ('A' for Active; 'I' for Inactive)
REMARK    1  A    between atoms: N1_2  and  C2_4
REMARK    2  A    between atoms: C4_9  and  N4_10
REMARK    3  A    between atoms: C10_24  and  N10_25
REMARK    4  A    between atoms: N10_25  and  C11_27
REMARK    5  A    between atoms: C11_27  and  C12_28
REMARK    6  A    between atoms: C12_28  and  N11_29
ROOT
HETATM    1  C2  UNL     1      39.734   1.594  23.959  1.00  0.00     0.147 A
HETATM    2  N2  UNL     1      40.603   1.384  22.957  1.00  0.00    -0.325 N
ATOM      3  H2  UNL     1      41.570   1.679  23.084  1.00  0.00     0.169 HD
HETATM    4  C3  UNL     1      40.261   0.802  21.792  1.00  0.00     0.162 A
HETATM    5  N3  UNL     1      41.200   0.602  20.745  1.00  0.00    -0.079 NA
HETATM    6  C4  UNL     1      38.928   0.424  21.688  1.00  0.00     0.155 A
HETATM    7  N9  UNL     1      38.049   0.621  22.662  1.00  0.00    -0.322 N
ATOM      8  H9  UNL     1      37.082   0.324  22.533  1.00  0.00     0.169 HD
HETATM    9  C10 UNL     1      38.417   1.215  23.839  1.00  0.00     0.151 A
ENDROOT
BRANCH   6  10
HETATM   10  N4  UNL     1      38.546  -0.216  20.451  1.00  0.00    -0.277 N
HETATM   11  C5  UNL     1      38.143   0.619  19.373  1.00  0.00     0.200 A
HETATM   12  N5  UNL     1      38.158   2.024  19.557  1.00  0.00    -0.063 NA
HETATM   13  N6  UNL     1      37.770   0.141  18.241  1.00  0.00    -0.304 N
HETATM   14  C6  UNL     1      37.747  -1.248  18.030  1.00  0.00     0.192 A
ATOM     15  H6  UNL     1      37.489   0.772  17.491  1.00  0.00     0.171 HD
HETATM   16  N7  UNL     1      37.325  -1.719  16.749  1.00  0.00    -0.063 NA
HETATM   17  N8  UNL     1      38.097  -2.034  18.966  1.00  0.00    -0.338 N
HETATM   18  C7  UNL     1      38.538  -1.650  20.288  1.00  0.00     0.109 A
ATOM     19  H8  UNL     1      38.064  -3.033  18.764  1.00  0.00     0.164 HD
HETATM   20  C8  UNL     1      39.862  -2.315  20.530  1.00  0.00     0.063 C
HETATM   21  C9  UNL     1      37.553  -2.316  21.259  1.00  0.00     0.063 C
ENDBRANCH   6  10
BRANCH   9  22
HETATM   22  N10 UNL     1      37.514   1.359  24.695  1.00  0.00    -0.348 N
ATOM     23  H10 UNL     1      37.865   1.118  25.622  1.00  0.00     0.167 HD
BRANCH  22  24
HETATM   24  C11 UNL     1      36.185   1.745  24.770  1.00  0.00     0.106 C
BRANCH  24  25
HETATM   25  C12 UNL     1      35.989   3.203  25.182  1.00  0.00     0.101 C
BRANCH  25  26
HETATM   26  N11 UNL     1      35.891   4.123  24.127  1.00  0.00    -0.397 N
HETATM   27  C13 UNL     1      35.488   5.444  24.382  1.00  0.00     0.148 C
HETATM   28  C14 UNL     1      35.833   3.638  22.801  1.00  0.00     0.148 C
ENDBRANCH  25  26
ENDBRANCH  24  25
ENDBRANCH  22  24
ENDBRANCH   9  22
BRANCH   1  29
HETATM   29  N1  UNL     1      40.141   2.156  25.039  1.00  0.00    -0.378 N
HETATM   30  C1  UNL     1      41.482   2.486  25.388  1.00  0.00     0.148 C
ATOM     31  H1  UNL     1      39.425   2.392  25.725  1.00  0.00     0.160 HD
ENDBRANCH   1  29
TORSDOF 6
ENDMDL