MODEL 5
REMARK VINA RESULT: -7.109855069      2.230      3.955
REMARK  7 active torsions:
REMARK  status: ('A' for Active; 'I' for Inactive)
REMARK    1  A    between atoms: C9_11  and  C10_12
REMARK    2  A    between atoms: C10_12  and  C11_13
REMARK    3  A    between atoms: C12_16  and  C13_17
REMARK    4  A    between atoms: C13_17  and  C14_19
REMARK    5  A    between atoms: C14_19  and  N5_25
REMARK    6  A    between atoms: N3_20  and  N4_22
REMARK    7  A    between atoms: N5_25  and  N6_27
ROOT
HETATM    1  C11 UNL     1      37.306  -0.215  23.663  1.00  0.00     0.104 A
HETATM    2  N2  UNL     1      36.477   0.802  23.820  1.00  0.00    -0.328 N
ATOM      3  H2  UNL     1      35.500   0.686  23.550  1.00  0.00     0.169 HD
HETATM    4  C12 UNL     1      36.883   2.008  24.331  1.00  0.00     0.176 A
HETATM    5  N7  UNL     1      38.160   2.122  24.671  1.00  0.00    -0.173 N
ATOM      6  H7  UNL     1      38.495   3.006  25.055  1.00  0.00     0.186 HD
HETATM    7  C15 UNL     1      39.033   1.094  24.521  1.00  0.00     0.678 A
HETATM    8  N8  UNL     1      40.274   1.187  24.845  1.00  0.00    -0.234 N
ATOM      9  H81 UNL     1      40.930   0.414  24.731  1.00  0.00     0.174 HD
ATOM     10  H82 UNL     1      40.619   2.066  25.229  1.00  0.00     0.174 HD
HETATM   11  N9  UNL     1      38.578  -0.063  24.014  1.00  0.00    -0.180 N
ATOM     12  H9  UNL     1      39.224  -0.843  23.895  1.00  0.00     0.185 HD
ENDROOT
BRANCH   1  13
HETATM   13  C10 UNL     1      36.817  -1.500  23.098  1.00  0.00     0.136 C
BRANCH  13  14
HETATM   14  C9  UNL     1      37.557  -1.845  21.862  1.00  0.00     0.044 A
HETATM   15  C8  UNL     1      38.431  -2.917  21.850  1.00  0.00     0.065 A
HETATM   16  C4  UNL     1      39.109  -3.250  20.693  1.00  0.00    -0.006 A
HETATM   17  N1  UNL     1      38.640  -3.643  22.960  1.00  0.00    -0.364 N
HETATM   18  C3  UNL     1      38.891  -2.494  19.565  1.00  0.00     0.038 A
HETATM   19  C5  UNL     1      40.004  -4.317  20.633  1.00  0.00     0.015 A
HETATM   20  C2  UNL     1      38.020  -1.434  19.594  1.00  0.00     0.006 A
HETATM   21  C1  UNL     1      37.811  -0.635  18.337  1.00  0.00     0.068 C
HETATM   22  N10 UNL     1      37.385  -1.143  20.731  1.00  0.00    -0.361 N
ATOM     23  H10 UNL     1      36.741  -0.352  20.740  1.00  0.00     0.165 HD
HETATM   24  C6  UNL     1      40.196  -5.040  21.786  1.00  0.00     0.018 A
HETATM   25  C7  UNL     1      39.497  -4.666  22.912  1.00  0.00     0.088 A
ATOM     26  H1  UNL     1      38.152  -3.417  23.826  1.00  0.00     0.165 HD
ENDBRANCH  13  14
ENDBRANCH   1  13
BRANCH   4  27
HETATM   27  C13 UNL     1      35.868   3.062  24.461  1.00  0.00     0.262 C
HETATM   28  O1  UNL     1      35.005   2.928  25.416  1.00  0.00    -0.280 OA
BRANCH  27  29
HETATM   29  C14 UNL     1      35.745   4.210  23.643  1.00  0.00     0.189 C
HETATM   30  N3  UNL     1      36.420   4.467  22.587  1.00  0.00    -0.288 N
ATOM     31  H3  UNL     1      37.121   3.789  22.288  1.00  0.00     0.188 HD
BRANCH  30  32
HETATM   32  N4  UNL     1      36.251   5.618  21.822  1.00  0.00    -0.343 N
ATOM     33  H42 UNL     1      37.096   6.113  21.537  1.00  0.00     0.176 HD
ATOM     34  H41 UNL     1      35.342   5.983  21.539  1.00  0.00     0.176 HD
ENDBRANCH  30  32
BRANCH  29  35
HETATM   35  N5  UNL     1      34.738   5.201  24.055  1.00  0.00    -0.288 N
ATOM     36  H5  UNL     1      33.880   5.358  23.526  1.00  0.00     0.188 HD
BRANCH  35  37
HETATM   37  N6  UNL     1      35.035   5.910  25.215  1.00  0.00    -0.343 N
ATOM     38  H62 UNL     1      35.489   5.461  26.010  1.00  0.00     0.176 HD
ATOM     39  H61 UNL     1      34.769   6.894  25.207  1.00  0.00     0.176 HD
ENDBRANCH  35  37
ENDBRANCH  29  35
ENDBRANCH  27  29
ENDBRANCH   4  27
TORSDOF 7
ENDMDL