MODEL 1
REMARK VINA RESULT: -5.905766852      0.000      0.000
REMARK  8 active torsions:
REMARK  status: ('A' for Active; 'I' for Inactive)
REMARK    1  A    between atoms: C2_2  and  C4_4
REMARK    2  A    between atoms: C2_2  and  O1_9
REMARK    3  A    between atoms: C4_4  and  N1_5
REMARK    4  A    between atoms: O1_9  and  N2_10
REMARK    5  A    between atoms: N2_10  and  C5_12
REMARK    6  A    between atoms: C5_12  and  C6_13
REMARK    7  A    between atoms: C11_28  and  C12_29
REMARK    8  A    between atoms: C12_29  and  N7_30
ROOT
HETATM    1  C12 UNL     1      39.109   6.069  22.388  1.00  0.00     0.324 C
HETATM    2  C13 UNL     1      39.680   6.833  23.652  1.00  0.00     0.097 C
HETATM    3  N8  UNL     1      40.088   7.399  24.613  1.00  0.00    -0.195 NA
ENDROOT
BRANCH   1   4
HETATM    4  C11 UNL     1      38.566   4.929  23.076  1.00  0.00     0.019 A
HETATM    5  C10 UNL     1      39.461   3.931  23.554  1.00  0.00     0.062 A
HETATM    6  C9  UNL     1      39.084   2.883  24.347  1.00  0.00     0.114 A
HETATM    7  N5  UNL     1      37.801   2.792  24.698  1.00  0.00    -0.275 N
HETATM    8  N6  UNL     1      39.944   2.029  24.729  1.00  0.00    -0.384 N
HETATM    9  N4  UNL     1      36.940   3.690  24.280  1.00  0.00    -0.202 N
ATOM     10  H5  UNL     1      37.489   2.023  25.292  1.00  0.00     0.189 HD
HETATM   11  C8  UNL     1      35.680   3.520  24.687  1.00  0.00     0.348 A
HETATM   12  C14 UNL     1      37.268   4.764  23.468  1.00  0.00     0.088 A
HETATM   13  N3  UNL     1      34.736   4.383  24.313  1.00  0.00    -0.273 N
HETATM   14  O3  UNL     1      35.330   2.551  25.434  1.00  0.00    -0.245 OA
HETATM   15  C7  UNL     1      34.984   5.425  23.535  1.00  0.00     0.263 A
ATOM     16  H3  UNL     1      33.782   4.234  24.640  1.00  0.00     0.173 HD
HETATM   17  C6  UNL     1      36.298   5.638  23.079  1.00  0.00     0.079 A
HETATM   18  O2  UNL     1      34.118   6.235  23.179  1.00  0.00    -0.267 OA
ATOM     19  H62 UNL     1      39.662   1.247  25.321  1.00  0.00     0.157 HD
ATOM     20  H61 UNL     1      40.926   2.099  24.461  1.00  0.00     0.157 HD
BRANCH  17  21
HETATM   21  C5  UNL     1      36.480   6.700  22.141  1.00  0.00     0.133 C
BRANCH  21  22
HETATM   22  N2  UNL     1      36.229   7.962  22.525  1.00  0.00    -0.276 N
ATOM     23  H2  UNL     1      35.645   8.522  21.903  1.00  0.00     0.193 HD
BRANCH  22  24
HETATM   24  O1  UNL     1      36.660   8.552  23.624  1.00  0.00    -0.269 OA
BRANCH  24  25
HETATM   25  C2  UNL     1      35.990   9.068  24.711  1.00  0.00     0.105 C
HETATM   26  C1  UNL     1      36.594  10.363  25.243  1.00  0.00     0.050 C
HETATM   27  C3  UNL     1      35.842   8.126  25.873  1.00  0.00     0.050 C
BRANCH  25  28
HETATM   28  C4  UNL     1      34.573   9.432  24.254  1.00  0.00     0.269 C
BRANCH  28  29
HETATM   29  N1  UNL     1      33.577   8.647  24.913  1.00  0.00    -0.076 N
ATOM     30  H13 UNL     1      33.061   8.071  24.248  1.00  0.00     0.274 HD
ATOM     31  H12 UNL     1      34.001   7.907  25.472  1.00  0.00     0.274 HD
ATOM     32  H11 UNL     1      32.947   9.220  25.474  1.00  0.00     0.274 HD
ENDBRANCH  28  29
ENDBRANCH  25  28
ENDBRANCH  24  25
ENDBRANCH  22  24
ENDBRANCH  21  22
ENDBRANCH  17  21
ENDBRANCH   1   4
BRANCH   1  33
HETATM   33  N7  UNL     1      40.439   5.854  21.795  1.00  0.00    -0.058 N
ATOM     34  H73 UNL     1      41.168   6.078  22.472  1.00  0.00     0.276 HD
ATOM     35  H72 UNL     1      40.614   4.857  21.671  1.00  0.00     0.276 HD
ATOM     36  H71 UNL     1      40.602   6.353  20.921  1.00  0.00     0.276 HD
ENDBRANCH   1  33
TORSDOF 8
ENDMDL