MODEL 5
REMARK VINA RESULT: -5.272636553      2.534      6.746
REMARK  7 active torsions:
REMARK  status: ('A' for Active; 'I' for Inactive)
REMARK    1  A    between atoms: C1_2  and  C2_3
REMARK    2  A    between atoms: C1_2  and  C8_19
REMARK    3  A    between atoms: C5_8  and  N1_9
REMARK    4  A    between atoms: N1_9  and  N2_11
REMARK    5  A    between atoms: N2_11  and  C6_13
REMARK    6  A    between atoms: C8_19  and  O2_20
REMARK    7  A    between atoms: C8_19  and  N5_22
ROOT
HETATM    1  C2  UNL     1      37.328  -2.413  13.257  1.00  0.00     0.174 C
HETATM    2  S1  UNL     1      38.357  -3.549  14.281  1.00  0.00    -0.144 SA
HETATM    3  C3  UNL     1      39.515  -3.911  12.924  1.00  0.00     0.128 C
HETATM    4  C4  UNL     1      39.399  -2.661  12.145  1.00  0.00     0.046 C
HETATM    5 CL1  UNL     1      40.749  -2.257  11.035  1.00  0.00    -0.086 Cl
HETATM    6  C5  UNL     1      38.354  -1.941  12.301  1.00  0.00     0.065 C
ENDROOT
BRANCH   1   7
HETATM    7  C1  UNL     1      36.359  -3.248  12.509  1.00  0.00     0.205 C
HETATM    8  O1  UNL     1      36.012  -3.029  11.374  1.00  0.00    -0.291 OA
BRANCH   7   9
HETATM    9  C8  UNL     1      35.758  -4.434  13.163  1.00  0.00     0.428 C
BRANCH   9  10
HETATM   10  O2  UNL     1      34.759  -4.035  14.008  1.00  0.00    -0.362 OA
ATOM     11  H2  UNL     1      33.972  -4.537  13.831  1.00  0.00     0.212 HD
ENDBRANCH   9  10
BRANCH   9  12
HETATM   12  N5  UNL     1      35.369  -5.444  12.227  1.00  0.00     0.127 N
HETATM   13  C9  UNL     1      34.040  -5.884  12.496  1.00  0.00     0.303 C
HETATM   14  C10 UNL     1      34.059  -7.192  13.266  1.00  0.00     0.262 C
HETATM   15  N6  UNL     1      34.620  -8.253  12.478  1.00  0.00    -0.072 N
HETATM   16  C11 UNL     1      35.651  -7.793  11.597  1.00  0.00     0.262 C
ATOM     17  H62 UNL     1      34.955  -9.013  13.070  1.00  0.00     0.277 HD
ATOM     18  H61 UNL     1      33.894  -8.752  11.965  1.00  0.00     0.277 HD
HETATM   19  C12 UNL     1      36.312  -6.535  12.169  1.00  0.00     0.303 C
ENDBRANCH   9  12
ENDBRANCH   7   9
ENDBRANCH   1   7
BRANCH   6  20
HETATM   20  N1  UNL     1      38.127  -0.696  11.592  1.00  0.00    -0.299 N
ATOM     21  H1  UNL     1      38.867  -0.319  10.999  1.00  0.00     0.186 HD
BRANCH  20  22
HETATM   22  N2  UNL     1      36.922   0.001  11.699  1.00  0.00    -0.271 N
ATOM     23  H2  UNL     1      36.142  -0.274  11.102  1.00  0.00     0.190 HD
BRANCH  22  24
HETATM   24  C6  UNL     1      36.739   1.076  12.607  1.00  0.00     0.192 A
HETATM   25  N3  UNL     1      36.002   1.241  13.643  1.00  0.00    -0.345 N
HETATM   26  C7  UNL     1      36.404   2.573  13.972  1.00  0.00     0.249 A
ATOM     27  H3  UNL     1      35.334   0.616  14.094  1.00  0.00     0.164 HD
HETATM   28  N4  UNL     1      37.246   2.377  12.788  1.00  0.00    -0.345 N
ATOM     29  H4  UNL     1      37.927   2.952  12.294  1.00  0.00     0.164 HD
ENDBRANCH  22  24
ENDBRANCH  20  22
ENDBRANCH   6  20
TORSDOF 7
ENDMDL