MODEL 3
REMARK VINA RESULT: -6.240830308      1.108      1.229
REMARK  7 active torsions:
REMARK  status: ('A' for Active; 'I' for Inactive)
REMARK    1  A    between atoms: N1_1  and  C1_4
REMARK    2  A    between atoms: C2_7  and  O1_8
REMARK    3  A    between atoms: O1_8  and  C3_9
REMARK    4  A    between atoms: N4_17  and  N5_19
REMARK       I    between atoms: N5_19  and  C7_21
REMARK    5  A    between atoms: C7_21  and  C8_23
REMARK    6  A    between atoms: C8_23  and  N6_24
REMARK    7  A    between atoms: C8_23  and  O4_28
ROOT
HETATM    1  C1  UNL     1      37.402  -1.188  14.260  1.00  0.00     0.678 A
HETATM    2  N2  UNL     1      38.024  -2.127  14.993  1.00  0.00    -0.170 N
ATOM      3  H2  UNL     1      38.671  -1.811  15.715  1.00  0.00     0.186 HD
HETATM    4  C2  UNL     1      37.857  -3.438  14.844  1.00  0.00     0.177 A
HETATM    5  C4  UNL     1      36.977  -3.923  13.865  1.00  0.00     0.118 A
HETATM    6  C5  UNL     1      36.792  -5.278  13.698  1.00  0.00     0.264 A
HETATM    7  O2  UNL     1      37.478  -6.017  14.496  1.00  0.00    -0.267 OA
HETATM    8  N3  UNL     1      35.996  -5.878  12.818  1.00  0.00    -0.302 N
ATOM      9  H3  UNL     1      35.986  -6.898  12.839  1.00  0.00     0.171 HD
HETATM   10  C6  UNL     1      35.208  -5.296  11.909  1.00  0.00     0.168 A
HETATM   11  N4  UNL     1      34.467  -5.949  11.090  1.00  0.00    -0.277 N
ATOM     12  H4  UNL     1      33.901  -5.411  10.433  1.00  0.00     0.189 HD
HETATM   13  S1  UNL     1      35.275  -3.595  11.930  1.00  0.00    -0.033 SA
HETATM   14  C9  UNL     1      36.343  -2.957  13.118  1.00  0.00     0.114 A
HETATM   15  N7  UNL     1      36.547  -1.643  13.307  1.00  0.00    -0.184 N
ATOM     16  H7  UNL     1      36.050  -0.971  12.722  1.00  0.00     0.185 HD
ENDROOT
BRANCH  11  17
HETATM   17  N5  UNL     1      34.378  -7.320  11.032  1.00  0.00    -0.264 N
HETATM   18  C7  UNL     1      33.648  -8.034  12.008  1.00  0.00     0.292 C
HETATM   19  O3  UNL     1      33.065  -7.418  12.950  1.00  0.00    -0.267 OA
ATOM     20  H5  UNL     1      34.844  -7.826  10.279  1.00  0.00     0.190 HD
BRANCH  18  21
HETATM   21  C8  UNL     1      33.513  -9.511  12.005  1.00  0.00     0.411 C
BRANCH  21  22
HETATM   22  N6  UNL     1      33.165 -10.031  13.311  1.00  0.00    -0.044 N
ATOM     23  H63 UNL     1      32.164  -9.949  13.486  1.00  0.00     0.278 HD
ATOM     24  H62 UNL     1      33.251 -11.048  13.338  1.00  0.00     0.278 HD
ATOM     25  H61 UNL     1      33.708  -9.595  14.057  1.00  0.00     0.278 HD
ENDBRANCH  21  22
BRANCH  21  26
HETATM   26  O4  UNL     1      32.558  -9.940  11.097  1.00  0.00    -0.363 OA
ATOM     27  H4  UNL     1      32.952 -10.288  10.306  1.00  0.00     0.212 HD
ENDBRANCH  21  26
ENDBRANCH  18  21
ENDBRANCH  11  17
BRANCH   4  28
HETATM   28  O1  UNL     1      38.547  -4.352  15.653  1.00  0.00    -0.320 OA
BRANCH  28  29
HETATM   29  C3  UNL     1      39.805  -4.054  16.180  1.00  0.00     0.291 C
HETATM   30 CL1  UNL     1      39.652  -3.369  17.804  1.00  0.00    -0.101 Cl
ENDBRANCH  28  29
ENDBRANCH   4  28
BRANCH   1  31
HETATM   31  N1  UNL     1      37.550   0.071  14.388  1.00  0.00    -0.234 N
ATOM     32  H12 UNL     1      36.791   0.607  14.811  1.00  0.00     0.174 HD
ATOM     33  H11 UNL     1      38.371   0.603  14.102  1.00  0.00     0.174 HD
ENDBRANCH   1  31
TORSDOF 7
ENDMDL