MODEL 4
REMARK VINA RESULT: -6.897773811      2.814      3.848
REMARK  5 active torsions:
REMARK  status: ('A' for Active; 'I' for Inactive)
REMARK       I    between atoms: C2_3  and  N2_5
REMARK    1  A    between atoms: N2_5  and  N3_7
REMARK    2  A    between atoms: C6_18  and  O2_19
REMARK    3  A    between atoms: O2_19  and  C7_20
REMARK    4  A    between atoms: C7_20  and  C10_25
REMARK    5  A    between atoms: C11_29  and  N10_30
ROOT
HETATM    1  C1  UNL     1      38.985   5.107  12.329  1.00  0.00     0.265 C
HETATM    2  N1  UNL     1      38.257   3.942  12.501  1.00  0.00    -0.401 NA
HETATM    3  C2  UNL     1      37.549   2.809  12.669  1.00  0.00     0.406 C
HETATM    4  O1  UNL     1      36.297   2.665  12.906  1.00  0.00    -0.229 OA
HETATM    5  N2  UNL     1      38.290   1.533  12.569  1.00  0.00    -0.238 N
ATOM      6  H2  UNL     1      39.297   1.568  12.407  1.00  0.00     0.193 HD
ENDROOT
BRANCH   5   7
HETATM    7  N3  UNL     1      37.706   0.337  12.679  1.00  0.00    -0.280 N
HETATM    8  C3  UNL     1      37.424  -0.552  13.503  1.00  0.00     0.139 A
HETATM    9  N4  UNL     1      37.729  -0.501  14.836  1.00  0.00    -0.337 N
HETATM   10  C12 UNL     1      36.763  -1.667  13.029  1.00  0.00     0.097 A
HETATM   11  C4  UNL     1      37.399  -1.502  15.669  1.00  0.00     0.183 A
ATOM     12  H4  UNL     1      38.218   0.314  15.205  1.00  0.00     0.168 HD
HETATM   13  N5  UNL     1      36.755  -2.572  15.171  1.00  0.00    -0.338 N
HETATM   14  C5  UNL     1      36.424  -2.685  13.870  1.00  0.00     0.127 A
ATOM     15  H5  UNL     1      36.505  -3.331  15.806  1.00  0.00     0.168 HD
HETATM   16  N6  UNL     1      35.782  -3.755  13.349  1.00  0.00    -0.307 N
HETATM   17  C6  UNL     1      35.447  -3.896  12.063  1.00  0.00     0.229 A
ATOM     18  H6  UNL     1      35.534  -4.512  13.986  1.00  0.00     0.171 HD
HETATM   19  N9  UNL     1      35.789  -2.869  11.227  1.00  0.00    -0.307 N
HETATM   20  C11 UNL     1      36.426  -1.783  11.675  1.00  0.00     0.119 A
ATOM     21  H9  UNL     1      35.553  -2.934  10.237  1.00  0.00     0.171 HD
ATOM     22  H3  UNL     1      37.372   0.050  11.759  1.00  0.00     0.188 HD
BRANCH  17  23
HETATM   23  O2  UNL     1      34.797  -5.000  11.577  1.00  0.00    -0.278 OA
BRANCH  23  24
HETATM   24  C7  UNL     1      34.904  -6.316  12.020  1.00  0.00     0.271 C
HETATM   25  C8  UNL     1      35.213  -7.202  10.891  1.00  0.00     0.117 C
HETATM   26  N7  UNL     1      35.465  -7.900   9.979  1.00  0.00    -0.193 NA
HETATM   27  C9  UNL     1      36.057  -6.375  12.968  1.00  0.00     0.117 C
HETATM   28  N8  UNL     1      36.969  -6.407  13.687  1.00  0.00    -0.193 NA
BRANCH  24  29
HETATM   29  C10 UNL     1      33.687  -6.731  12.792  1.00  0.00     0.292 C
HETATM   30  F1  UNL     1      32.533  -6.217  12.229  1.00  0.00    -0.250 F
ENDBRANCH  24  29
ENDBRANCH  23  24
ENDBRANCH  17  23
BRANCH  20  31
HETATM   31  N10 UNL     1      36.758  -0.802  10.909  1.00  0.00    -0.385 N
ATOM     32 2H10 UNL     1      36.005  -0.194  10.588  1.00  0.00     0.157 HD
ATOM     33 1H10 UNL     1      37.721  -0.624  10.623  1.00  0.00     0.157 HD
ENDBRANCH  20  31
ENDBRANCH   5   7
TORSDOF 4
ENDMDL