MODEL 3
REMARK VINA RESULT: -7.409498172      3.103      4.469
REMARK  7 active torsions:
REMARK  status: ('A' for Active; 'I' for Inactive)
REMARK       I    between atoms: C1_2  and  N2_3
REMARK       I    between atoms: C1_2  and  N7_16
REMARK    1  A    between atoms: N2_3  and  N3_5
REMARK    2  A    between atoms: N3_5  and  C2_7
REMARK    3  A    between atoms: N7_16  and  N8_18
REMARK    4  A    between atoms: N8_18  and  C4_20
REMARK    5  A    between atoms: C4_20  and  C5_21
REMARK    6  A    between atoms: C6_26  and  S1_27
REMARK    7  A    between atoms: S1_27  and  N11_28
ROOT
HETATM    1  N1  UNL     1      38.035   1.546  12.409  1.00  0.00    -0.061 NA
HETATM    2  C1  UNL     1      37.274   1.165  13.546  1.00  0.00     0.222 C
HETATM    3  N2  UNL     1      37.752   1.360  14.727  1.00  0.00    -0.271 N
ATOM      4  H2  UNL     1      38.673   1.787  14.814  1.00  0.00     0.189 HD
HETATM    5  N7  UNL     1      36.000   0.577  13.324  1.00  0.00    -0.273 N
ATOM      6  H7  UNL     1      35.162   0.961  13.761  1.00  0.00     0.189 HD
ENDROOT
BRANCH   5   7
HETATM    7  N8  UNL     1      35.925  -0.540  12.493  1.00  0.00    -0.307 N
ATOM      8  H8  UNL     1      35.351  -0.524  11.651  1.00  0.00     0.186 HD
BRANCH   7   9
HETATM    9  C4  UNL     1      36.593  -1.588  12.810  1.00  0.00     0.145 C
BRANCH   9  10
HETATM   10  C5  UNL     1      35.938  -2.892  12.940  1.00  0.00     0.108 A
HETATM   11  N9  UNL     1      35.757  -3.617  14.037  1.00  0.00    -0.291 N
HETATM   12  N10 UNL     1      35.166  -4.729  13.965  1.00  0.00    -0.282 N
ATOM     13  H9  UNL     1      36.095  -3.275  14.936  1.00  0.00     0.187 HD
HETATM   14  C6  UNL     1      34.723  -5.175  12.794  1.00  0.00     0.207 A
ATOM     15  H10 UNL     1      35.027  -5.287  14.807  1.00  0.00     0.188 HD
HETATM   16  S2  UNL     1      35.205  -3.892  11.759  1.00  0.00    -0.037 SA
BRANCH  14  17
HETATM   17  S1  UNL     1      33.875  -6.681  12.435  1.00  0.00     0.280 S
HETATM   18  O1  UNL     1      33.656  -7.431  13.718  1.00  0.00    -0.199 OA
HETATM   19  O2  UNL     1      34.712  -7.528  11.518  1.00  0.00    -0.199 OA
BRANCH  17  20
HETATM   20  N11 UNL     1      32.355  -6.286  11.771  1.00  0.00    -0.323 N
ATOM     21 2H11 UNL     1      32.156  -6.185  10.775  1.00  0.00     0.169 HD
ATOM     22 1H11 UNL     1      31.693  -6.172  12.539  1.00  0.00     0.169 HD
ENDBRANCH  17  20
ENDBRANCH  14  17
ENDBRANCH   9  10
ENDBRANCH   7   9
ENDBRANCH   5   7
BRANCH   3  23
HETATM   23  N3  UNL     1      37.075   1.017  15.886  1.00  0.00    -0.278 N
ATOM     24  H3  UNL     1      36.323   1.621  16.216  1.00  0.00     0.189 HD
BRANCH  23  25
HETATM   25  C2  UNL     1      37.398  -0.156  16.633  1.00  0.00     0.194 A
HETATM   26  N4  UNL     1      37.002  -1.422  16.433  1.00  0.00    -0.266 N
HETATM   27  N5  UNL     1      37.519  -2.213  17.341  1.00  0.00    -0.239 N
ATOM     28  H4  UNL     1      36.385  -1.726  15.681  1.00  0.00     0.190 HD
HETATM   29  N6  UNL     1      38.256  -1.468  18.139  1.00  0.00    -0.258 N
ATOM     30  H5  UNL     1      37.377  -3.220  17.416  1.00  0.00     0.208 HD
HETATM   31  C3  UNL     1      38.217  -0.202  17.752  1.00  0.00     0.251 A
ATOM     32  H6  UNL     1      38.782  -1.817  18.941  1.00  0.00     0.191 HD
HETATM   33  F1  UNL     1      38.823   0.871  18.286  1.00  0.00    -0.180 F
ENDBRANCH  23  25
ENDBRANCH   3  23
TORSDOF 7
ENDMDL