MODEL 4
REMARK VINA RESULT: -5.484475869      4.938      7.455
REMARK  10 active torsions:
REMARK  status: ('A' for Active; 'I' for Inactive)
REMARK    1  A    between atoms: O1_2  and  C2_3
REMARK    2  A    between atoms: C2_3  and  N1_5
REMARK    3  A    between atoms: N1_5  and  C3_7
REMARK    4  A    between atoms: C3_7  and  O2_8
REMARK    5  A    between atoms: C3_7  and  C9_21
REMARK    6  A    between atoms: O2_8  and  C4_9
REMARK    7  A    between atoms: C6_12  and  O4_13
REMARK    8  A    between atoms: C6_12  and  C7_15
REMARK    9  A    between atoms: C8_18  and  O7_19
REMARK   10  A    between atoms: N2_23  and  O8_25
ROOT
HETATM    1  C3  UNL     1      37.081   2.058  14.476  1.00  0.00     0.291 C
ENDROOT
BRANCH   1   2
HETATM    2  N1  UNL     1      36.310   3.202  14.130  1.00  0.00    -0.329 N
ATOM      3  H1  UNL     1      35.292   3.143  14.142  1.00  0.00     0.165 HD
BRANCH   2   4
HETATM    4  C2  UNL     1      36.929   4.411  13.774  1.00  0.00     0.211 C
HETATM    5  S1  UNL     1      38.370   4.456  13.017  1.00  0.00    -0.033 SA
BRANCH   4   6
HETATM    6  O1  UNL     1      36.317   5.615  14.061  1.00  0.00    -0.332 OA
HETATM    7  C1  UNL     1      36.910   6.868  13.765  1.00  0.00     0.212 C
ENDBRANCH   4   6
ENDBRANCH   2   4
ENDBRANCH   1   2
BRANCH   1   8
HETATM    8  O2  UNL     1      36.605   0.876  13.915  1.00  0.00    -0.328 OA
BRANCH   8   9
HETATM    9  C4  UNL     1      37.401   0.356  12.931  1.00  0.00     0.295 C
HETATM   10  O3  UNL     1      38.243  -0.589  13.495  1.00  0.00    -0.355 OA
HETATM   11  C5  UNL     1      37.400  -1.686  13.663  1.00  0.00     0.223 C
HETATM   12  C6  UNL     1      36.848  -1.828  12.238  1.00  0.00     0.198 C
HETATM   13  C8  UNL     1      36.515  -0.377  11.942  1.00  0.00     0.220 C
BRANCH  12  14
HETATM   14  O4  UNL     1      37.859  -2.305  11.443  1.00  0.00    -0.375 OA
ATOM     15  H4  UNL     1      38.151  -3.131  11.810  1.00  0.00     0.211 HD
ENDBRANCH  12  14
BRANCH  12  16
HETATM   16  C7  UNL     1      35.656  -2.697  12.202  1.00  0.00     0.214 C
HETATM   17  O5  UNL     1      35.289  -3.422  13.151  1.00  0.00    -0.646 OA
HETATM   18  O6  UNL     1      34.892  -2.713  11.043  1.00  0.00    -0.646 OA
ENDBRANCH  12  16
BRANCH  13  19
HETATM   19  O7  UNL     1      36.743  -0.022  10.638  1.00  0.00    -0.387 OA
ATOM     20  H7  UNL     1      36.603   0.902  10.468  1.00  0.00     0.210 HD
ENDBRANCH  13  19
ENDBRANCH   8   9
ENDBRANCH   1   8
BRANCH   1  21
HETATM   21  C9  UNL     1      37.201   1.809  15.921  1.00  0.00     0.149 C
HETATM   22 CL1  UNL     1      38.113   2.904  16.917  1.00  0.00    -0.063 Cl
HETATM   23  N2  UNL     1      36.652   0.790  16.451  1.00  0.00    -0.258 N
ATOM     24  H2  UNL     1      36.134   0.164  15.834  1.00  0.00     0.195 HD
BRANCH  23  25
HETATM   25  O8  UNL     1      36.699   0.466  17.771  1.00  0.00    -0.289 OA
ATOM     26  H8  UNL     1      36.309  -0.306  18.162  1.00  0.00     0.244 HD
ENDBRANCH  23  25
ENDBRANCH   1  21
TORSDOF 10
ENDMDL