MODEL 1
REMARK VINA RESULT: -5.679055873      0.000      0.000
REMARK  8 active torsions:
REMARK  status: ('A' for Active; 'I' for Inactive)
REMARK    1  A    between atoms: C2_2  and  O1_3
REMARK    2  A    between atoms: O1_3  and  C3_4
REMARK    3  A    between atoms: C3_4  and  N1_5
REMARK    4  A    between atoms: C3_4  and  N2_9
REMARK    5  A    between atoms: N2_9  and  C4_11
REMARK    6  A    between atoms: C5_12  and  C6_13
REMARK    7  A    between atoms: C6_13  and  O3_15
REMARK    8  A    between atoms: C10_24  and  N5_25
ROOT
HETATM    1  C4  UNL     1      36.907  -4.617  13.131  1.00  0.00     0.152 A
HETATM    2  C5  UNL     1      36.841  -3.343  12.645  1.00  0.00     0.123 A
HETATM    3  C8  UNL     1      35.799  -3.013  11.771  1.00  0.00     0.139 A
HETATM    4 CL1  UNL     1      35.759  -1.347  11.166  1.00  0.00    -0.063 Cl
HETATM    5  N3  UNL     1      34.867  -3.869  11.388  1.00  0.00    -0.179 N
ATOM      6  H3  UNL     1      34.122  -3.590  10.749  1.00  0.00     0.185 HD
HETATM    7  C9  UNL     1      34.939  -5.142  11.880  1.00  0.00     0.710 A
HETATM    8  N4  UNL     1      33.993  -6.020  11.494  1.00  0.00    -0.022 N
ATOM      9  H4  UNL     1      33.254  -5.726  10.855  1.00  0.00     0.203 HD
HETATM   10  C10 UNL     1      34.024  -7.276  11.949  1.00  0.00     0.694 A
HETATM   11  N6  UNL     1      34.996  -7.661  12.788  1.00  0.00    -0.140 N
ATOM     12  H6  UNL     1      35.023  -8.619  13.136  1.00  0.00     0.189 HD
HETATM   13  C11 UNL     1      35.941  -6.772  13.170  1.00  0.00     0.361 A
HETATM   14  O4  UNL     1      36.842  -7.116  13.944  1.00  0.00    -0.245 OA
HETATM   15  N7  UNL     1      35.916  -5.490  12.712  1.00  0.00    -0.079 N
ENDROOT
BRANCH   1  16
HETATM   16  N2  UNL     1      37.765  -5.075  13.884  1.00  0.00    -0.326 N
ATOM     17  H2  UNL     1      37.812  -6.082  13.728  1.00  0.00     0.165 HD
BRANCH  16  18
HETATM   18  C3  UNL     1      38.691  -4.752  14.862  1.00  0.00     0.427 C
BRANCH  18  19
HETATM   19  O1  UNL     1      38.129  -4.204  16.032  1.00  0.00    -0.344 OA
BRANCH  19  20
HETATM   20  C2  UNL     1      38.923  -3.254  16.620  1.00  0.00     0.167 C
HETATM   21  C1  UNL     1      38.100  -2.229  17.359  1.00  0.00     0.033 C
ENDBRANCH  19  20
ENDBRANCH  18  19
BRANCH  18  22
HETATM   22  N1  UNL     1      39.488  -5.932  15.209  1.00  0.00    -0.035 N
ATOM     23  H13 UNL     1      40.360  -5.685  15.677  1.00  0.00     0.279 HD
ATOM     24  H12 UNL     1      39.067  -6.474  15.963  1.00  0.00     0.279 HD
ATOM     25  H11 UNL     1      39.646  -6.494  14.373  1.00  0.00     0.279 HD
ENDBRANCH  18  22
ENDBRANCH  16  18
ENDBRANCH   1  16
BRANCH   2  26
HETATM   26  C6  UNL     1      37.794  -2.287  13.006  1.00  0.00     0.299 C
HETATM   27  O2  UNL     1      38.875  -2.230  12.401  1.00  0.00    -0.259 OA
BRANCH  26  28
HETATM   28  O3  UNL     1      37.506  -1.369  13.990  1.00  0.00    -0.322 OA
HETATM   29  C7  UNL     1      37.820   0.007  13.895  1.00  0.00     0.213 C
ENDBRANCH  26  28
ENDBRANCH   2  26
BRANCH  10  30
HETATM   30  N5  UNL     1      33.122  -8.128  11.585  1.00  0.00    -0.234 N
ATOM     31  H52 UNL     1      32.244  -8.182  12.102  1.00  0.00     0.174 HD
ATOM     32  H51 UNL     1      33.284  -8.745  10.789  1.00  0.00     0.174 HD
ENDBRANCH  10  30
TORSDOF 8
ENDMDL