MODEL 3
REMARK VINA RESULT: -6.452825024      3.153      4.534
REMARK  7 active torsions:
REMARK  status: ('A' for Active; 'I' for Inactive)
REMARK    1  A    between atoms: O1_2  and  C2_3
REMARK    2  A    between atoms: C4_5  and  N1_6
REMARK    3  A    between atoms: C7_12  and  O4_13
REMARK    4  A    between atoms: O4_13  and  C8_14
REMARK    5  A    between atoms: C9_17  and  N3_18
REMARK    6  A    between atoms: C10_21  and  N4_22
REMARK    7  A    between atoms: N4_22  and  N5_24
ROOT
HETATM    1  C8  UNL     1      36.642  -3.003  13.792  1.00  0.00     0.234 C
HETATM    2  N2  UNL     1      36.564  -4.297  14.176  1.00  0.00    -0.305 N
ATOM      3  H2  UNL     1      37.130  -4.559  14.983  1.00  0.00     0.171 HD
HETATM    4  C9  UNL     1      35.816  -5.300  13.613  1.00  0.00     0.148 C
HETATM    5  C10 UNL     1      34.725  -5.164  12.802  1.00  0.00     0.168 C
HETATM    6  N6  UNL     1      34.519  -4.136  11.940  1.00  0.00    -0.290 N
ATOM      7  H6  UNL     1      33.870  -4.319  11.176  1.00  0.00     0.172 HD
HETATM    8  C11 UNL     1      35.071  -2.888  11.968  1.00  0.00     0.329 C
HETATM    9  O5  UNL     1      34.857  -2.182  10.948  1.00  0.00    -0.247 OA
HETATM   10  N7  UNL     1      35.818  -2.338  12.971  1.00  0.00    -0.274 N
ATOM     11  H7  UNL     1      35.742  -1.330  13.108  1.00  0.00     0.174 HD
ENDROOT
BRANCH   1  12
HETATM   12  O4  UNL     1      37.686  -2.308  14.312  1.00  0.00    -0.273 OA
BRANCH  12  13
HETATM   13  C7  UNL     1      37.690  -1.217  15.119  1.00  0.00     0.151 A
HETATM   14  C2  UNL     1      37.751   0.045  14.545  1.00  0.00     0.107 A
HETATM   15  C3  UNL     1      37.758   1.182  15.327  1.00  0.00     0.075 A
HETATM   16  C4  UNL     1      37.706   1.099  16.704  1.00  0.00     0.108 A
HETATM   17  C5  UNL     1      37.647  -0.156  17.255  1.00  0.00     0.081 A
HETATM   18  C6  UNL     1      37.637  -1.322  16.482  1.00  0.00     0.155 A
HETATM   19  F1  UNL     1      37.583  -2.514  17.104  1.00  0.00    -0.203 F
BRANCH  14  20
HETATM   20  O1  UNL     1      37.803   0.121  13.164  1.00  0.00    -0.353 OA
HETATM   21  C1  UNL     1      36.924   1.019  12.516  1.00  0.00     0.210 C
ENDBRANCH  14  20
BRANCH  16  22
HETATM   22  N1  UNL     1      37.712   2.251  17.523  1.00  0.00    -0.116 N
HETATM   23  O2  UNL     1      37.351   2.204  18.710  1.00  0.00    -0.532 OA
HETATM   24  O3  UNL     1      38.124   3.452  17.012  1.00  0.00    -0.532 OA
ENDBRANCH  16  22
ENDBRANCH  12  13
ENDBRANCH   1  12
BRANCH   4  25
HETATM   25  N3  UNL     1      36.181  -6.503  13.874  1.00  0.00    -0.382 N
ATOM     26  H32 UNL     1      37.138  -6.620  14.208  1.00  0.00     0.157 HD
ATOM     27  H31 UNL     1      35.483  -7.232  13.727  1.00  0.00     0.157 HD
ENDBRANCH   4  25
BRANCH   5  28
HETATM   28  N4  UNL     1      33.833  -6.076  12.869  1.00  0.00    -0.289 N
ATOM     29  H4  UNL     1      33.793  -6.683  13.688  1.00  0.00     0.188 HD
BRANCH  28  30
HETATM   30  N5  UNL     1      32.923  -6.249  11.847  1.00  0.00    -0.344 N
ATOM     31  H52 UNL     1      33.003  -5.663  11.017  1.00  0.00     0.176 HD
ATOM     32  H51 UNL     1      32.184  -6.949  11.919  1.00  0.00     0.176 HD
ENDBRANCH  28  30
ENDBRANCH   5  28
TORSDOF 7
ENDMDL