MODEL 5
REMARK VINA RESULT: -5.452212038      2.139      2.809
REMARK  6 active torsions:
REMARK  status: ('A' for Active; 'I' for Inactive)
REMARK    1  A    between atoms: C4_6  and  N2_7
REMARK    2  A    between atoms: N2_7  and  C5_8
REMARK    3  A    between atoms: N2_7  and  C6_10
REMARK       I    between atoms: N6_18  and  C9_19
REMARK    4  A    between atoms: C9_19  and  C10_21
REMARK    5  A    between atoms: C10_21  and  N7_22
REMARK    6  A    between atoms: C10_21  and  C11_26
ROOT
HETATM    1  C6  UNL     1      37.618  -2.563  14.781  1.00  0.00     0.712 C
HETATM    2  N3  UNL     1      37.257  -2.718  16.062  1.00  0.00    -0.119 N
ATOM      3  H3  UNL     1      37.057  -3.660  16.400  1.00  0.00     0.207 HD
HETATM    4  N4  UNL     1      37.140  -1.637  16.966  1.00  0.00    -0.232 N
ATOM      5  H4  UNL     1      36.558  -1.792  17.789  1.00  0.00     0.204 HD
HETATM    6  N5  UNL     1      37.742  -0.371  16.851  1.00  0.00    -0.124 NA
HETATM    7  C7  UNL     1      38.970  -0.458  16.084  1.00  0.00     0.157 C
HETATM    8  C8  UNL     1      38.734  -0.295  14.569  1.00  0.00     0.169 C
HETATM    9  N6  UNL     1      37.848  -1.315  14.102  1.00  0.00    -0.145 N
HETATM   10  C9  UNL     1      37.027  -1.156  12.963  1.00  0.00     0.279 C
HETATM   11  O2  UNL     1      36.071  -1.927  12.633  1.00  0.00    -0.270 OA
ENDROOT
BRANCH   1  12
HETATM   12  N2  UNL     1      37.676  -3.763  14.074  1.00  0.00    -0.119 N
BRANCH  12  13
HETATM   13  C4  UNL     1      39.019  -4.253  13.738  1.00  0.00     0.091 A
HETATM   14  C1  UNL     1      39.693  -5.015  14.647  1.00  0.00     0.114 A
HETATM   15  N1  UNL     1      39.267  -5.438  15.963  1.00  0.00    -0.092 NA
HETATM   16  S1  UNL     1      41.167  -5.349  13.858  1.00  0.00    -0.085 SA
HETATM   17  C2  UNL     1      40.888  -4.514  12.396  1.00  0.00     0.054 A
HETATM   18  C3  UNL     1      39.634  -3.993  12.576  1.00  0.00     0.040 A
ENDBRANCH  12  13
BRANCH  12  19
HETATM   19  C5  UNL     1      36.577  -4.537  13.741  1.00  0.00     0.377 C
HETATM   20  O1  UNL     1      35.887  -5.319  14.415  1.00  0.00    -0.282 OA
ENDBRANCH  12  19
ENDBRANCH   1  12
BRANCH  10  21
HETATM   21  C10 UNL     1      37.228  -0.030  12.025  1.00  0.00     0.375 C
BRANCH  21  22
HETATM   22  N7  UNL     1      36.677  -0.225  10.720  1.00  0.00    -0.056 N
ATOM     23  H73 UNL     1      36.226  -1.138  10.662  1.00  0.00     0.275 HD
ATOM     24  H72 UNL     1      35.868   0.381  10.585  1.00  0.00     0.275 HD
ATOM     25  H71 UNL     1      37.338  -0.108   9.952  1.00  0.00     0.275 HD
ENDBRANCH  21  22
BRANCH  21  26
HETATM   26  C11 UNL     1      36.697   1.242  12.567  1.00  0.00     0.214 C
HETATM   27  O3  UNL     1      35.681   1.236  13.291  1.00  0.00    -0.646 OA
HETATM   28  O4  UNL     1      37.323   2.428  12.274  1.00  0.00    -0.646 OA
ENDBRANCH  21  26
ENDBRANCH  10  21
TORSDOF 6
ENDMDL