MODEL 1
REMARK VINA RESULT: -5.125625127      0.000      0.000
REMARK  4 active torsions:
REMARK  status: ('A' for Active; 'I' for Inactive)
REMARK       I    between atoms: N1_1  and  C1_5
REMARK       I    between atoms: C1_5  and  N2_6
REMARK       I    between atoms: C1_5  and  N3_10
REMARK    1  A    between atoms: N3_10  and  N4_11
REMARK       I    between atoms: N4_11  and  C2_13
REMARK    2  A    between atoms: C2_13  and  C3_15
REMARK    3  A    between atoms: C5_18  and  C6_19
REMARK    4  A    between atoms: C9_26  and  C10_27
ROOT
HETATM    1  C3  UNL     1      34.167  -8.403  11.812  1.00  0.00     0.190 A
HETATM    2  S1  UNL     1      33.615  -9.411  13.264  1.00  0.00    -0.100 SA
HETATM    3  C4  UNL     1      35.034  -8.898  14.277  1.00  0.00     0.078 C
HETATM    4  C5  UNL     1      35.957  -8.578  13.405  1.00  0.00     0.098 C
HETATM    5  N5  UNL     1      35.640  -8.740  12.062  1.00  0.00    -0.221 NA
HETATM    6  C7  UNL     1      34.980  -8.807  10.784  1.00  0.00     0.139 A
HETATM    7  S2  UNL     1      35.504  -7.782   9.462  1.00  0.00    -0.106 SA
HETATM    8  C8  UNL     1      35.502  -9.469   8.920  1.00  0.00     0.055 A
HETATM    9  C9  UNL     1      35.088 -10.046  10.040  1.00  0.00    -0.008 A
ENDROOT
BRANCH   1  10
HETATM   10  C2  UNL     1      33.961  -6.947  12.089  1.00  0.00     0.271 C
HETATM   11  N4  UNL     1      34.880  -5.970  11.618  1.00  0.00    -0.268 N
ATOM     12  H4  UNL     1      35.696  -6.263  11.080  1.00  0.00     0.185 HD
HETATM   13  O1  UNL     1      32.971  -6.536  12.746  1.00  0.00    -0.269 OA
BRANCH  11  14
HETATM   14  N3  UNL     1      34.680  -4.637  11.879  1.00  0.00    -0.078 NA
HETATM   15  C1  UNL     1      35.600  -4.095  12.871  1.00  0.00     0.490 C
HETATM   16  N1  UNL     1      35.265  -2.697  13.026  1.00  0.00    -0.035 N
HETATM   17  N2  UNL     1      35.430  -4.811  14.134  1.00  0.00    -0.035 N
ATOM     18  H13 UNL     1      34.327  -2.573  13.407  1.00  0.00     0.278 HD
ATOM     19  H12 UNL     1      35.795  -2.263  13.782  1.00  0.00     0.278 HD
ATOM     20  H11 UNL     1      35.384  -2.197  12.146  1.00  0.00     0.278 HD
ATOM     21  H23 UNL     1      35.960  -4.377  14.889  1.00  0.00     0.278 HD
ATOM     22  H22 UNL     1      34.491  -4.687  14.515  1.00  0.00     0.278 HD
ATOM     23  H21 UNL     1      35.666  -5.798  14.024  1.00  0.00     0.278 HD
ENDBRANCH  11  14
ENDBRANCH   1  10
BRANCH   4  24
HETATM   24  C6  UNL     1      37.291  -8.096  13.840  1.00  0.00     0.221 C
HETATM   25  O2  UNL     1      37.517  -6.887  14.113  1.00  0.00    -0.643 OA
HETATM   26  O3  UNL     1      38.372  -8.959  13.969  1.00  0.00    -0.643 OA
ENDBRANCH   4  24
BRANCH   9  27
HETATM   27  C10 UNL     1      34.830 -11.458  10.393  1.00  0.00     0.260 C
HETATM   28  F1  UNL     1      33.471 -11.654  10.401  1.00  0.00    -0.251 F
ENDBRANCH   9  27
TORSDOF 4
ENDMDL