MODEL 3
REMARK VINA RESULT: -6.619682043      4.970      7.934
REMARK  6 active torsions:
REMARK  status: ('A' for Active; 'I' for Inactive)
REMARK    1  A    between atoms: C3_4  and  N2_5
REMARK    2  A    between atoms: N2_5  and  C4_7
REMARK    3  A    between atoms: N3_8  and  N4_10
REMARK    4  A    between atoms: C5_17  and  N7_18
REMARK    5  A    between atoms: C6_22  and  C7_23
REMARK    6  A    between atoms: C8_30  and  N13_31
ROOT
HETATM    1  N1  UNL     1      37.644   0.372  13.334  1.00  0.00    -0.191 NA
HETATM    2  C1  UNL     1      37.097  -0.617  13.090  1.00  0.00     0.107 C
HETATM    3  C2  UNL     1      36.402  -1.839  12.806  1.00  0.00     0.133 A
HETATM    4  C3  UNL     1      36.270  -2.750  13.823  1.00  0.00     0.146 A
HETATM    5  N6  UNL     1      35.620  -3.900  13.570  1.00  0.00    -0.172 N
ATOM      6  H6  UNL     1      35.523  -4.575  14.328  1.00  0.00     0.186 HD
HETATM    7  C5  UNL     1      35.093  -4.211  12.374  1.00  0.00     0.720 A
HETATM    8  N12 UNL     1      35.234  -3.307  11.393  1.00  0.00    -0.172 N
ATOM      9  H12 UNL     1      34.843  -3.515  10.474  1.00  0.00     0.186 HD
HETATM   10  C8  UNL     1      35.873  -2.132  11.576  1.00  0.00     0.139 A
ENDROOT
BRANCH   4  11
HETATM   11  N2  UNL     1      36.798  -2.498  15.118  1.00  0.00    -0.336 N
ATOM     12  H2  UNL     1      36.410  -1.749  15.691  1.00  0.00     0.168 HD
BRANCH  11  13
HETATM   13  C4  UNL     1      37.868  -3.294  15.613  1.00  0.00     0.200 C
HETATM   14  N3  UNL     1      38.204  -3.181  16.850  1.00  0.00    -0.282 N
ATOM     15  H3  UNL     1      38.970  -3.745  17.219  1.00  0.00     0.189 HD
BRANCH  14  16
HETATM   16  N4  UNL     1      37.532  -2.295  17.692  1.00  0.00    -0.248 N
HETATM   17  N5  UNL     1      38.187  -1.501  18.412  1.00  0.00    -0.331 N
ATOM     18  H52 UNL     1      39.206  -1.517  18.369  1.00  0.00     0.178 HD
ATOM     19  H51 UNL     1      37.695  -0.853  19.026  1.00  0.00     0.178 HD
ATOM     20  H4  UNL     1      36.513  -2.293  17.723  1.00  0.00     0.207 HD
ENDBRANCH  14  16
ENDBRANCH  11  13
ENDBRANCH   4  11
BRANCH  10  21
HETATM   21  N13 UNL     1      35.995  -1.279  10.613  1.00  0.00    -0.384 N
ATOM     22 2H13 UNL     1      35.840  -0.283  10.767  1.00  0.00     0.157 HD
ATOM     23 1H13 UNL     1      36.252  -1.608   9.682  1.00  0.00     0.157 HD
ENDBRANCH  10  21
BRANCH   7  24
HETATM   24  N7  UNL     1      34.407  -5.445  12.137  1.00  0.00    -0.003 N
HETATM   25  N8  UNL     1      33.091  -5.578  12.119  1.00  0.00     0.018 NA
HETATM   26  N9  UNL     1      32.736  -6.828  11.877  1.00  0.00    -0.264 N
HETATM   27  C6  UNL     1      33.883  -7.512  11.737  1.00  0.00     0.171 A
ATOM     28  H9  UNL     1      31.787  -7.197  11.810  1.00  0.00     0.186 HD
HETATM   29  N11 UNL     1      34.921  -6.637  11.901  1.00  0.00    -0.247 N
ATOM     30  H11 UNL     1      35.914  -6.865  11.850  1.00  0.00     0.191 HD
BRANCH  27  31
HETATM   31  C7  UNL     1      33.968  -8.929  11.459  1.00  0.00     0.159 C
HETATM   32  N10 UNL     1      33.042  -9.808  12.063  1.00  0.00    -0.086 NA
HETATM   33  S1  UNL     1      35.106  -9.527  10.468  1.00  0.00    -0.060 SA
ENDBRANCH  27  31
ENDBRANCH   7  24
TORSDOF 6
ENDMDL