MODEL 5
REMARK VINA RESULT: -7.436397980      1.303      1.308
REMARK  6 active torsions:
REMARK  status: ('A' for Active; 'I' for Inactive)
REMARK    1  A    between atoms: O1_2  and  C2_3
REMARK    2  A    between atoms: C3_4  and  O2_5
REMARK    3  A    between atoms: C4_8  and  C5_9
REMARK    4  A    between atoms: C10_15  and  O4_16
REMARK    5  A    between atoms: O4_16  and  C11_17
REMARK    6  A    between atoms: C13_21  and  O7_22
ROOT
HETATM    1  C5  UNL     1      30.368  11.043   2.230  1.00  0.00    -0.021 C
HETATM    2  C6  UNL     1      31.457  11.764   2.054  1.00  0.00    -0.015 C
HETATM    3  C7  UNL     1      31.522  12.824   1.014  1.00  0.00     0.052 C
HETATM    4  C8  UNL     1      30.172  13.502   1.050  1.00  0.00     0.116 C
HETATM    5 CL1  UNL     1      30.110  14.958   0.089  1.00  0.00    -0.120 Cl
HETATM    6  C9  UNL     1      29.058  12.522   0.759  1.00  0.00    -0.035 C
HETATM    7  C10 UNL     1      28.117  12.871  -0.060  1.00  0.00     0.153 C
HETATM    8  C12 UNL     1      29.110  11.225   1.423  1.00  0.00     0.079 C
ENDROOT
BRANCH   1   9
HETATM    9  C4  UNL     1      30.371  10.010   3.273  1.00  0.00     0.120 A
HETATM   10  O3  UNL     1      29.606  10.024   4.363  1.00  0.00    -0.282 OA
HETATM   11  C3  UNL     1      29.805   8.990   5.125  1.00  0.00     0.221 A
HETATM   12  C2  UNL     1      30.761   8.187   4.562  1.00  0.00     0.163 A
HETATM   13  C13 UNL     1      31.109   8.853   3.381  1.00  0.00     0.139 A
BRANCH  11  14
HETATM   14  O2  UNL     1      29.176   8.683   6.348  1.00  0.00    -0.339 OA
ATOM     15  H2  UNL     1      28.233   8.601   6.433  1.00  0.00     0.220 HD
ENDBRANCH  11  14
BRANCH  12  16
HETATM   16  O1  UNL     1      31.297   6.989   5.004  1.00  0.00    -0.349 OA
HETATM   17  C1  UNL     1      30.434   5.853   5.009  1.00  0.00     0.210 C
ENDBRANCH  12  16
BRANCH  13  18
HETATM   18  O7  UNL     1      32.057   8.383   2.495  1.00  0.00    -0.355 OA
ATOM     19  H7  UNL     1      32.646   7.664   2.692  1.00  0.00     0.218 HD
ENDBRANCH  13  18
ENDBRANCH   1   9
BRANCH   7  20
HETATM   20  O4  UNL     1      27.015  12.401  -0.588  1.00  0.00    -0.265 OA
BRANCH  20  21
HETATM   21  C11 UNL     1      26.596  11.531  -1.457  1.00  0.00     0.337 C
HETATM   22  O5  UNL     1      26.472  10.337  -1.173  1.00  0.00    -0.623 OA
HETATM   23  O6  UNL     1      26.236  11.856  -2.813  1.00  0.00    -0.623 OA
ENDBRANCH  20  21
ENDBRANCH   7  20
TORSDOF 6
ENDMDL