MODEL 3
REMARK VINA RESULT: -8.632750339      2.044      2.398
REMARK  6 active torsions:
REMARK  status: ('A' for Active; 'I' for Inactive)
REMARK    1  A    between atoms: C4_4  and  N1_5
REMARK    2  A    between atoms: C7_9  and  O2_10
REMARK    3  A    between atoms: C8_12  and  N2_13
REMARK    4  A    between atoms: N2_13  and  O3_15
REMARK    5  A    between atoms: C9_17  and  C10_18
REMARK    6  A    between atoms: C11_21  and  O4_22
ROOT
HETATM    1  N1  UNL     1      30.706  13.425   0.802  1.00  0.00    -0.297 N
HETATM    2  C5  UNL     1      30.951  12.306   1.615  1.00  0.00     0.265 C
HETATM    3  O1  UNL     1      31.979  12.191   2.276  1.00  0.00    -0.267 OA
HETATM    4  C6  UNL     1      29.989  11.181   1.721  1.00  0.00     0.097 A
HETATM    5  C7  UNL     1      30.245  10.097   2.537  1.00  0.00     0.113 A
HETATM    6  C8  UNL     1      29.295   9.107   2.575  1.00  0.00     0.102 A
HETATM    7  C9  UNL     1      28.120   9.133   1.856  1.00  0.00     0.072 A
HETATM    8  C11 UNL     1      27.908  10.248   1.048  1.00  0.00     0.107 A
HETATM    9  C12 UNL     1      28.836  11.270   0.978  1.00  0.00     0.083 A
HETATM   10  N3  UNL     1      28.648  12.412   0.165  1.00  0.00    -0.361 N
ATOM     11  H3  UNL     1      27.700  12.696  -0.081  1.00  0.00     0.162 HD
HETATM   12  C13 UNL     1      29.773  13.194  -0.331  1.00  0.00     0.105 C
HETATM   13  C14 UNL     1      30.449  12.391  -1.410  1.00  0.00     0.063 C
HETATM   14  C15 UNL     1      29.237  14.492  -0.837  1.00  0.00     0.063 C
ENDROOT
BRANCH   1  15
HETATM   15  C4  UNL     1      31.183  14.708   0.993  1.00  0.00     0.099 C
HETATM   16  C2  UNL     1      32.190  15.429   0.679  1.00  0.00    -0.072 C
HETATM   17  C1  UNL     1      33.359  15.078  -0.111  1.00  0.00     0.044 C
HETATM   18  C3  UNL     1      32.195  16.881   1.191  1.00  0.00     0.044 C
ENDBRANCH   1  15
BRANCH   5  19
HETATM   19  O2  UNL     1      31.418  10.074   3.252  1.00  0.00    -0.357 OA
ATOM     20  H2  UNL     1      31.421  10.431   4.131  1.00  0.00     0.217 HD
ENDBRANCH   5  19
BRANCH   6  21
HETATM   21  N2  UNL     1      29.523   7.973   3.404  1.00  0.00    -0.266 N
ATOM     22  H2  UNL     1      28.824   7.653   4.073  1.00  0.00     0.194 HD
BRANCH  21  23
HETATM   23  O3  UNL     1      30.618   7.390   3.273  1.00  0.00    -0.289 OA
ATOM     24  H3  UNL     1      30.823   7.048   2.410  1.00  0.00     0.244 HD
ENDBRANCH  21  23
ENDBRANCH   6  21
BRANCH   8  25
HETATM   25  O4  UNL     1      26.750  10.328   0.307  1.00  0.00    -0.358 OA
ATOM     26  H4  UNL     1      25.971  10.697   0.705  1.00  0.00     0.217 HD
ENDBRANCH   8  25
BRANCH   7  27
HETATM   27  C10 UNL     1      27.150   8.014   1.961  1.00  0.00     0.392 C
HETATM   28  F1  UNL     1      26.788   7.692   0.651  1.00  0.00    -0.209 F
HETATM   29  F2  UNL     1      26.033   8.452   2.621  1.00  0.00    -0.209 F
ENDBRANCH   7  27
TORSDOF 6
ENDMDL