MODEL 1
REMARK VINA RESULT: -8.483799302      0.000      0.000
REMARK  7 active torsions:
REMARK  status: ('A' for Active; 'I' for Inactive)
REMARK    1  A    between atoms: C2_2  and  C4_4
REMARK    2  A    between atoms: C4_4  and  C5_6
REMARK    3  A    between atoms: C4_4  and  N1_11
REMARK    4  A    between atoms: C9_12  and  O1_13
REMARK    5  A    between atoms: C10_15  and  O2_16
REMARK    6  A    between atoms: C11_18  and  C12_19
REMARK    7  A    between atoms: C14_23  and  O3_24
ROOT
HETATM    1  N1  UNL     1      28.452  11.872   1.134  1.00  0.00    -0.259 N
HETATM    2  C9  UNL     1      29.381  11.770   2.110  1.00  0.00     0.182 A
HETATM    3  C10 UNL     1      29.391  10.498   2.622  1.00  0.00     0.133 A
HETATM    4  C11 UNL     1      28.439   9.779   1.945  1.00  0.00     0.101 A
HETATM    5  C14 UNL     1      27.880  10.656   1.035  1.00  0.00     0.163 A
ENDROOT
BRANCH   1   6
HETATM    6  C4  UNL     1      28.188  13.084   0.390  1.00  0.00     0.243 C
HETATM    7  F1  UNL     1      26.852  12.976  -0.034  1.00  0.00    -0.207 F
BRANCH   6   8
HETATM    8  C2  UNL     1      28.200  14.299   1.265  1.00  0.00    -0.028 C
HETATM    9  C1  UNL     1      27.346  14.495   2.239  1.00  0.00     0.019 C
HETATM   10  C3  UNL     1      29.244  15.353   1.031  1.00  0.00     0.048 C
ENDBRANCH   6   8
BRANCH   6  11
HETATM   11  C5  UNL     1      29.066  13.251  -0.797  1.00  0.00     0.047 A
HETATM   12  C6  UNL     1      28.739  13.569  -2.087  1.00  0.00     0.021 A
HETATM   13  C7  UNL     1      29.730  13.659  -2.978  1.00  0.00     0.008 A
HETATM   14  C8  UNL     1      31.004  13.425  -2.531  1.00  0.00     0.050 A
HETATM   15  S1  UNL     1      30.761  13.087  -0.874  1.00  0.00    -0.101 SA
ENDBRANCH   6  11
ENDBRANCH   1   6
BRANCH   2  16
HETATM   16  O1  UNL     1      30.209  12.788   2.546  1.00  0.00    -0.344 OA
ATOM     17  H1  UNL     1      30.599  12.856   3.410  1.00  0.00     0.219 HD
ENDBRANCH   2  16
BRANCH   5  18
HETATM   18  O3  UNL     1      26.879  10.315   0.161  1.00  0.00    -0.345 OA
ATOM     19  H3  UNL     1      26.842   9.515  -0.351  1.00  0.00     0.219 HD
ENDBRANCH   5  18
BRANCH   3  20
HETATM   20  O2  UNL     1      30.202  10.028   3.626  1.00  0.00    -0.356 OA
ATOM     21  H2  UNL     1      29.931   9.513   4.377  1.00  0.00     0.218 HD
ENDBRANCH   3  20
BRANCH   4  22
HETATM   22  C12 UNL     1      28.057   8.343   2.128  1.00  0.00     0.274 C
HETATM   23  C13 UNL     1      26.843   8.321   3.023  1.00  0.00     0.096 C
HETATM   24  F2  UNL     1      27.782   7.766   0.914  1.00  0.00    -0.201 F
HETATM   25  F3  UNL     1      29.125   7.658   2.675  1.00  0.00    -0.201 F
ENDBRANCH   4  22
TORSDOF 7
ENDMDL