MODEL 3
REMARK VINA RESULT: -8.422847736      1.401      1.649
REMARK  6 active torsions:
REMARK  status: ('A' for Active; 'I' for Inactive)
REMARK    1  A    between atoms: C4_4  and  O1_5
REMARK    2  A    between atoms: O1_5  and  C5_6
REMARK    3  A    between atoms: C6_9  and  O2_10
REMARK    4  A    between atoms: C10_15  and  O3_16
REMARK    5  A    between atoms: N1_18  and  C11_19
REMARK    6  A    between atoms: C16_25  and  O5_26
ROOT
HETATM    1  C1  UNL     1      29.125  14.089  -0.961  1.00  0.00     0.069 C
HETATM    2  C2  UNL     1      29.861  13.217  -0.022  1.00  0.00     0.024 A
HETATM    3  C3  UNL     1      29.349  12.070   0.541  1.00  0.00     0.038 A
HETATM    4  C4  UNL     1      28.164  11.376   0.484  1.00  0.00     0.121 A
HETATM    5  C6  UNL     1      27.987  10.208   1.229  1.00  0.00     0.110 A
HETATM    6  C7  UNL     1      28.978   9.724   2.031  1.00  0.00     0.022 A
HETATM    7  C8  UNL     1      30.171  10.423   2.087  1.00  0.00     0.037 A
HETATM    8  C9  UNL     1      30.375  11.580   1.362  1.00  0.00     0.044 A
HETATM    9  C10 UNL     1      31.440  12.445   1.252  1.00  0.00     0.155 A
HETATM   10  N1  UNL     1      31.122  13.442   0.406  1.00  0.00    -0.326 N
HETATM   11  C14 UNL     1      31.091   9.740   2.994  1.00  0.00     0.164 C
HETATM   12  O4  UNL     1      32.107  10.137   3.599  1.00  0.00    -0.292 OA
HETATM   13  C15 UNL     1      30.571   8.350   3.095  1.00  0.00     0.120 C
HETATM   14  C16 UNL     1      29.076   8.563   2.899  1.00  0.00     0.162 C
ENDROOT
BRANCH   4  15
HETATM   15  O1  UNL     1      27.124  11.794  -0.297  1.00  0.00    -0.286 OA
BRANCH  15  16
HETATM   16  C5  UNL     1      26.823  11.339  -1.597  1.00  0.00     0.505 C
HETATM   17  F1  UNL     1      27.847  11.331  -2.478  1.00  0.00    -0.184 F
HETATM   18  F2  UNL     1      25.913  12.313  -2.099  1.00  0.00    -0.184 F
ENDBRANCH  15  16
ENDBRANCH   4  15
BRANCH   5  19
HETATM   19  O2  UNL     1      26.790   9.552   1.140  1.00  0.00    -0.357 OA
ATOM     20  H2  UNL     1      25.993  10.033   1.327  1.00  0.00     0.217 HD
ENDBRANCH   5  19
BRANCH  10  21
HETATM   21  C11 UNL     1      31.933  14.566  -0.004  1.00  0.00     0.092 A
HETATM   22  C12 UNL     1      33.135  14.981   0.728  1.00  0.00     0.028 A
HETATM   23  C13 UNL     1      31.875  15.759   0.950  1.00  0.00     0.028 A
ENDBRANCH  10  21
BRANCH   9  24
HETATM   24  O3  UNL     1      32.690  12.372   1.883  1.00  0.00    -0.345 OA
ATOM     25  H3  UNL     1      33.048  12.945   2.551  1.00  0.00     0.219 HD
ENDBRANCH   9  24
BRANCH  14  26
HETATM   26  O5  UNL     1      28.585   7.390   2.334  1.00  0.00    -0.390 OA
ATOM     27  H5  UNL     1      28.246   6.768   2.967  1.00  0.00     0.210 HD
ENDBRANCH  14  26
TORSDOF 6
ENDMDL