MODEL 5
REMARK VINA RESULT: -7.587687685      3.605      7.629
REMARK  7 active torsions:
REMARK  status: ('A' for Active; 'I' for Inactive)
REMARK    1  A    between atoms: O1_2  and  C2_3
REMARK    2  A    between atoms: C2_3  and  C3_5
REMARK    3  A    between atoms: C4_6  and  O3_7
REMARK    4  A    between atoms: C5_9  and  O4_10
REMARK    5  A    between atoms: C7_14  and  N1_15
REMARK    6  A    between atoms: N2_17  and  N3_19
REMARK    7  A    between atoms: C14_26  and  O5_27
ROOT
HETATM    1  C3  UNL     1      28.413  11.832  -0.916  1.00  0.00     0.111 A
HETATM    2  C4  UNL     1      28.790  13.129  -0.632  1.00  0.00     0.121 A
HETATM    3  C5  UNL     1      29.101  13.571   0.646  1.00  0.00     0.141 A
HETATM    4  C6  UNL     1      29.018  12.630   1.660  1.00  0.00     0.183 A
HETATM    5  F1  UNL     1      29.318  13.033   2.918  1.00  0.00    -0.200 F
HETATM    6  C7  UNL     1      28.645  11.328   1.397  1.00  0.00     0.125 A
HETATM    7  C14 UNL     1      28.341  10.924   0.114  1.00  0.00     0.116 A
ENDROOT
BRANCH   6   8
HETATM    8  N1  UNL     1      28.559  10.361   2.435  1.00  0.00    -0.281 N
HETATM    9  N2  UNL     1      29.454   9.456   2.583  1.00  0.00    -0.244 N
ATOM     10  H2  UNL     1      30.256   9.408   1.954  1.00  0.00     0.208 HD
ATOM     11  H1  UNL     1      27.767  10.389   3.077  1.00  0.00     0.188 HD
BRANCH   9  12
HETATM   12  N3  UNL     1      29.309   8.541   3.623  1.00  0.00    -0.314 N
HETATM   13  C8  UNL     1      28.735   7.252   3.345  1.00  0.00     0.144 C
HETATM   14  C9  UNL     1      29.515   6.149   4.028  1.00  0.00     0.021 C
HETATM   15  C10 UNL     1      29.431   6.197   5.517  1.00  0.00     0.002 C
HETATM   16  C11 UNL     1      30.546   6.979   6.160  1.00  0.00     0.002 C
HETATM   17  C12 UNL     1      30.977   8.163   5.345  1.00  0.00     0.021 C
HETATM   18  C13 UNL     1      29.767   8.987   4.942  1.00  0.00     0.144 C
ENDBRANCH   9  12
ENDBRANCH   6   8
BRANCH   7  19
HETATM   19  O5  UNL     1      27.962   9.590  -0.123  1.00  0.00    -0.357 OA
ATOM     20  H5  UNL     1      27.060   9.366  -0.319  1.00  0.00     0.217 HD
ENDBRANCH   7  19
BRANCH   3  21
HETATM   21  O4  UNL     1      29.477  14.887   0.895  1.00  0.00    -0.355 OA
ATOM     22  H4  UNL     1      30.264  15.263   0.517  1.00  0.00     0.218 HD
ENDBRANCH   3  21
BRANCH   1  23
HETATM   23  C2  UNL     1      28.094  11.395  -2.256  1.00  0.00     0.298 C
HETATM   24  O2  UNL     1      28.677  10.399  -2.731  1.00  0.00    -0.259 OA
BRANCH  23  25
HETATM   25  O1  UNL     1      27.159  12.066  -3.005  1.00  0.00    -0.322 OA
HETATM   26  C1  UNL     1      27.285  12.263  -4.412  1.00  0.00     0.213 C
ENDBRANCH  23  25
ENDBRANCH   1  23
BRANCH   2  27
HETATM   27  O3  UNL     1      28.865  14.049  -1.664  1.00  0.00    -0.357 OA
ATOM     28  H3  UNL     1      29.715  14.264  -2.028  1.00  0.00     0.218 HD
ENDBRANCH   2  27
TORSDOF 7
ENDMDL