MODEL 3
REMARK VINA RESULT: -7.747757476      1.762      2.245
REMARK  6 active torsions:
REMARK  status: ('A' for Active; 'I' for Inactive)
REMARK    1  A    between atoms: C2_2  and  C3_3
REMARK    2  A    between atoms: C3_3  and  C4_5
REMARK    3  A    between atoms: C5_6  and  O2_7
REMARK    4  A    between atoms: C8_11  and  O3_12
REMARK    5  A    between atoms: C10_17  and  O5_18
REMARK    6  A    between atoms: C13_22  and  C14_23
ROOT
HETATM    1  C4  UNL     1      28.946   9.007   3.167  1.00  0.00     0.070 A
HETATM    2  C5  UNL     1      30.054   9.859   3.066  1.00  0.00     0.117 A
HETATM    3  C6  UNL     1      30.114  10.905   2.171  1.00  0.00     0.140 A
HETATM    4  C7  UNL     1      29.039  11.122   1.340  1.00  0.00     0.143 A
HETATM    5  C8  UNL     1      27.931  10.315   1.401  1.00  0.00     0.125 A
HETATM    6  C9  UNL     1      27.904   9.263   2.321  1.00  0.00     0.086 A
HETATM    7 CL1  UNL     1      26.482   8.240   2.388  1.00  0.00    -0.080 Cl
HETATM    8  O4  UNL     1      28.802  12.072   0.354  1.00  0.00    -0.315 OA
HETATM    9  C10 UNL     1      29.548  12.831  -0.579  1.00  0.00     0.263 C
HETATM   10  C11 UNL     1      31.015  12.881  -0.212  1.00  0.00     0.063 C
HETATM   11  C12 UNL     1      31.274  13.596   1.066  1.00  0.00     0.040 C
HETATM   12  C13 UNL     1      31.920  12.791   2.142  1.00  0.00     0.158 C
HETATM   13  O6  UNL     1      31.341  11.525   2.349  1.00  0.00    -0.338 OA
ENDROOT
BRANCH   1  14
HETATM   14  C3  UNL     1      29.011   7.953   4.143  1.00  0.00     0.163 C
HETATM   15  O1  UNL     1      28.758   8.248   5.367  1.00  0.00    -0.292 OA
BRANCH  14  16
HETATM   16  C2  UNL     1      29.344   6.534   3.884  1.00  0.00     0.079 C
HETATM   17  C1  UNL     1      30.409   6.047   4.885  1.00  0.00     0.013 C
ENDBRANCH  14  16
ENDBRANCH   1  14
BRANCH   2  18
HETATM   18  O2  UNL     1      31.144   9.657   3.893  1.00  0.00    -0.357 OA
ATOM     19  H2  UNL     1      31.968  10.085   3.692  1.00  0.00     0.217 HD
ENDBRANCH   2  18
BRANCH   5  20
HETATM   20  O3  UNL     1      26.863  10.542   0.564  1.00  0.00    -0.356 OA
ATOM     21  H3  UNL     1      26.655  11.425   0.284  1.00  0.00     0.218 HD
ENDBRANCH   5  20
BRANCH  12  22
HETATM   22  C14 UNL     1      33.402  12.579   1.928  1.00  0.00     0.254 C
HETATM   23  F1  UNL     1      33.778  11.279   2.192  1.00  0.00    -0.253 F
ENDBRANCH  12  22
BRANCH   9  24
HETATM   24  O5  UNL     1      29.424  12.339  -1.863  1.00  0.00    -0.371 OA
ATOM     25  H5  UNL     1      30.268  12.158  -2.258  1.00  0.00     0.212 HD
ENDBRANCH   9  24
TORSDOF 6
ENDMDL