MODEL 5
REMARK VINA RESULT: -6.784926057      1.530      2.433
REMARK  8 active torsions:
REMARK  status: ('A' for Active; 'I' for Inactive)
REMARK    1  A    between atoms: C2_2  and  O1_3
REMARK    2  A    between atoms: O1_3  and  C3_4
REMARK    3  A    between atoms: C3_4  and  C4_6
REMARK    4  A    between atoms: C5_8  and  N1_9
REMARK    5  A    between atoms: N1_9  and  C6_11
REMARK    6  A    between atoms: C6_11  and  C8_15
REMARK    7  A    between atoms: C10_19  and  O3_20
REMARK    8  A    between atoms: C11_22  and  O4_23
ROOT
HETATM    1  C4  UNL     1      28.328   9.848   2.201  1.00  0.00     0.118 A
HETATM    2  S1  UNL     1      28.418  10.410   0.598  1.00  0.00    -0.060 SA
HETATM    3  C5  UNL     1      29.726  11.488   0.757  1.00  0.00     0.113 A
HETATM    4  C10 UNL     1      30.061  11.377   2.084  1.00  0.00     0.134 A
HETATM    5  C11 UNL     1      29.339  10.530   2.829  1.00  0.00     0.125 A
ENDROOT
BRANCH   3   6
HETATM    6  N1  UNL     1      30.355  12.331  -0.239  1.00  0.00    -0.336 N
ATOM      7  H1  UNL     1      31.371  12.339  -0.331  1.00  0.00     0.168 HD
BRANCH   6   8
HETATM    8  C6  UNL     1      29.564  13.141  -1.081  1.00  0.00     0.117 C
HETATM    9  N2  UNL     1      29.160  14.307  -0.732  1.00  0.00    -0.381 N
HETATM   10  C7  UNL     1      29.426  14.955   0.503  1.00  0.00     0.147 C
ATOM     11  H2  UNL     1      28.594  14.819  -1.407  1.00  0.00     0.160 HD
BRANCH   8  12
HETATM   12  C8  UNL     1      29.166  12.663  -2.421  1.00  0.00     0.167 C
HETATM   13  C9  UNL     1      29.589  13.635  -3.489  1.00  0.00     0.059 C
HETATM   14 CL1  UNL     1      30.035  11.126  -2.777  1.00  0.00    -0.093 Cl
HETATM   15 CL2  UNL     1      27.437  12.292  -2.523  1.00  0.00    -0.093 Cl
ENDBRANCH   8  12
ENDBRANCH   6   8
ENDBRANCH   3   6
BRANCH   4  16
HETATM   16  O3  UNL     1      31.135  12.133   2.640  1.00  0.00    -0.356 OA
ATOM     17  H3  UNL     1      31.603  11.830   3.410  1.00  0.00     0.218 HD
ENDBRANCH   4  16
BRANCH   1  18
HETATM   18  C3  UNL     1      27.387   8.863   2.784  1.00  0.00     0.303 C
HETATM   19  O2  UNL     1      26.374   8.540   2.129  1.00  0.00    -0.259 OA
BRANCH  18  20
HETATM   20  O1  UNL     1      27.633   8.326   4.016  1.00  0.00    -0.317 OA
BRANCH  20  21
HETATM   21  C2  UNL     1      27.973   6.966   4.225  1.00  0.00     0.174 C
HETATM   22  C1  UNL     1      29.365   6.639   3.739  1.00  0.00     0.034 C
ENDBRANCH  20  21
ENDBRANCH  18  20
ENDBRANCH   1  18
BRANCH   5  23
HETATM   23  O4  UNL     1      29.557  10.299   4.219  1.00  0.00    -0.356 OA
ATOM     24  H4  UNL     1      29.984  10.976   4.730  1.00  0.00     0.218 HD
ENDBRANCH   5  23
TORSDOF 8
ENDMDL