MODEL 1
REMARK VINA RESULT: -7.170482296      0.000      0.000
REMARK  6 active torsions:
REMARK  status: ('A' for Active; 'I' for Inactive)
REMARK    1  A    between atoms: C2_2  and  O1_3
REMARK    2  A    between atoms: O1_3  and  C3_4
REMARK    3  A    between atoms: C3_4  and  C4_5
REMARK    4  A    between atoms: C5_11  and  C6_12
REMARK    5  A    between atoms: C6_12  and  O2_13
REMARK    6  A    between atoms: N2_15  and  O3_17
ROOT
HETATM    1  C3  UNL     1      29.752  12.206   0.783  1.00  0.00     0.262 C
HETATM    2  N1  UNL     1      29.917  11.027   1.431  1.00  0.00    -0.368 N
ATOM      3  H1  UNL     1      30.803  11.050   1.937  1.00  0.00     0.157 HD
HETATM    4  C5  UNL     1      29.334   9.853   1.640  1.00  0.00     0.166 C
HETATM    5  C7  UNL     1      28.204   9.264   0.898  1.00  0.00     0.113 C
HETATM    6  S1  UNL     1      28.603   9.344  -0.856  1.00  0.00    -0.119 SA
HETATM    7  C8  UNL     1      28.770  11.065  -1.261  1.00  0.00     0.052 A
HETATM    8  S2  UNL     1      28.328  11.639  -2.806  1.00  0.00    -0.094 SA
HETATM    9  C9  UNL     1      28.743  13.271  -2.616  1.00  0.00     0.051 A
HETATM   10  C10 UNL     1      29.226  13.335  -1.333  1.00  0.00     0.021 A
HETATM   11  C11 UNL     1      29.232  12.166  -0.631  1.00  0.00     0.030 A
ENDROOT
BRANCH   1  12
HETATM   12  O1  UNL     1      30.994  12.805   0.625  1.00  0.00    -0.350 OA
BRANCH  12  13
HETATM   13  C2  UNL     1      32.006  12.552   1.448  1.00  0.00     0.167 C
HETATM   14  C1  UNL     1      32.414  13.942   2.017  1.00  0.00     0.033 C
ENDBRANCH  12  13
ENDBRANCH   1  12
BRANCH   1  15
HETATM   15  C4  UNL     1      28.859  13.091   1.612  1.00  0.00     0.442 C
HETATM   16  F1  UNL     1      27.533  12.823   1.590  1.00  0.00    -0.166 F
HETATM   17  F2  UNL     1      29.047  14.437   1.403  1.00  0.00    -0.166 F
HETATM   18  F3  UNL     1      29.230  12.839   2.962  1.00  0.00    -0.166 F
ENDBRANCH   1  15
BRANCH   4  19
HETATM   19  C6  UNL     1      28.971   9.683   3.108  1.00  0.00     0.159 C
HETATM   20  N2  UNL     1      29.849   9.775   4.032  1.00  0.00    -0.249 N
ATOM     21  H2  UNL     1      30.822   9.968   3.795  1.00  0.00     0.196 HD
BRANCH  19  22
HETATM   22  O2  UNL     1      27.664   9.421   3.486  1.00  0.00    -0.347 OA
ATOM     23  H2  UNL     1      27.375   9.586   4.375  1.00  0.00     0.219 HD
ENDBRANCH  19  22
BRANCH  20  24
HETATM   24  O3  UNL     1      29.484   9.616   5.335  1.00  0.00    -0.288 OA
ATOM     25  H3  UNL     1      29.994  10.026   6.024  1.00  0.00     0.244 HD
ENDBRANCH  20  24
ENDBRANCH   4  19
TORSDOF 6
ENDMDL