MODEL 5
REMARK VINA RESULT: -8.000895631      4.763      5.847
REMARK  5 active torsions:
REMARK  status: ('A' for Active; 'I' for Inactive)
REMARK    1  A    between atoms: C4_7  and  C5_8
REMARK    2  A    between atoms: C5_8  and  C6_9
REMARK    3  A    between atoms: C8_16  and  N3_17
REMARK    4  A    between atoms: C10_21  and  C11_22
REMARK    5  A    between atoms: C11_22  and  C12_24
ROOT
HETATM    1  C1  UNL     1      27.414  11.648  -2.378  1.00  0.00     0.069 C
HETATM    2  C2  UNL     1      27.746  11.192  -1.033  1.00  0.00     0.022 A
HETATM    3  N1  UNL     1      27.023  10.169  -0.476  1.00  0.00    -0.326 N
ATOM      4  H1  UNL     1      26.251   9.760  -1.004  1.00  0.00     0.169 HD
HETATM    5  C3  UNL     1      27.302   9.696   0.736  1.00  0.00     0.256 A
HETATM    6  O1  UNL     1      26.629   8.768   1.216  1.00  0.00    -0.267 OA
HETATM    7  C4  UNL     1      28.341  10.202   1.519  1.00  0.00     0.034 A
HETATM    8  C9  UNL     1      29.077  11.224   0.977  1.00  0.00     0.034 A
HETATM    9  C10 UNL     1      28.788  11.733  -0.299  1.00  0.00     0.037 A
ENDROOT
BRANCH   7  10
HETATM   10  C5  UNL     1      28.529   9.701   2.876  1.00  0.00     0.038 C
BRANCH  10  11
HETATM   11  C6  UNL     1      29.413   8.898   3.348  1.00  0.00     0.042 C
HETATM   12  S1  UNL     1      29.138   7.117   3.578  1.00  0.00    -0.063 SA
HETATM   13  C7  UNL     1      30.335   6.697   4.824  1.00  0.00     0.112 C
HETATM   14  N2  UNL     1      30.532   5.576   5.341  1.00  0.00    -0.388 N
HETATM   15  S2  UNL     1      31.199   8.211   5.196  1.00  0.00    -0.047 SA
ATOM     16  H22 UNL     1      30.038   4.710   5.127  1.00  0.00     0.157 HD
ATOM     17  H21 UNL     1      31.219   5.336   6.056  1.00  0.00     0.157 HD
HETATM   18  C8  UNL     1      30.775   9.196   3.729  1.00  0.00     0.087 C
BRANCH  18  19
HETATM   19  N3  UNL     1      31.613   9.979   3.176  1.00  0.00    -0.392 N
ATOM     20  H32 UNL     1      32.463   9.633   2.729  1.00  0.00     0.156 HD
ATOM     21  H31 UNL     1      31.576  10.992   3.071  1.00  0.00     0.156 HD
ENDBRANCH  18  19
ENDBRANCH  10  11
ENDBRANCH   7  10
BRANCH   9  22
HETATM   22  C11 UNL     1      29.476  12.906  -0.797  1.00  0.00     0.189 C
HETATM   23  O2  UNL     1      30.418  12.659  -1.658  1.00  0.00    -0.287 OA
BRANCH  22  24
HETATM   24  C12 UNL     1      29.267  14.273  -0.478  1.00  0.00     0.129 C
HETATM   25  C13 UNL     1      29.640  14.979   0.556  1.00  0.00     0.271 C
HETATM   26  F1  UNL     1      29.330  16.291   0.671  1.00  0.00    -0.173 F
HETATM   27  F2  UNL     1      30.377  14.438   1.527  1.00  0.00    -0.173 F
ENDBRANCH  22  24
ENDBRANCH   9  22
TORSDOF 5
ENDMDL