MODEL 1
REMARK VINA RESULT: -8.185534936      0.000      0.000
REMARK  7 active torsions:
REMARK  status: ('A' for Active; 'I' for Inactive)
REMARK    1  A    between atoms: C2_2  and  C3_7
REMARK    2  A    between atoms: N1_3  and  O1_5
REMARK    3  A    between atoms: N2_10  and  O2_11
REMARK    4  A    between atoms: C6_13  and  O3_14
REMARK    5  A    between atoms: C7_16  and  O4_18
REMARK    6  A    between atoms: O4_18  and  C9_19
REMARK    7  A    between atoms: C9_19  and  C10_20
ROOT
HETATM    1  C3  UNL     1      29.271   8.963   2.493  1.00  0.00     0.050 A
HETATM    2  C4  UNL     1      28.607   9.406   1.362  1.00  0.00    -0.007 A
HETATM    3  C5  UNL     1      29.191  10.608   1.022  1.00  0.00     0.090 A
HETATM    4  N2  UNL     1      30.171  10.864   1.929  1.00  0.00    -0.201 N
HETATM    5  C6  UNL     1      30.247   9.880   2.840  1.00  0.00     0.180 A
HETATM    6  C7  UNL     1      28.541  11.168  -0.189  1.00  0.00     0.168 C
HETATM    7  C8  UNL     1      27.453  12.110   0.278  1.00  0.00     0.060 C
HETATM    8  C14 UNL     1      27.839   9.965  -0.788  1.00  0.00     0.283 C
HETATM    9  F1  UNL     1      26.633  10.318  -1.360  1.00  0.00    -0.202 F
HETATM   10  F2  UNL     1      28.588   9.319  -1.730  1.00  0.00    -0.202 F
HETATM   11  C15 UNL     1      27.519   9.064   0.401  1.00  0.00     0.124 C
ENDROOT
BRANCH   6  12
HETATM   12  O4  UNL     1      29.463  11.744  -1.006  1.00  0.00    -0.367 OA
BRANCH  12  13
HETATM   13  C9  UNL     1      28.994  12.807  -1.753  1.00  0.00     0.177 C
BRANCH  13  14
HETATM   14  C10 UNL     1      29.230  12.643  -3.223  1.00  0.00    -0.030 C
HETATM   15  C11 UNL     1      27.990  12.309  -3.995  1.00  0.00     0.016 C
HETATM   16  C12 UNL     1      30.238  11.522  -3.500  1.00  0.00     0.016 C
HETATM   17  C13 UNL     1      29.891  13.920  -3.723  1.00  0.00     0.016 C
ENDBRANCH  13  14
ENDBRANCH  12  13
ENDBRANCH   6  12
BRANCH   4  18
HETATM   18  O2  UNL     1      30.988  11.965   1.941  1.00  0.00    -0.281 OA
ATOM     19  H2  UNL     1      31.418  12.332   2.705  1.00  0.00     0.245 HD
ENDBRANCH   4  18
BRANCH   1  20
HETATM   20  C2  UNL     1      28.980   7.715   3.205  1.00  0.00     0.043 C
HETATM   21  C1  UNL     1      27.616   7.462   3.722  1.00  0.00     0.071 C
HETATM   22  N1  UNL     1      29.895   6.839   3.384  1.00  0.00    -0.273 N
ATOM     23  H1  UNL     1      30.839   7.000   3.032  1.00  0.00     0.194 HD
BRANCH  22  24
HETATM   24  O1  UNL     1      29.597   5.685   4.051  1.00  0.00    -0.290 OA
ATOM     25  H1  UNL     1      29.219   5.735   4.920  1.00  0.00     0.244 HD
ENDBRANCH  22  24
ENDBRANCH   1  20
BRANCH   5  26
HETATM   26  O3  UNL     1      31.125   9.790   3.920  1.00  0.00    -0.344 OA
ATOM     27  H3  UNL     1      31.666   9.043   4.149  1.00  0.00     0.219 HD
ENDBRANCH   5  26
TORSDOF 7
ENDMDL