MODEL 4
REMARK VINA RESULT: -1.446386445      1.578      2.155
REMARK  3 active torsions:
REMARK  status: ('A' for Active; 'I' for Inactive)
REMARK    1  A    between atoms: C1_2  and  C8_17
REMARK    2  A    between atoms: N2_3  and  N3_5
REMARK       I    between atoms: N3_5  and  C2_7
REMARK    3  A    between atoms: C2_7  and  C3_9
ROOT
HETATM    1  N1  UNL     1     -39.369  -9.194  40.356  1.00  0.00    -0.079 NA
HETATM    2  C1  UNL     1     -39.166  -8.070  41.178  1.00  0.00     0.159 C
HETATM    3  N2  UNL     1     -38.606  -7.005  40.710  1.00  0.00    -0.283 N
ATOM      4  H2  UNL     1     -38.475  -6.212  41.338  1.00  0.00     0.188 HD
ENDROOT
BRANCH   2   5
HETATM    5  C8  UNL     1     -39.588  -8.099  42.573  1.00  0.00     0.094 A
HETATM    6  C9  UNL     1     -39.218  -8.981  43.570  1.00  0.00     0.151 A
HETATM    7  N6  UNL     1     -39.844  -8.654  44.733  1.00  0.00    -0.249 N
HETATM    8  N7  UNL     1     -39.829  -9.171  45.955  1.00  0.00    -0.302 N
HETATM    9  C13 UNL     1     -40.603  -7.575  44.472  1.00  0.00     0.129 A
HETATM   10  C10 UNL     1     -40.547  -8.667  46.972  1.00  0.00     0.134 A
ATOM     11  H7  UNL     1     -39.245  -9.990  46.129  1.00  0.00     0.186 HD
HETATM   12  C11 UNL     1     -41.342  -7.561  46.755  1.00  0.00     0.066 A
HETATM   13  N8  UNL     1     -42.115  -7.008  47.826  1.00  0.00    -0.101 NA
HETATM   14  C12 UNL     1     -41.357  -7.024  45.489  1.00  0.00     0.078 A
HETATM   15  N9  UNL     1     -40.444  -7.242  43.157  1.00  0.00    -0.337 N
ATOM     16  H9  UNL     1     -40.905  -6.461  42.689  1.00  0.00     0.167 HD
ENDBRANCH   2   5
BRANCH   3  17
HETATM   17  N3  UNL     1     -38.174  -6.885  39.401  1.00  0.00    -0.264 N
HETATM   18  C2  UNL     1     -36.836  -6.563  39.125  1.00  0.00     0.273 C
HETATM   19  O1  UNL     1     -36.062  -6.392  40.134  1.00  0.00    -0.266 OA
ATOM     20  H3  UNL     1     -38.830  -7.030  38.633  1.00  0.00     0.190 HD
BRANCH  18  21
HETATM   21  C3  UNL     1     -36.280  -6.413  37.788  1.00  0.00     0.073 A
HETATM   22  C4  UNL     1     -34.935  -6.538  37.556  1.00  0.00     0.106 A
HETATM   23  N4  UNL     1     -34.405  -6.399  36.309  1.00  0.00    -0.374 N
HETATM   24  C5  UNL     1     -35.169  -6.135  35.244  1.00  0.00     0.089 A
ATOM     25  H4  UNL     1     -33.398  -6.500  36.184  1.00  0.00     0.164 HD
HETATM   26  C6  UNL     1     -36.527  -6.000  35.431  1.00  0.00     0.044 A
HETATM   27  C7  UNL     1     -37.088  -6.140  36.704  1.00  0.00     0.064 A
HETATM   28  N5  UNL     1     -38.468  -6.005  36.906  1.00  0.00    -0.101 NA
ENDBRANCH  18  21
ENDBRANCH   3  17
TORSDOF 3
ENDMDL