MODEL 2
REMARK VINA RESULT: -6.188500151      0.822      1.019
REMARK  5 active torsions:
REMARK  status: ('A' for Active; 'I' for Inactive)
REMARK    1  A    between atoms: O1_2  and  C2_3
REMARK    2  A    between atoms: C2_3  and  C3_5
REMARK    3  A    between atoms: C4_8  and  C5_9
REMARK    4  A    between atoms: C8_12  and  S1_13
REMARK    5  A    between atoms: S1_13  and  N2_14
ROOT
HETATM    1  C5  UNL     1     -37.630  -7.062  38.824  1.00  0.00     0.066 A
HETATM    2  C6  UNL     1     -36.266  -7.108  38.819  1.00  0.00     0.024 A
HETATM    3  C7  UNL     1     -35.572  -6.466  37.811  1.00  0.00     0.052 A
HETATM    4  C8  UNL     1     -36.296  -5.805  36.844  1.00  0.00     0.192 A
HETATM    5  O5  UNL     1     -37.608  -5.780  36.876  1.00  0.00    -0.280 OA
HETATM    6  C9  UNL     1     -38.289  -6.380  37.824  1.00  0.00     0.157 A
HETATM    7  N3  UNL     1     -39.580  -6.369  37.874  1.00  0.00    -0.379 N
ATOM      8  H31 UNL     1     -40.069  -5.864  37.135  1.00  0.00     0.158 HD
ATOM      9  H32 UNL     1     -40.109  -6.835  38.611  1.00  0.00     0.158 HD
ENDROOT
BRANCH   1  10
HETATM   10  C4  UNL     1     -38.390  -7.735  39.884  1.00  0.00     0.165 A
HETATM   11  N1  UNL     1     -39.036  -8.908  39.763  1.00  0.00    -0.328 N
HETATM   12  C3  UNL     1     -39.618  -9.213  40.930  1.00  0.00     0.159 A
ATOM     13  H1  UNL     1     -39.076  -9.475  38.917  1.00  0.00     0.168 HD
HETATM   14  C10 UNL     1     -39.309  -8.182  41.784  1.00  0.00     0.192 A
HETATM   15  O6  UNL     1     -38.576  -7.326  41.115  1.00  0.00    -0.276 OA
HETATM   16  N4  UNL     1     -39.739  -8.110  43.145  1.00  0.00    -0.072 NA
BRANCH  12  17
HETATM   17  C2  UNL     1     -40.423 -10.396  41.256  1.00  0.00     0.313 C
HETATM   18  O2  UNL     1     -41.612 -10.455  40.878  1.00  0.00    -0.257 OA
BRANCH  17  19
HETATM   19  O1  UNL     1     -39.913 -11.452  41.968  1.00  0.00    -0.321 OA
HETATM   20  C1  UNL     1     -39.043 -12.427  41.373  1.00  0.00     0.213 C
ENDBRANCH  17  19
ENDBRANCH  12  17
ENDBRANCH   1  10
BRANCH   4  21
HETATM   21  S1  UNL     1     -35.418  -4.995  35.571  1.00  0.00     0.279 S
HETATM   22  O3  UNL     1     -36.332  -4.224  34.700  1.00  0.00    -0.199 OA
HETATM   23  O4  UNL     1     -34.659  -6.054  34.816  1.00  0.00    -0.199 OA
BRANCH  21  24
HETATM   24  N2  UNL     1     -34.252  -3.960  36.334  1.00  0.00    -0.323 N
ATOM     25  H22 UNL     1     -33.452  -4.270  36.888  1.00  0.00     0.169 HD
ATOM     26  H21 UNL     1     -34.520  -2.999  36.123  1.00  0.00     0.169 HD
ENDBRANCH  21  24
ENDBRANCH   4  21
TORSDOF 5
ENDMDL