MODEL 3
REMARK VINA RESULT: -3.577665153      1.090      2.849
REMARK  6 active torsions:
REMARK  status: ('A' for Active; 'I' for Inactive)
REMARK    1  A    between atoms: O1_2  and  C2_3
REMARK       I    between atoms: C2_3  and  N1_5
REMARK    2  A    between atoms: N1_5  and  N2_7
REMARK    3  A    between atoms: N3_9  and  C4_11
REMARK    4  A    between atoms: C10_22  and  N7_23
REMARK    5  A    between atoms: N8_26  and  C11_27
REMARK    6  A    between atoms: C11_27  and  O4_28
ROOT
HETATM    1  C4  UNL     1     -38.800  -6.097  39.660  1.00  0.00     0.148 A
HETATM    2  N4  UNL     1     -37.495  -6.346  39.918  1.00  0.00    -0.324 N
ATOM      3  H4  UNL     1     -37.096  -6.499  40.843  1.00  0.00     0.169 HD
HETATM    4  C5  UNL     1     -36.817  -6.359  38.779  1.00  0.00     0.145 A
HETATM    5  C6  UNL     1     -37.711  -6.112  37.752  1.00  0.00     0.105 A
HETATM    6  C7  UNL     1     -38.982  -5.942  38.301  1.00  0.00     0.111 A
HETATM    7  N5  UNL     1     -40.158  -5.673  37.552  1.00  0.00    -0.097 NA
HETATM    8  C8  UNL     1     -37.238  -6.078  36.478  1.00  0.00     0.277 A
HETATM    9  O3  UNL     1     -38.058  -5.852  35.550  1.00  0.00    -0.266 OA
HETATM   10  N6  UNL     1     -35.939  -6.279  36.224  1.00  0.00    -0.151 N
HETATM   11  C9  UNL     1     -35.461  -6.238  34.853  1.00  0.00     0.179 C
HETATM   12  C10 UNL     1     -35.091  -6.519  37.256  1.00  0.00     0.686 A
HETATM   13  N8  UNL     1     -35.507  -6.562  38.527  1.00  0.00    -0.145 N
ENDROOT
BRANCH   1  14
HETATM   14  N3  UNL     1     -39.842  -6.006  40.617  1.00  0.00    -0.269 N
HETATM   15  N2  UNL     1     -40.297  -7.078  41.105  1.00  0.00    -0.235 N
ATOM     16  H2  UNL     1     -41.045  -6.985  41.792  1.00  0.00     0.208 HD
ATOM     17  H3  UNL     1     -40.214  -5.100  40.904  1.00  0.00     0.190 HD
BRANCH  15  18
HETATM   18  N1  UNL     1     -39.892  -8.362  40.810  1.00  0.00    -0.226 N
HETATM   19  C2  UNL     1     -39.140  -9.091  41.759  1.00  0.00     0.382 C
HETATM   20  O2  UNL     1     -38.767 -10.261  41.499  1.00  0.00    -0.236 OA
HETATM   21  C3  UNL     1     -40.228  -8.970  39.549  1.00  0.00     0.185 C
BRANCH  19  22
HETATM   22  O1  UNL     1     -38.795  -8.550  42.987  1.00  0.00    -0.308 OA
HETATM   23  C1  UNL     1     -39.644  -8.686  44.126  1.00  0.00     0.215 C
ENDBRANCH  19  22
ENDBRANCH  15  18
ENDBRANCH   1  14
BRANCH  13  24
HETATM   24  C11 UNL     1     -34.579  -6.820  39.608  1.00  0.00     0.315 C
BRANCH  24  25
HETATM   25  O4  UNL     1     -33.594  -7.738  39.181  1.00  0.00    -0.381 OA
ATOM     26  H4  UNL     1     -33.247  -7.466  38.340  1.00  0.00     0.211 HD
ENDBRANCH  24  25
ENDBRANCH  13  24
BRANCH  12  27
HETATM   27  N7  UNL     1     -33.862  -6.699  36.920  1.00  0.00    -0.234 N
ATOM     28  H72 UNL     1     -33.588  -7.074  36.012  1.00  0.00     0.174 HD
ATOM     29  H71 UNL     1     -33.177  -6.441  37.631  1.00  0.00     0.174 HD
ENDBRANCH  12  27
TORSDOF 6
ENDMDL