MODEL 3
REMARK VINA RESULT: -5.871448593      1.609      2.510
REMARK  4 active torsions:
REMARK  status: ('A' for Active; 'I' for Inactive)
REMARK    1  A    between atoms: C2_2  and  O2_4
REMARK    2  A    between atoms: O2_4  and  C3_5
REMARK    3  A    between atoms: C3_5  and  N1_6
REMARK    4  A    between atoms: C5_9  and  C6_10
ROOT
HETATM    1  N1  UNL     1     -39.616  -8.596  40.412  1.00  0.00    -0.240 N
HETATM    2  C4  UNL     1     -38.664  -8.189  39.579  1.00  0.00     0.147 A
HETATM    3  N2  UNL     1     -37.634  -9.041  39.160  1.00  0.00    -0.081 NA
HETATM    4  C5  UNL     1     -38.667  -6.909  39.018  1.00  0.00     0.118 A
HETATM    5  C10 UNL     1     -39.694  -6.078  39.352  1.00  0.00     0.266 A
HETATM    6  O3  UNL     1     -39.769  -4.892  38.881  1.00  0.00    -0.267 OA
HETATM    7  N8  UNL     1     -40.676  -6.496  40.206  1.00  0.00    -0.274 N
ATOM      8  H8  UNL     1     -41.445  -5.874  40.456  1.00  0.00     0.173 HD
HETATM    9  C11 UNL     1     -40.612  -7.729  40.706  1.00  0.00     0.336 A
HETATM   10  O4  UNL     1     -41.510  -8.127  41.494  1.00  0.00    -0.246 OA
ENDROOT
BRANCH   4  11
HETATM   11  C6  UNL     1     -37.598  -6.509  38.105  1.00  0.00     0.127 A
HETATM   12  N3  UNL     1     -36.279  -6.866  38.253  1.00  0.00    -0.325 N
HETATM   13  C7  UNL     1     -35.544  -6.351  37.261  1.00  0.00     0.152 A
ATOM     14  H3  UNL     1     -35.913  -7.441  39.012  1.00  0.00     0.169 HD
HETATM   15  C8  UNL     1     -36.383  -5.648  36.445  1.00  0.00     0.125 A
HETATM   16  N7  UNL     1     -34.234  -6.224  36.682  1.00  0.00    -0.282 N
HETATM   17  N4  UNL     1     -37.620  -5.769  36.993  1.00  0.00    -0.335 N
HETATM   18  C9  UNL     1     -35.587  -5.086  35.362  1.00  0.00     0.144 A
ATOM     19  H4  UNL     1     -38.463  -5.347  36.603  1.00  0.00     0.168 HD
HETATM   20  N5  UNL     1     -35.967  -4.358  34.374  1.00  0.00    -0.382 N
HETATM   21  N6  UNL     1     -34.264  -5.521  35.629  1.00  0.00    -0.282 N
ATOM     22  H52 UNL     1     -36.919  -4.046  34.182  1.00  0.00     0.157 HD
ATOM     23  H51 UNL     1     -35.410  -3.965  33.617  1.00  0.00     0.157 HD
ATOM     24  H6  UNL     1     -33.452  -5.299  35.054  1.00  0.00     0.188 HD
ATOM     25  H7  UNL     1     -33.389  -6.645  37.069  1.00  0.00     0.188 HD
ENDBRANCH   4  11
BRANCH   1  26
HETATM   26  C3  UNL     1     -39.604  -9.875  41.058  1.00  0.00     0.250 C
BRANCH  26  27
HETATM   27  O2  UNL     1     -39.278  -9.976  42.363  1.00  0.00    -0.274 OA
BRANCH  27  28
HETATM   28  C2  UNL     1     -38.955  -9.115  43.323  1.00  0.00     0.260 C
HETATM   29  C1  UNL     1     -39.784  -8.939  44.591  1.00  0.00     0.126 C
HETATM   30  O1  UNL     1     -37.930  -8.407  43.206  1.00  0.00    -0.265 OA
ENDBRANCH  27  28
ENDBRANCH  26  27
ENDBRANCH   1  26
TORSDOF 4
ENDMDL