MODEL 1
REMARK VINA RESULT: -5.345502322      0.000      0.000
REMARK  7 active torsions:
REMARK  status: ('A' for Active; 'I' for Inactive)
REMARK    1  A    between atoms: O1_2  and  N1_3
REMARK    2  A    between atoms: N1_3  and  N2_4
REMARK    3  A    between atoms: N2_4  and  C3_6
REMARK    4  A    between atoms: C3_6  and  O2_7
REMARK    5  A    between atoms: C3_6  and  C4_9
REMARK    6  A    between atoms: C11_20  and  N6_21
REMARK    7  A    between atoms: C13_26  and  O3_27
ROOT
HETATM    1  C4  UNL     1     -38.427  -7.095  39.322  1.00  0.00     0.091 A
HETATM    2  C5  UNL     1     -39.379  -6.682  38.433  1.00  0.00     0.135 A
HETATM    3  N3  UNL     1     -40.803  -6.897  38.611  1.00  0.00    -0.082 NA
HETATM    4  N4  UNL     1     -38.989  -6.104  37.275  1.00  0.00    -0.329 N
ATOM      5  H4  UNL     1     -39.708  -5.798  36.619  1.00  0.00     0.168 HD
HETATM    6  C6  UNL     1     -37.705  -5.912  36.947  1.00  0.00     0.124 A
HETATM    7  C7  UNL     1     -36.698  -6.308  37.802  1.00  0.00     0.063 A
HETATM    8  C8  UNL     1     -35.399  -6.100  37.438  1.00  0.00     0.065 A
HETATM    9  C9  UNL     1     -34.328  -6.497  38.294  1.00  0.00     0.100 C
HETATM   10  N5  UNL     1     -33.419  -6.811  38.978  1.00  0.00    -0.191 NA
HETATM   11  C10 UNL     1     -35.139  -5.492  36.211  1.00  0.00     0.072 A
HETATM   12  C11 UNL     1     -36.183  -5.117  35.398  1.00  0.00     0.103 A
HETATM   13  N7  UNL     1     -37.438  -5.317  35.747  1.00  0.00    -0.323 N
HETATM   14  C12 UNL     1     -38.577  -4.933  34.910  1.00  0.00     0.159 C
HETATM   15  C13 UNL     1     -37.061  -6.911  39.016  1.00  0.00     0.099 A
ENDROOT
BRANCH  15  16
HETATM   16  O3  UNL     1     -36.055  -7.273  39.820  1.00  0.00    -0.359 OA
ATOM     17  H3  UNL     1     -35.386  -7.906  39.586  1.00  0.00     0.217 HD
ENDBRANCH  15  16
BRANCH  12  18
HETATM   18  N6  UNL     1     -35.917  -4.553  34.258  1.00  0.00    -0.385 N
ATOM     19  H62 UNL     1     -34.965  -4.243  34.060  1.00  0.00     0.157 HD
ATOM     20  H61 UNL     1     -36.672  -4.431  33.582  1.00  0.00     0.157 HD
ENDBRANCH  12  18
BRANCH   1  21
HETATM   21  C3  UNL     1     -38.751  -7.827  40.519  1.00  0.00     0.172 C
BRANCH  21  22
HETATM   22  N2  UNL     1     -39.411  -9.016  40.768  1.00  0.00    -0.253 N
HETATM   23  C2  UNL     1     -39.490 -10.236  40.002  1.00  0.00     0.178 C
BRANCH  22  24
HETATM   24  N1  UNL     1     -40.244  -9.037  41.947  1.00  0.00     0.025 NA
BRANCH  24  25
HETATM   25  O1  UNL     1     -39.514  -9.524  42.957  1.00  0.00    -0.272 OA
HETATM   26  C1  UNL     1     -39.617  -8.751  44.113  1.00  0.00     0.234 C
ENDBRANCH  24  25
ENDBRANCH  22  24
ENDBRANCH  21  22
BRANCH  21  27
HETATM   27  O2  UNL     1     -38.326  -7.212  41.604  1.00  0.00    -0.344 OA
ATOM     28  H2  UNL     1     -38.279  -6.267  41.520  1.00  0.00     0.219 HD
ENDBRANCH  21  27
ENDBRANCH   1  21
TORSDOF 7
ENDMDL