MODEL 2
REMARK VINA RESULT: -2.096318386      1.767      7.153
REMARK  5 active torsions:
REMARK  status: ('A' for Active; 'I' for Inactive)
REMARK    1  A    between atoms: C3_4  and  N2_5
REMARK    2  A    between atoms: N2_5  and  N3_7
REMARK    3  A    between atoms: N3_7  and  C4_9
REMARK    4  A    between atoms: C6_19  and  N8_20
REMARK    5  A    between atoms: C9_26  and  C10_27
ROOT
HETATM    1  N1  UNL     1     -39.093  -4.820  41.793  1.00  0.00    -0.191 NA
HETATM    2  C1  UNL     1     -39.134  -5.896  41.355  1.00  0.00     0.104 C
HETATM    3  C2  UNL     1     -39.172  -7.219  40.798  1.00  0.00     0.104 A
HETATM    4  C3  UNL     1     -38.946  -7.363  39.444  1.00  0.00     0.143 A
HETATM    5  N7  UNL     1     -38.986  -8.611  38.941  1.00  0.00    -0.325 N
ATOM      6  H7  UNL     1     -38.821  -8.742  37.943  1.00  0.00     0.169 HD
HETATM    7  C6  UNL     1     -39.236  -9.700  39.705  1.00  0.00     0.122 A
HETATM    8  C7  UNL     1     -39.465  -9.540  41.079  1.00  0.00     0.102 A
HETATM    9  C8  UNL     1     -39.732 -10.675  41.922  1.00  0.00     0.104 C
HETATM   10  N9  UNL     1     -39.958 -11.608  42.594  1.00  0.00    -0.191 NA
HETATM   11  C9  UNL     1     -39.432  -8.280  41.631  1.00  0.00     0.041 A
ENDROOT
BRANCH   4  12
HETATM   12  N2  UNL     1     -38.680  -6.243  38.610  1.00  0.00    -0.282 N
ATOM     13  H2  UNL     1     -38.788  -5.307  39.001  1.00  0.00     0.188 HD
BRANCH  12  14
HETATM   14  N3  UNL     1     -38.279  -6.368  37.281  1.00  0.00    -0.282 N
ATOM     15  H3  UNL     1     -38.990  -6.495  36.560  1.00  0.00     0.188 HD
BRANCH  14  16
HETATM   16  C4  UNL     1     -37.026  -6.329  36.930  1.00  0.00     0.153 A
HETATM   17  C5  UNL     1     -35.910  -6.395  37.723  1.00  0.00     0.159 A
HETATM   18  N4  UNL     1     -34.850  -6.314  36.904  1.00  0.00    -0.294 N
HETATM   19  N5  UNL     1     -35.274  -6.202  35.656  1.00  0.00    -0.241 N
ATOM     20  H4  UNL     1     -33.873  -6.336  37.197  1.00  0.00     0.187 HD
HETATM   21  N6  UNL     1     -36.593  -6.210  35.667  1.00  0.00    -0.269 N
ATOM     22  H5  UNL     1     -34.684  -6.121  34.828  1.00  0.00     0.208 HD
ATOM     23  H6  UNL     1     -37.190  -6.138  34.843  1.00  0.00     0.190 HD
ENDBRANCH  14  16
ENDBRANCH  12  14
ENDBRANCH   4  12
BRANCH  11  24
HETATM   24  C10 UNL     1     -39.673  -8.147  43.060  1.00  0.00     0.061 A
HETATM   25  C11 UNL     1     -38.747  -8.568  43.994  1.00  0.00     0.118 A
HETATM   26  N10 UNL     1     -38.952  -8.454  45.317  1.00  0.00    -0.372 N
HETATM   27  C12 UNL     1     -40.087  -7.916  45.797  1.00  0.00     0.104 A
ATOM     28  H10 UNL     1     -38.237  -8.781  45.967  1.00  0.00     0.164 HD
HETATM   29  C13 UNL     1     -41.018  -7.492  44.874  1.00  0.00     0.105 A
HETATM   30  N11 UNL     1     -40.811  -7.607  43.551  1.00  0.00    -0.363 N
ATOM     31  H11 UNL     1     -41.528  -7.281  42.904  1.00  0.00     0.165 HD
ENDBRANCH  11  24
BRANCH   7  32
HETATM   32  N8  UNL     1     -39.274 -10.896  39.223  1.00  0.00    -0.384 N
ATOM     33  H82 UNL     1     -38.596 -11.141  38.502  1.00  0.00     0.157 HD
ATOM     34  H81 UNL     1     -39.950 -11.594  39.534  1.00  0.00     0.157 HD
ENDBRANCH   7  32
TORSDOF 5
ENDMDL