MODEL 5
REMARK VINA RESULT: -5.901221494      3.946      7.199
REMARK  5 active torsions:
REMARK  status: ('A' for Active; 'I' for Inactive)
REMARK    1  A    between atoms: C2_3  and  C7_20
REMARK    2  A    between atoms: N2_4  and  N3_6
REMARK    3  A    between atoms: N3_6  and  C3_8
REMARK    4  A    between atoms: C6_14  and  N6_15
REMARK    5  A    between atoms: C9_24  and  N9_25
ROOT
HETATM    1  N1  UNL     1     -39.410  -5.051  41.075  1.00  0.00    -0.190 NA
HETATM    2  C1  UNL     1     -39.387  -5.751  40.144  1.00  0.00     0.122 C
HETATM    3  C2  UNL     1     -39.340  -6.597  39.022  1.00  0.00     0.162 C
HETATM    4  N2  UNL     1     -40.063  -7.650  38.952  1.00  0.00    -0.287 N
ATOM      5  H2  UNL     1     -40.021  -8.258  38.134  1.00  0.00     0.188 HD
ENDROOT
BRANCH   3   6
HETATM    6  C7  UNL     1     -38.450  -6.285  37.893  1.00  0.00     0.115 A
HETATM    7  N8  UNL     1     -38.713  -5.845  36.689  1.00  0.00    -0.355 N
HETATM    8  C8  UNL     1     -37.763  -5.634  35.837  1.00  0.00     0.132 A
ATOM      9  H8  UNL     1     -39.680  -5.666  36.419  1.00  0.00     0.166 HD
HETATM   10  C9  UNL     1     -36.477  -5.885  36.237  1.00  0.00     0.161 A
HETATM   11  S1  UNL     1     -36.730  -6.421  37.847  1.00  0.00    -0.044 SA
BRANCH  10  12
HETATM   12  N9  UNL     1     -35.264  -5.740  35.512  1.00  0.00    -0.107 N
HETATM   13  O1  UNL     1     -34.371  -6.585  35.671  1.00  0.00    -0.531 OA
HETATM   14  O2  UNL     1     -35.044  -4.707  34.647  1.00  0.00    -0.531 OA
ENDBRANCH  10  12
ENDBRANCH   3   6
BRANCH   4  15
HETATM   15  N3  UNL     1     -40.909  -7.949  40.021  1.00  0.00    -0.284 N
ATOM     16  H3  UNL     1     -41.860  -7.584  40.059  1.00  0.00     0.188 HD
BRANCH  15  17
HETATM   17  C3  UNL     1     -40.440  -8.710  40.964  1.00  0.00     0.138 A
HETATM   18  C4  UNL     1     -40.152  -8.222  42.223  1.00  0.00     0.096 A
HETATM   19  C5  UNL     1     -39.658  -9.032  43.208  1.00  0.00     0.135 A
HETATM   20  N4  UNL     1     -39.371  -8.502  44.494  1.00  0.00    -0.082 NA
HETATM   21  N5  UNL     1     -39.459 -10.336  42.907  1.00  0.00    -0.179 N
HETATM   22  C6  UNL     1     -39.733 -10.832  41.689  1.00  0.00     0.678 A
ATOM     23  H5  UNL     1     -39.091 -10.960  43.625  1.00  0.00     0.185 HD
HETATM   24  N7  UNL     1     -40.218 -10.033  40.722  1.00  0.00    -0.175 N
ATOM     25  H7  UNL     1     -40.422 -10.421  39.801  1.00  0.00     0.186 HD
BRANCH  22  26
HETATM   26  N6  UNL     1     -39.522 -12.102  41.452  1.00  0.00    -0.234 N
ATOM     27  H62 UNL     1     -39.021 -12.676  42.131  1.00  0.00     0.174 HD
ATOM     28  H61 UNL     1     -39.863 -12.512  40.583  1.00  0.00     0.174 HD
ENDBRANCH  22  26
ENDBRANCH  15  17
ENDBRANCH   4  15
TORSDOF 5
ENDMDL