MODEL 4
REMARK VINA RESULT: -4.712245822      2.108      6.926
REMARK  4 active torsions:
REMARK  status: ('A' for Active; 'I' for Inactive)
REMARK    1  A    between atoms: C5_7  and  N2_8
REMARK    2  A    between atoms: N2_8  and  N3_10
REMARK    3  A    between atoms: N4_12  and  C6_14
REMARK    4  A    between atoms: C7_20  and  C8_21
REMARK       I    between atoms: C8_21  and  N7_23
ROOT
HETATM    1  N3  UNL     1     -40.516  -7.139  40.013  1.00  0.00    -0.227 N
ATOM      2  H3  UNL     1     -40.823  -6.179  39.855  1.00  0.00     0.209 HD
HETATM    3  N4  UNL     1     -41.004  -7.838  40.952  1.00  0.00    -0.268 N
ATOM      4  H4  UNL     1     -41.715  -7.432  41.560  1.00  0.00     0.190 HD
ENDROOT
BRANCH   3   5
HETATM    5  C6  UNL     1     -40.569  -9.211  41.180  1.00  0.00     0.162 A
HETATM    6  N5  UNL     1     -41.194 -10.206  40.564  1.00  0.00    -0.295 N
HETATM    7  S1  UNL     1     -40.394 -11.577  41.095  1.00  0.00     0.069 SA
ATOM      8  H5  UNL     1     -41.981 -10.149  39.917  1.00  0.00     0.177 HD
HETATM    9  N6  UNL     1     -39.269 -10.852  42.099  1.00  0.00    -0.305 N
HETATM   10  C7  UNL     1     -39.537  -9.547  42.004  1.00  0.00     0.154 A
ATOM     11  H6  UNL     1     -38.544 -11.303  42.657  1.00  0.00     0.176 HD
BRANCH  10  12
HETATM   12  C8  UNL     1     -38.740  -8.538  42.764  1.00  0.00     0.278 C
HETATM   13  O1  UNL     1     -38.049  -7.664  42.168  1.00  0.00    -0.265 OA
HETATM   14  N7  UNL     1     -38.765  -8.570  44.171  1.00  0.00    -0.298 N
HETATM   15  C9  UNL     1     -39.770  -8.143  44.859  1.00  0.00     0.203 C
ATOM     16  H7  UNL     1     -37.957  -8.945  44.667  1.00  0.00     0.171 HD
HETATM   17  N8  UNL     1     -40.942  -7.600  44.237  1.00  0.00    -0.066 NA
HETATM   18  N9  UNL     1     -39.771  -8.187  46.277  1.00  0.00    -0.066 NA
ENDBRANCH  10  12
ENDBRANCH   3   5
BRANCH   1  19
HETATM   19  N2  UNL     1     -39.544  -7.730  39.201  1.00  0.00    -0.118 N
ATOM     20  H2  UNL     1     -39.637  -8.721  38.978  1.00  0.00     0.207 HD
BRANCH  19  21
HETATM   21  C5  UNL     1     -38.431  -7.021  38.670  1.00  0.00     0.690 C
HETATM   22  N1  UNL     1     -38.344  -5.617  38.607  1.00  0.00    -0.223 N
HETATM   23  C4  UNL     1     -36.943  -5.310  38.422  1.00  0.00     0.168 C
ATOM     24  H1  UNL     1     -39.114  -4.952  38.678  1.00  0.00     0.177 HD
HETATM   25  C2  UNL     1     -36.436  -6.552  37.727  1.00  0.00     0.056 C
HETATM   26  C1  UNL     1     -35.013  -6.825  38.153  1.00  0.00     0.040 C
HETATM   27  C3  UNL     1     -36.555  -6.389  36.228  1.00  0.00     0.040 C
HETATM   28  N10 UNL     1     -37.359  -7.565  38.176  1.00  0.00    -0.215 N
ATOM     29  H10 UNL     1     -37.194  -8.570  38.114  1.00  0.00     0.178 HD
ENDBRANCH  19  21
ENDBRANCH   1  19
TORSDOF 4
ENDMDL