MODEL 5
REMARK VINA RESULT: -0.855740331      5.231      7.131
REMARK  4 active torsions:
REMARK  status: ('A' for Active; 'I' for Inactive)
REMARK    1  A    between atoms: O1_2  and  C2_3
REMARK    2  A    between atoms: C2_3  and  C3_4
REMARK    3  A    between atoms: C5_8  and  S1_9
REMARK    4  A    between atoms: S1_9  and  N2_10
ROOT
HETATM    1  C3  UNL     1     -39.999  -8.535  44.465  1.00  0.00     0.076 A
HETATM    2  N1  UNL     1     -39.938  -9.474  43.545  1.00  0.00    -0.350 N
ATOM      3  H1  UNL     1     -40.093 -10.448  43.804  1.00  0.00     0.166 HD
HETATM    4  C4  UNL     1     -39.680  -9.168  42.306  1.00  0.00     0.077 A
HETATM    5  C5  UNL     1     -39.588 -10.074  41.229  1.00  0.00     0.133 A
HETATM    6  C6  UNL     1     -39.311  -9.606  39.977  1.00  0.00     0.098 A
HETATM    7  N3  UNL     1     -39.217 -10.519  38.890  1.00  0.00    -0.099 NA
HETATM    8  C7  UNL     1     -39.104  -8.259  39.665  1.00  0.00     0.097 A
HETATM    9  N4  UNL     1     -38.820  -7.790  38.383  1.00  0.00    -0.098 NA
HETATM   10  C8  UNL     1     -39.195  -7.391  40.713  1.00  0.00     0.092 A
HETATM   11  N5  UNL     1     -39.017  -5.985  40.596  1.00  0.00    -0.099 NA
HETATM   12  C9  UNL     1     -39.478  -7.850  42.004  1.00  0.00     0.061 A
HETATM   13  S2  UNL     1     -39.678  -7.124  43.561  1.00  0.00    -0.070 SA
ENDROOT
BRANCH   5  14
HETATM   14  S1  UNL     1     -39.820 -11.794  41.450  1.00  0.00     0.261 S
HETATM   15  O2  UNL     1     -40.956 -12.317  40.641  1.00  0.00    -0.201 OA
HETATM   16  O3  UNL     1     -40.175 -12.020  42.908  1.00  0.00    -0.201 OA
BRANCH  14  17
HETATM   17  N2  UNL     1     -38.381 -12.667  41.136  1.00  0.00    -0.324 N
ATOM     18  H22 UNL     1     -38.115 -13.513  41.640  1.00  0.00     0.169 HD
ATOM     19  H21 UNL     1     -37.837 -12.235  40.389  1.00  0.00     0.169 HD
ENDBRANCH  14  17
ENDBRANCH   5  14
BRANCH   1  20
HETATM   20  C2  UNL     1     -40.263  -8.633  45.921  1.00  0.00     0.231 C
BRANCH  20  21
HETATM   21  O1  UNL     1     -41.439  -8.038  46.303  1.00  0.00    -0.390 OA
HETATM   22  C1  UNL     1     -41.387  -7.337  47.479  1.00  0.00     0.201 C
ENDBRANCH  20  21
ENDBRANCH   1  20
TORSDOF 4
ENDMDL