MODEL 3
REMARK VINA RESULT: -6.438532787      1.032      1.093
REMARK  7 active torsions:
REMARK  status: ('A' for Active; 'I' for Inactive)
REMARK    1  A    between atoms: N1_2  and  N2_4
REMARK    2  A    between atoms: N2_4  and  C3_6
REMARK    3  A    between atoms: C6_15  and  N5_16
REMARK    4  A    between atoms: N5_16  and  N6_18
REMARK    5  A    between atoms: N6_18  and  C7_20
REMARK    6  A    between atoms: C8_21  and  O3_22
REMARK    7  A    between atoms: N8_27  and  O4_28
ROOT
HETATM    1  C3  UNL     1     -39.278  -9.110  40.842  1.00  0.00     0.154 A
HETATM    2  N3  UNL     1     -39.691  -9.100  42.114  1.00  0.00    -0.292 N
ATOM      3  H3  UNL     1     -39.861  -9.974  42.611  1.00  0.00     0.172 HD
HETATM    4  C4  UNL     1     -39.878  -7.921  42.727  1.00  0.00     0.328 A
HETATM    5  O1  UNL     1     -40.268  -7.896  43.930  1.00  0.00    -0.247 OA
HETATM    6  N4  UNL     1     -39.668  -6.740  42.120  1.00  0.00    -0.273 N
ATOM      7  H4  UNL     1     -39.823  -5.867  42.624  1.00  0.00     0.173 HD
HETATM    8  C5  UNL     1     -39.252  -6.721  40.840  1.00  0.00     0.281 A
HETATM    9  O2  UNL     1     -39.043  -5.639  40.232  1.00  0.00    -0.265 OA
HETATM   10  C6  UNL     1     -39.056  -7.919  40.196  1.00  0.00     0.162 A
ENDROOT
BRANCH  10  11
HETATM   11  N5  UNL     1     -38.607  -7.904  38.815  1.00  0.00    -0.291 N
ATOM     12  H5  UNL     1     -39.237  -8.085  38.033  1.00  0.00     0.187 HD
BRANCH  11  13
HETATM   13  N6  UNL     1     -37.366  -7.649  38.648  1.00  0.00    -0.279 N
ATOM     14  H6  UNL     1     -36.641  -8.027  39.259  1.00  0.00     0.189 HD
BRANCH  13  15
HETATM   15  C7  UNL     1     -37.069  -6.787  37.533  1.00  0.00     0.200 A
HETATM   16  C8  UNL     1     -35.834  -6.535  36.971  1.00  0.00     0.192 A
HETATM   17  N7  UNL     1     -35.943  -5.675  35.942  1.00  0.00    -0.323 N
HETATM   18  C9  UNL     1     -34.894  -5.147  35.080  1.00  0.00     0.159 C
HETATM   19  C10 UNL     1     -37.259  -5.383  35.854  1.00  0.00     0.220 A
HETATM   20  N8  UNL     1     -37.937  -6.053  36.812  1.00  0.00    -0.198 N
BRANCH  16  21
HETATM   21  O3  UNL     1     -34.642  -7.086  37.403  1.00  0.00    -0.343 OA
ATOM     22  H3  UNL     1     -34.437  -8.014  37.394  1.00  0.00     0.219 HD
ENDBRANCH  16  21
BRANCH  20  23
HETATM   23  O4  UNL     1     -39.303  -6.032  37.067  1.00  0.00    -0.280 OA
ATOM     24  H4  UNL     1     -39.798  -6.810  37.293  1.00  0.00     0.245 HD
ENDBRANCH  20  23
ENDBRANCH  13  15
ENDBRANCH  11  13
ENDBRANCH  10  11
BRANCH   1  25
HETATM   25  N2  UNL     1     -39.070 -10.332  40.161  1.00  0.00    -0.303 N
ATOM     26  H2  UNL     1     -38.451 -10.292  39.351  1.00  0.00     0.182 HD
BRANCH  25  27
HETATM   27  N1  UNL     1     -39.598 -11.561  40.455  1.00  0.00    -0.238 NA
HETATM   28  C1  UNL     1     -40.961 -11.398  40.885  1.00  0.00     0.135 C
HETATM   29  C2  UNL     1     -38.854 -12.411  41.308  1.00  0.00     0.135 C
ENDBRANCH  25  27
ENDBRANCH   1  25
TORSDOF 7
ENDMDL