MODEL 4
REMARK VINA RESULT: -5.538306146      3.391      5.072
REMARK  1 active torsions:
REMARK  status: ('A' for Active; 'I' for Inactive)
REMARK       I    between atoms: N1_2  and  C2_3
REMARK    1  A    between atoms: N1_2  and  C3_8
ROOT
HETATM    1  C1  UNL     1       6.559   8.509  47.289  1.00  0.00     0.120 C
HETATM    2  N1  UNL     1       6.366   7.719  48.511  1.00  0.00    -0.257 NA
HETATM    3  C2  UNL     1       7.025   8.432  49.531  1.00  0.00     0.162 C
HETATM    4  N2  UNL     1       6.711   9.678  49.657  1.00  0.00    -0.378 N
ATOM      5  H21 UNL     1       7.189  10.194  50.396  1.00  0.00     0.158 HD
ATOM      6  H22 UNL     1       6.024  10.062  49.009  1.00  0.00     0.158 HD
HETATM    7  N3  UNL     1       7.971   7.902  50.425  1.00  0.00    -0.070 NA
ENDROOT
BRANCH   2   8
HETATM    8  C3  UNL     1       6.750   6.348  48.368  1.00  0.00     0.065 C
HETATM    9  C4  UNL     1       5.840   5.380  49.104  1.00  0.00     0.020 C
HETATM   10  C5  UNL     1       6.374   3.988  48.767  1.00  0.00     0.002 C
HETATM   11  C6  UNL     1       5.893   3.597  47.370  1.00  0.00     0.000 C
HETATM   12  C7  UNL     1       5.663   4.883  46.629  1.00  0.00     0.002 C
HETATM   13  C8  UNL     1       6.793   5.859  46.939  1.00  0.00     0.020 C
ENDBRANCH   2   8
TORSDOF 1
ENDMDL