MODEL 4
REMARK VINA RESULT: -5.016541962      2.072      3.529
REMARK  2 active torsions:
REMARK  status: ('A' for Active; 'I' for Inactive)
REMARK    1  A    between atoms: C2_2  and  N1_3
REMARK    2  A    between atoms: C2_2  and  C3_7
ROOT
HETATM    1  C3  UNL     1       6.909   8.905  48.601  1.00  0.00     0.222 C
HETATM    2  C4  UNL     1       7.573   9.803  47.541  1.00  0.00     0.063 C
HETATM    3  C5  UNL     1       8.839   9.232  48.200  1.00  0.00     0.240 C
HETATM    4  N2  UNL     1       8.031   9.173  49.403  1.00  0.00    -0.061 N
HETATM    5  C6  UNL     1       7.952  10.519  49.956  1.00  0.00     0.238 C
HETATM    6  C7  UNL     1       8.053  10.409  51.449  1.00  0.00     0.029 C
HETATM    7  C8  UNL     1       7.814   8.931  51.680  1.00  0.00     0.029 C
HETATM    8  C9  UNL     1       8.468   8.353  50.444  1.00  0.00     0.238 C
ENDROOT
BRANCH   1   9
HETATM    9  C2  UNL     1       6.633   7.526  48.093  1.00  0.00     0.210 C
HETATM   10  C1  UNL     1       5.697   6.773  49.014  1.00  0.00     0.042 C
BRANCH   9  11
HETATM   11  N1  UNL     1       5.993   7.568  46.794  1.00  0.00    -0.073 N
ATOM     12  H13 UNL     1       6.343   8.318  46.196  1.00  0.00     0.274 HD
ATOM     13  H12 UNL     1       6.256   6.789  46.190  1.00  0.00     0.274 HD
ATOM     14  H11 UNL     1       4.989   7.625  46.965  1.00  0.00     0.274 HD
ENDBRANCH   9  11
ENDBRANCH   1   9
TORSDOF 2
ENDMDL