MODEL 2
REMARK VINA RESULT: -5.764965182      4.294      6.255
REMARK  2 active torsions:
REMARK  status: ('A' for Active; 'I' for Inactive)
REMARK    1  A    between atoms: C2_2  and  C3_3
REMARK    2  A    between atoms: C3_3  and  N1_4
REMARK       I    between atoms: N1_4  and  C4_6
REMARK       I    between atoms: C4_6  and  N3_10
ROOT
HETATM    1  N1  UNL     1       6.139   8.156  47.302  1.00  0.00    -0.223 N
ATOM      2  H1  UNL     1       5.162   8.373  47.498  1.00  0.00     0.178 HD
HETATM    3  C4  UNL     1       7.108   9.047  47.781  1.00  0.00     0.669 C
HETATM    4  N2  UNL     1       7.590  10.006  47.030  1.00  0.00    -0.235 N
ATOM      5  H21 UNL     1       8.295  10.654  47.379  1.00  0.00     0.174 HD
ATOM      6  H22 UNL     1       7.210  10.053  46.085  1.00  0.00     0.174 HD
HETATM    7  N3  UNL     1       7.639   8.980  49.101  1.00  0.00    -0.218 N
HETATM    8  C5  UNL     1       6.833   8.476  50.204  1.00  0.00     0.141 C
HETATM    9  C6  UNL     1       7.287   9.235  51.447  1.00  0.00     0.020 C
HETATM   10  C7  UNL     1       8.650   8.697  51.797  1.00  0.00     0.003 C
HETATM   11  C8  UNL     1       9.530   8.676  50.593  1.00  0.00     0.020 C
HETATM   12  C9  UNL     1       8.979   9.406  49.405  1.00  0.00     0.141 C
ENDROOT
BRANCH   1  13
HETATM   13  C3  UNL     1       6.418   6.951  46.549  1.00  0.00     0.164 C
BRANCH  13  14
HETATM   14  C2  UNL     1       5.694   5.768  47.035  1.00  0.00    -0.017 C
HETATM   15  C1  UNL     1       5.665   4.673  46.289  1.00  0.00     0.008 C
ENDBRANCH  13  14
ENDBRANCH   1  13
TORSDOF 2
ENDMDL