MODEL 2
REMARK VINA RESULT: -5.473965331      0.862      1.263
REMARK  2 active torsions:
REMARK  status: ('A' for Active; 'I' for Inactive)
REMARK    1  A    between atoms: C2_2  and  N2_6
REMARK    2  A    between atoms: N2_6  and  C3_8
ROOT
HETATM    1  C3  UNL     1       7.741   9.190  49.070  1.00  0.00     0.119 C
HETATM    2  C4  UNL     1       8.704   8.391  49.963  1.00  0.00     0.038 C
HETATM    3  C5  UNL     1       8.283   9.349  51.035  1.00  0.00     0.044 C
HETATM    4  C6  UNL     1       8.318  10.361  49.882  1.00  0.00     0.213 C
HETATM    5  N3  UNL     1       9.687  10.398  49.519  1.00  0.00    -0.068 N
HETATM    6  C7  UNL     1       9.958  10.985  48.230  1.00  0.00     0.272 C
HETATM    7  C8  UNL     1      10.562  11.016  50.474  1.00  0.00     0.272 C
HETATM    8  C9  UNL     1      10.015   8.957  49.506  1.00  0.00     0.243 C
ENDROOT
BRANCH   1   9
HETATM    9  N2  UNL     1       6.400   8.844  49.383  1.00  0.00    -0.373 N
ATOM     10  H2  UNL     1       5.904   9.351  50.116  1.00  0.00     0.161 HD
BRANCH   9  11
HETATM   11  C2  UNL     1       5.748   7.802  48.689  1.00  0.00     0.066 C
HETATM   12  C1  UNL     1       5.717   6.394  49.152  1.00  0.00     0.088 C
HETATM   13  N1  UNL     1       5.149   8.148  47.575  1.00  0.00    -0.389 N
ATOM     14  H12 UNL     1       4.678   7.395  47.073  1.00  0.00     0.157 HD
ATOM     15  H11 UNL     1       5.170   9.116  47.256  1.00  0.00     0.157 HD
ENDBRANCH   9  11
ENDBRANCH   1   9
TORSDOF 2
ENDMDL