MODEL 5
REMARK VINA RESULT: -6.078146766      1.013      1.112
REMARK  1 active torsions:
REMARK  status: ('A' for Active; 'I' for Inactive)
REMARK    1  A    between atoms: C8_8  and  N1_9
ROOT
HETATM    1  C1  UNL     1       5.739   6.571  48.632  1.00  0.00     0.012 C
HETATM    2  C2  UNL     1       6.313   7.464  49.205  1.00  0.00    -0.111 C
HETATM    3  C3  UNL     1       7.019   8.549  49.926  1.00  0.00     0.087 C
HETATM    4  C4  UNL     1       7.476   8.010  51.221  1.00  0.00     0.019 C
HETATM    5  C5  UNL     1       8.641   8.676  51.846  1.00  0.00     0.001 C
HETATM    6  C6  UNL     1       9.607   9.298  50.902  1.00  0.00     0.002 C
HETATM    7  C7  UNL     1       9.482   8.791  49.492  1.00  0.00     0.026 C
HETATM    8  C8  UNL     1       8.091   9.052  49.014  1.00  0.00     0.099 C
ENDROOT
BRANCH   8   9
HETATM    9  N1  UNL     1       7.972   8.546  47.667  1.00  0.00    -0.361 N
HETATM   10  C9  UNL     1       7.764   9.294  46.642  1.00  0.00     0.197 C
HETATM   11  N2  UNL     1       7.624  10.693  46.677  1.00  0.00    -0.067 NA
HETATM   12  N3  UNL     1       7.668   8.657  45.369  1.00  0.00    -0.067 NA
ATOM     13  H1  UNL     1       8.058   7.540  47.521  1.00  0.00     0.162 HD
ENDBRANCH   8   9
TORSDOF 1
ENDMDL