MODEL 3
REMARK VINA RESULT: -6.807796274      1.000      2.210
REMARK  2 active torsions:
REMARK  status: ('A' for Active; 'I' for Inactive)
REMARK    1  A    between atoms: N1_2  and  C2_5
REMARK    2  A    between atoms: C2_5  and  C3_6
ROOT
HETATM    1  C3  UNL     1       5.984   4.190  48.016  1.00  0.00     0.034 C
HETATM    2  C4  UNL     1       5.633   3.037  47.283  1.00  0.00    -0.020 C
HETATM    3  C5  UNL     1       5.275   2.082  47.114  1.00  0.00    -0.004 C
HETATM    4  C6  UNL     1       4.773   1.044  47.512  1.00  0.00    -0.004 C
HETATM    5  C7  UNL     1       4.394   0.471  48.264  1.00  0.00    -0.027 C
HETATM    6  C8  UNL     1       4.018   0.123  49.592  1.00  0.00     0.027 C
HETATM    7  C9  UNL     1       4.745   1.349  50.374  1.00  0.00     0.004 C
HETATM    8  C10 UNL     1       4.644   2.692  49.740  1.00  0.00     0.001 C
HETATM    9  C11 UNL     1       5.856   3.523  49.517  1.00  0.00     0.010 C
ENDROOT
BRANCH   1  10
HETATM   10  C2  UNL     1       7.421   4.515  47.929  1.00  0.00     0.240 C
BRANCH  10  11
HETATM   11  N1  UNL     1       7.733   5.876  47.648  1.00  0.00    -0.078 N
HETATM   12  C1  UNL     1       6.812   6.512  46.736  1.00  0.00     0.267 C
ATOM     13  H12 UNL     1       8.690   5.962  47.308  1.00  0.00     0.276 HD
ATOM     14  H11 UNL     1       7.808   6.413  48.513  1.00  0.00     0.276 HD
ENDBRANCH  10  11
ENDBRANCH   1  10
TORSDOF 2
ENDMDL