MODEL 3
REMARK VINA RESULT: -5.683389314      1.422      1.827
REMARK  2 active torsions:
REMARK  status: ('A' for Active; 'I' for Inactive)
REMARK    1  A    between atoms: C2_2  and  C3_3
REMARK    2  A    between atoms: C3_3  and  N1_4
REMARK       I    between atoms: C4_6  and  N3_8
ROOT
HETATM    1  N1  UNL     1       5.832   5.653  47.369  1.00  0.00    -0.361 N
ATOM      2  H1  UNL     1       5.648   5.453  48.351  1.00  0.00     0.162 HD
HETATM    3  C4  UNL     1       5.784   4.667  46.593  1.00  0.00     0.186 C
HETATM    4  N2  UNL     1       6.021   4.815  45.209  1.00  0.00    -0.064 NA
HETATM    5  N3  UNL     1       5.489   3.381  47.097  1.00  0.00    -0.356 N
HETATM    6  C5  UNL     1       4.957   2.304  46.292  1.00  0.00     0.125 C
HETATM    7  C6  UNL     1       5.526   1.011  46.876  1.00  0.00     0.020 C
HETATM    8  C7  UNL     1       4.770   0.796  48.191  1.00  0.00     0.003 C
HETATM    9  C8  UNL     1       4.773   2.054  49.030  1.00  0.00     0.020 C
HETATM   10  C9  UNL     1       5.725   3.099  48.501  1.00  0.00     0.125 C
ENDROOT
BRANCH   1  11
HETATM   11  C3  UNL     1       6.111   7.017  47.057  1.00  0.00     0.148 C
BRANCH  11  12
HETATM   12  C2  UNL     1       5.541   7.990  48.011  1.00  0.00    -0.018 C
HETATM   13  C1  UNL     1       5.617   7.736  49.303  1.00  0.00     0.008 C
ENDBRANCH  11  12
ENDBRANCH   1  11
TORSDOF 2
ENDMDL