MODEL 1
REMARK VINA RESULT: -4.992315865      0.000      0.000
REMARK  2 active torsions:
REMARK  status: ('A' for Active; 'I' for Inactive)
REMARK    1  A    between atoms: C2_2  and  N1_4
REMARK    2  A    between atoms: N1_4  and  C4_5
ROOT
HETATM    1  N1  UNL     1       8.613   9.170  49.693  1.00  0.00    -0.035 N
HETATM    2  C7  UNL     1       9.452   7.977  49.481  1.00  0.00     0.242 C
HETATM    3  C8  UNL     1      10.623   8.854  49.186  1.00  0.00     0.056 C
HETATM    4  C9  UNL     1       9.530   9.872  48.833  1.00  0.00     0.242 C
ENDROOT
BRANCH   1   5
HETATM    5  C2  UNL     1       8.728   9.557  51.083  1.00  0.00     0.185 C
HETATM    6  C1  UNL     1       8.304   8.417  51.996  1.00  0.00     0.040 C
HETATM    7  C3  UNL     1       8.006  10.819  51.420  1.00  0.00     0.040 C
ENDBRANCH   1   5
BRANCH   1   8
HETATM    8  C4  UNL     1       7.303   8.926  49.197  1.00  0.00     0.389 C
HETATM    9  C5  UNL     1       6.976   7.548  48.728  1.00  0.00     0.090 C
HETATM   10  C6  UNL     1       6.322   8.198  47.507  1.00  0.00     0.238 C
HETATM   11  N2  UNL     1       6.997   9.420  47.874  1.00  0.00    -0.045 N
ATOM     12  H22 UNL     1       6.500  10.306  47.780  1.00  0.00     0.279 HD
ATOM     13  H21 UNL     1       7.757   9.760  47.285  1.00  0.00     0.279 HD
ENDBRANCH   1   8
TORSDOF 2
ENDMDL