MODEL 4
REMARK VINA RESULT: -5.210308364      2.866      3.696
REMARK  1 active torsions:
REMARK  status: ('A' for Active; 'I' for Inactive)
REMARK    1  A    between atoms: C2_2  and  N1_3
REMARK       I    between atoms: C3_5  and  N3_7
ROOT
HETATM    1  N1  UNL     1       7.321   9.481  45.555  1.00  0.00    -0.365 N
ATOM      2  H1  UNL     1       6.469   9.935  45.886  1.00  0.00     0.162 HD
HETATM    3  C3  UNL     1       7.645   8.358  46.082  1.00  0.00     0.186 C
HETATM    4  N2  UNL     1       8.798   7.648  45.699  1.00  0.00    -0.064 NA
HETATM    5  N3  UNL     1       6.807   7.825  47.081  1.00  0.00    -0.356 N
HETATM    6  C4  UNL     1       6.145   6.550  46.805  1.00  0.00     0.125 C
HETATM    7  C5  UNL     1       6.589   5.609  47.923  1.00  0.00     0.020 C
HETATM    8  C6  UNL     1       6.100   6.205  49.220  1.00  0.00     0.003 C
HETATM    9  C7  UNL     1       5.497   7.572  49.050  1.00  0.00     0.020 C
HETATM   10  C8  UNL     1       6.553   8.439  48.357  1.00  0.00     0.125 C
ENDROOT
BRANCH   1  11
HETATM   11  C2  UNL     1       8.076  10.137  44.535  1.00  0.00     0.118 C
HETATM   12  C1  UNL     1       7.165  11.088  43.798  1.00  0.00     0.026 C
ENDBRANCH   1  11
TORSDOF 1
ENDMDL