MODEL 1
REMARK VINA RESULT: -5.882794755      0.000      0.000
REMARK  4 active torsions:
REMARK  status: ('A' for Active; 'I' for Inactive)
REMARK    1  A    between atoms: N1_1  and  N2_4
REMARK    2  A    between atoms: N2_4  and  C1_5
REMARK    3  A    between atoms: C1_5  and  N3_6
REMARK       I    between atoms: N3_6  and  C2_8
REMARK       I    between atoms: C2_8  and  N4_10
REMARK    4  A    between atoms: N4_10  and  C3_12
ROOT
HETATM    1  N3  UNL     1       7.768  10.622  46.810  1.00  0.00    -0.292 N
ATOM      2  H3  UNL     1       7.180   9.792  46.726  1.00  0.00     0.172 HD
HETATM    3  C2  UNL     1       8.442  10.882  48.053  1.00  0.00     0.322 C
HETATM    4  O1  UNL     1       9.152  11.919  48.098  1.00  0.00    -0.247 OA
HETATM    5  N4  UNL     1       8.299  10.003  49.158  1.00  0.00    -0.338 N
ATOM      6  H4  UNL     1       7.713   9.172  49.079  1.00  0.00     0.164 HD
ENDROOT
BRANCH   1   7
HETATM    7  C1  UNL     1       7.902  11.492  45.697  1.00  0.00     0.305 C
BRANCH   7   8
HETATM    8  N2  UNL     1       7.069  11.462  44.767  1.00  0.00    -0.328 NA
BRANCH   8   9
HETATM    9  N1  UNL     1       6.393  11.438  43.720  1.00  0.00    -0.279 N
ATOM     10  H12 UNL     1       7.267  11.569  43.209  1.00  0.00     0.191 HD
ATOM     11  H11 UNL     1       5.714  11.398  42.960  1.00  0.00     0.191 HD
ENDBRANCH   8   9
ENDBRANCH   7   8
ENDBRANCH   1   7
BRANCH   5  12
HETATM   12  C3  UNL     1       8.986  10.288  50.392  1.00  0.00     0.086 C
HETATM   13  C4  UNL     1       9.573   9.047  51.023  1.00  0.00     0.025 C
HETATM   14  C5  UNL     1       8.492   8.433  51.857  1.00  0.00     0.002 C
HETATM   15  C6  UNL     1       7.436   9.473  52.071  1.00  0.00     0.002 C
HETATM   16  C7  UNL     1       7.917  10.743  51.390  1.00  0.00     0.025 C
ENDBRANCH   5  12
TORSDOF 4
ENDMDL