MODEL 3
REMARK VINA RESULT: -6.102089178      1.945      2.274
REMARK  2 active torsions:
REMARK  status: ('A' for Active; 'I' for Inactive)
REMARK    1  A    between atoms: N1_2  and  C2_4
REMARK    2  A    between atoms: N2_5  and  C3_7
ROOT
HETATM    1  C3  UNL     1      29.979 -14.525   4.974  1.00  0.00     0.137 C
HETATM    2  C4  UNL     1      29.932 -13.268   4.097  1.00  0.00     0.131 C
HETATM    3 CL1  UNL     1      29.549 -13.648   2.429  1.00  0.00    -0.121 Cl
HETATM    4  C5  UNL     1      31.180 -12.551   4.348  1.00  0.00     0.058 C
HETATM    5 CL2  UNL     1      30.800 -10.800   4.587  1.00  0.00    -0.117 Cl
HETATM    6  C6  UNL     1      32.288 -12.617   3.408  1.00  0.00     0.027 C
HETATM    7  C7  UNL     1      32.681 -13.852   2.738  1.00  0.00     0.002 C
HETATM    8  C8  UNL     1      32.618 -15.134   3.454  1.00  0.00     0.010 C
HETATM    9  C9  UNL     1      32.506 -15.063   4.916  1.00  0.00     0.046 C
HETATM   10  C10 UNL     1      32.136 -16.240   5.710  1.00  0.00     0.176 C
HETATM   11  O1  UNL     1      31.525 -15.346   6.628  1.00  0.00    -0.377 OA
HETATM   12  C11 UNL     1      31.314 -14.529   5.531  1.00  0.00     0.090 C
HETATM   13  C12 UNL     1      31.569 -13.030   5.760  1.00  0.00     0.068 C
ENDROOT
BRANCH   1  14
HETATM   14  N2  UNL     1      29.534 -15.656   4.230  1.00  0.00    -0.377 N
HETATM   15  C2  UNL     1      28.927 -16.613   4.860  1.00  0.00     0.171 C
ATOM     16  H2  UNL     1      29.689 -15.712   3.223  1.00  0.00     0.160 HD
BRANCH  15  17
HETATM   17  N1  UNL     1      28.458 -17.762   4.193  1.00  0.00    -0.391 N
HETATM   18  C1  UNL     1      28.696 -19.072   4.735  1.00  0.00     0.147 C
ATOM     19  H1  UNL     1      27.945 -17.663   3.317  1.00  0.00     0.159 HD
ENDBRANCH  15  17
ENDBRANCH   1  14
TORSDOF 2
ENDMDL