MODEL 2
REMARK VINA RESULT: -6.423945761      3.068      3.723
REMARK  2 active torsions:
REMARK  status: ('A' for Active; 'I' for Inactive)
REMARK    1  A    between atoms: C1_4  and  N2_5
REMARK    2  A    between atoms: N2_5  and  C2_7
ROOT
HETATM    1  C2  UNL     1      29.543 -14.125   5.757  1.00  0.00     0.090 C
HETATM    2  C3  UNL     1      30.954 -14.082   6.279  1.00  0.00     0.010 C
HETATM    3  C4  UNL     1      31.599 -15.417   6.003  1.00  0.00     0.011 C
HETATM    4  C5  UNL     1      31.635 -15.610   4.500  1.00  0.00    -0.012 C
HETATM    5  C6  UNL     1      30.246 -15.532   3.897  1.00  0.00     0.011 C
HETATM    6  C7  UNL     1      29.601 -14.209   4.254  1.00  0.00     0.010 C
HETATM    7  C8  UNL     1      30.430 -13.120   3.640  1.00  0.00     0.027 C
HETATM    8  C9  UNL     1      31.840 -13.170   4.202  1.00  0.00     0.019 C
HETATM    9 BR1  UNL     1      32.920 -11.831   3.326  1.00  0.00    -0.086 Br
HETATM   10  C10 UNL     1      32.485 -14.507   3.928  1.00  0.00     0.025 C
HETATM   11  C11 UNL     1      31.743 -12.944   5.680  1.00  0.00     0.027 C
ENDROOT
BRANCH   1  12
HETATM   12  N2  UNL     1      28.802 -13.006   6.237  1.00  0.00    -0.379 N
ATOM     13  H2  UNL     1      29.310 -12.304   6.774  1.00  0.00     0.160 HD
BRANCH  12  14
HETATM   14  C1  UNL     1      27.424 -12.791   6.032  1.00  0.00     0.205 C
HETATM   15  N1  UNL     1      27.027 -11.903   5.208  1.00  0.00    -0.220 N
HETATM   16  F1  UNL     1      27.836 -11.116   4.484  1.00  0.00    -0.101 F
ATOM     17  H1  UNL     1      26.020 -11.782   5.093  1.00  0.00     0.200 HD
ENDBRANCH  12  14
ENDBRANCH   1  12
TORSDOF 2
ENDMDL