MODEL 1
REMARK VINA RESULT: -6.741680350      0.000      0.000
REMARK  3 active torsions:
REMARK  status: ('A' for Active; 'I' for Inactive)
REMARK    1  A    between atoms: C2_2  and  S1_5
REMARK    2  A    between atoms: S1_5  and  N1_8
REMARK    3  A    between atoms: N1_8  and  C3_10
ROOT
HETATM    1  C3  UNL     1      31.450 -12.813   4.005  1.00  0.00     0.041 C
HETATM    2  C4  UNL     1      31.884 -13.943   4.954  1.00  0.00     0.036 C
HETATM    3  C5  UNL     1      32.151 -15.220   4.252  1.00  0.00    -0.012 C
HETATM    4  C6  UNL     1      33.274 -15.035   3.277  1.00  0.00     0.009 C
HETATM    5  C7  UNL     1      32.846 -13.964   2.289  1.00  0.00    -0.012 C
HETATM    6  C8  UNL     1      31.603 -14.453   1.594  1.00  0.00     0.009 C
HETATM    7  C9  UNL     1      30.487 -14.620   2.608  1.00  0.00    -0.012 C
HETATM    8  C10 UNL     1      30.877 -15.688   3.595  1.00  0.00     0.009 C
HETATM    9  C11 UNL     1      30.211 -13.295   3.287  1.00  0.00     0.036 C
HETATM   10  C12 UNL     1      32.547 -12.655   2.996  1.00  0.00     0.036 C
ENDROOT
BRANCH   1  11
HETATM   11  N1  UNL     1      31.239 -11.697   4.840  1.00  0.00    -0.305 N
ATOM     12  H1  UNL     1      31.720 -11.648   5.738  1.00  0.00     0.173 HD
BRANCH  11  13
HETATM   13  S1  UNL     1      30.229 -10.463   4.396  1.00  0.00     0.295 S
HETATM   14  O1  UNL     1      29.712  -9.772   5.655  1.00  0.00    -0.200 OA
HETATM   15  O2  UNL     1      29.056 -10.830   3.538  1.00  0.00    -0.200 OA
BRANCH  13  16
HETATM   16  C2  UNL     1      31.119  -9.211   3.502  1.00  0.00     0.357 C
HETATM   17  C1  UNL     1      30.820  -7.880   4.140  1.00  0.00     0.110 C
HETATM   18  F1  UNL     1      32.444  -9.489   3.525  1.00  0.00    -0.187 F
HETATM   19  F2  UNL     1      30.627  -9.229   2.191  1.00  0.00    -0.187 F
ENDBRANCH  13  16
ENDBRANCH  11  13
ENDBRANCH   1  11
TORSDOF 3
ENDMDL