MODEL 5
REMARK VINA RESULT: -8.112225555      2.144      3.065
REMARK  2 active torsions:
REMARK  status: ('A' for Active; 'I' for Inactive)
REMARK    1  A    between atoms: O1_2  and  N1_3
REMARK       I    between atoms: N1_3  and  C2_5
REMARK       I    between atoms: C2_5  and  N2_7
REMARK    2  A    between atoms: C5_10  and  C6_11
ROOT
HETATM    1  N1  UNL     1      28.163 -15.660   6.887  1.00  0.00    -0.217 N
ATOM      2  H1  UNL     1      28.374 -14.791   7.376  1.00  0.00     0.199 HD
HETATM    3  C2  UNL     1      28.859 -15.973   5.699  1.00  0.00     0.342 C
HETATM    4  O2  UNL     1      28.544 -17.078   5.134  1.00  0.00    -0.245 OA
HETATM    5  N2  UNL     1      29.849 -15.131   5.144  1.00  0.00    -0.322 N
HETATM    6  C3  UNL     1      30.218 -13.907   5.798  1.00  0.00     0.129 C
HETATM    7  C4  UNL     1      31.334 -13.186   5.128  1.00  0.00     0.036 C
HETATM    8  C5  UNL     1      31.654 -13.759   3.740  1.00  0.00     0.035 C
HETATM    9  C12 UNL     1      31.991 -15.196   3.960  1.00  0.00     0.047 C
HETATM   10  C13 UNL     1      30.486 -15.479   3.919  1.00  0.00     0.163 C
HETATM   11  C14 UNL     1      30.406 -14.190   3.061  1.00  0.00     0.272 C
HETATM   12  F1  UNL     1      30.399 -14.459   1.738  1.00  0.00    -0.203 F
HETATM   13  F2  UNL     1      29.369 -13.345   3.450  1.00  0.00    -0.203 F
ENDROOT
BRANCH   1  14
HETATM   14  O1  UNL     1      27.240 -16.477   7.379  1.00  0.00    -0.281 OA
HETATM   15  C1  UNL     1      26.903 -16.071   8.678  1.00  0.00     0.237 C
ENDBRANCH   1  14
BRANCH   8  16
HETATM   16  C6  UNL     1      32.576 -12.902   2.958  1.00  0.00     0.000 C
HETATM   17  C7  UNL     1      33.830 -13.541   2.470  1.00  0.00     0.005 C
HETATM   18  C8  UNL     1      34.831 -12.568   1.883  1.00  0.00     0.000 C
HETATM   19  C9  UNL     1      35.002 -11.303   2.644  1.00  0.00     0.000 C
HETATM   20  C10 UNL     1      33.637 -10.683   2.800  1.00  0.00     0.000 C
HETATM   21  C11 UNL     1      32.856 -11.590   3.709  1.00  0.00     0.005 C
ENDBRANCH   8  16
TORSDOF 2
ENDMDL