MODEL 3
REMARK VINA RESULT: -5.224597015      2.269      4.768
REMARK  2 active torsions:
REMARK  status: ('A' for Active; 'I' for Inactive)
REMARK    1  A    between atoms: C2_2  and  O1_4
REMARK    2  A    between atoms: O1_4  and  C4_5
ROOT
HETATM    1  C4  UNL     1      33.036 -12.182   3.463  1.00  0.00     0.161 A
HETATM    2  N1  UNL     1      32.263 -13.137   4.009  1.00  0.00    -0.330 N
ATOM      3  H1  UNL     1      31.497 -12.979   4.664  1.00  0.00     0.168 HD
HETATM    4  C5  UNL     1      32.669 -14.345   3.545  1.00  0.00     0.083 A
HETATM    5 BR1  UNL     1      31.910 -16.031   4.003  1.00  0.00    -0.031 Br
HETATM    6  C6  UNL     1      33.725 -14.135   2.687  1.00  0.00     0.061 A
HETATM    7  C7  UNL     1      33.954 -12.785   2.635  1.00  0.00     0.064 A
HETATM    8 BR2  UNL     1      35.305 -11.875   1.603  1.00  0.00    -0.046 Br
ENDROOT
BRANCH   1   9
HETATM    9  O1  UNL     1      32.936 -10.819   3.688  1.00  0.00    -0.330 OA
BRANCH   9  10
HETATM   10  C2  UNL     1      32.233  -9.931   2.882  1.00  0.00     0.122 C
HETATM   11  C1  UNL     1      33.099  -8.803   2.348  1.00  0.00     0.040 C
HETATM   12  C3  UNL     1      31.113  -9.306   3.719  1.00  0.00     0.040 C
ENDBRANCH   9  10
ENDBRANCH   1   9
TORSDOF 2
ENDMDL