MODEL 2
REMARK VINA RESULT: -7.096970454      1.890      2.519
REMARK  3 active torsions:
REMARK  status: ('A' for Active; 'I' for Inactive)
REMARK    1  A    between atoms: C2_2  and  C4_6
REMARK    2  A    between atoms: N1_9  and  C7_10
REMARK    3  A    between atoms: C10_13  and  O1_14
ROOT
HETATM    1  C4  UNL     1      32.165 -12.149   3.490  1.00  0.00     0.020 C
HETATM    2  C5  UNL     1      32.241 -12.290   4.989  1.00  0.00     0.028 C
HETATM    3  C6  UNL     1      31.126 -13.151   5.536  1.00  0.00     0.118 C
HETATM    4  N1  UNL     1      31.048 -14.380   4.835  1.00  0.00    -0.408 N
HETATM    5  C12 UNL     1      30.991 -14.272   3.417  1.00  0.00     0.118 C
HETATM    6  C13 UNL     1      32.212 -13.530   2.870  1.00  0.00     0.028 C
ENDROOT
BRANCH   4   7
HETATM    7  C7  UNL     1      30.213 -15.369   5.400  1.00  0.00     0.081 C
HETATM    8  C8  UNL     1      29.336 -14.937   6.517  1.00  0.00     0.027 C
HETATM    9  C9  UNL     1      28.088 -15.816   6.421  1.00  0.00     0.034 C
HETATM   10  C10 UNL     1      28.308 -16.705   5.211  1.00  0.00     0.120 C
HETATM   11  C11 UNL     1      29.182 -15.790   4.344  1.00  0.00     0.056 C
BRANCH  10  12
HETATM   12  O1  UNL     1      29.122 -17.764   5.601  1.00  0.00    -0.396 OA
ATOM     13  H1  UNL     1      28.969 -18.485   5.002  1.00  0.00     0.210 HD
ENDBRANCH  10  12
ENDBRANCH   4   7
BRANCH   1  14
HETATM   14  C2  UNL     1      33.208 -11.280   2.942  1.00  0.00    -0.046 C
HETATM   15  C1  UNL     1      34.508 -11.856   2.543  1.00  0.00     0.046 C
HETATM   16  C3  UNL     1      32.985  -9.984   2.805  1.00  0.00     0.105 C
HETATM   17 CL1  UNL     1      34.254  -8.955   2.143  1.00  0.00    -0.071 Cl
HETATM   18 CL2  UNL     1      31.439  -9.293   3.280  1.00  0.00    -0.071 Cl
ENDBRANCH   1  14
TORSDOF 3
ENDMDL