MODEL 5
REMARK VINA RESULT: -6.144294872      2.440      3.798
REMARK  2 active torsions:
REMARK  status: ('A' for Active; 'I' for Inactive)
REMARK    1  A    between atoms: C1_2  and  C2_4
REMARK    2  A    between atoms: C2_4  and  C3_5
ROOT
HETATM    1  C3  UNL     1      31.084 -13.387   4.081  1.00  0.00     0.076 C
HETATM    2  C4  UNL     1      31.252 -14.673   4.860  1.00  0.00     0.043 C
HETATM    3  C5  UNL     1      31.860 -15.743   3.978  1.00  0.00    -0.005 C
HETATM    4  C6  UNL     1      31.074 -15.985   2.727  1.00  0.00     0.048 C
HETATM    5  C7  UNL     1      30.856 -14.675   2.034  1.00  0.00     0.110 C
HETATM    6  F1  UNL     1      30.129 -14.855   0.877  1.00  0.00    -0.243 F
HETATM    7  C8  UNL     1      32.207 -14.116   1.616  1.00  0.00     0.093 C
HETATM    8  C9  UNL     1      33.001 -13.893   2.879  1.00  0.00     0.122 C
HETATM    9 BR1  UNL     1      34.756 -13.167   2.464  1.00  0.00    -0.054 Br
HETATM   10  C10 UNL     1      33.236 -15.236   3.562  1.00  0.00     0.055 C
HETATM   11  O3  UNL     1      32.358 -12.990   3.677  1.00  0.00    -0.357 OA
HETATM   12  C11 UNL     1      30.167 -13.658   2.923  1.00  0.00     0.082 C
ENDROOT
BRANCH   1  13
HETATM   13  C2  UNL     1      30.584 -12.301   4.993  1.00  0.00     0.151 C
BRANCH  13  14
HETATM   14  C1  UNL     1      30.183 -11.068   4.338  1.00  0.00     0.175 C
HETATM   15  O1  UNL     1      31.050 -10.164   4.207  1.00  0.00    -0.648 OA
HETATM   16  O2  UNL     1      28.934 -10.754   3.826  1.00  0.00    -0.648 OA
ENDBRANCH  13  14
ENDBRANCH   1  13
TORSDOF 2
ENDMDL