MODEL 1
REMARK VINA RESULT: -6.463932565      0.000      0.000
REMARK  3 active torsions:
REMARK  status: ('A' for Active; 'I' for Inactive)
REMARK       I    between atoms: N1_2  and  C2_3
REMARK    1  A    between atoms: N1_2  and  C7_13
REMARK    2  A    between atoms: C2_3  and  C3_5
REMARK    3  A    between atoms: C5_7  and  N2_8
ROOT
HETATM    1  C1  UNL     1      28.851 -12.006   5.387  1.00  0.00     0.153 C
HETATM    2  N1  UNL     1      29.408 -13.334   5.714  1.00  0.00    -0.346 N
HETATM    3  C2  UNL     1      28.658 -14.072   6.634  1.00  0.00     0.224 C
HETATM    4  O1  UNL     1      29.030 -15.221   6.967  1.00  0.00    -0.273 OA
ENDROOT
BRANCH   2   5
HETATM    5  C7  UNL     1      30.640 -13.694   5.069  1.00  0.00     0.159 C
HETATM    6  C8  UNL     1      31.616 -12.598   5.191  1.00  0.00     0.031 C
HETATM    7  C9  UNL     1      32.671 -12.484   4.150  1.00  0.00     0.003 C
HETATM    8  C10 UNL     1      32.347 -13.061   2.824  1.00  0.00     0.015 C
HETATM    9  C11 UNL     1      31.772 -14.438   2.965  1.00  0.00     0.020 C
HETATM   10  C12 UNL     1      31.421 -14.918   1.551  1.00  0.00     0.021 C
HETATM   11  C13 UNL     1      32.691 -15.437   3.572  1.00  0.00     0.021 C
HETATM   12  C14 UNL     1      30.465 -14.289   3.700  1.00  0.00     0.270 C
HETATM   13  F1  UNL     1      29.605 -13.647   2.870  1.00  0.00    -0.203 F
HETATM   14  F2  UNL     1      29.975 -15.602   3.817  1.00  0.00    -0.203 F
ENDBRANCH   2   5
BRANCH   3  15
HETATM   15  C3  UNL     1      27.412 -13.571   7.263  1.00  0.00     0.082 C
HETATM   16  C4  UNL     1      27.131 -14.201   8.608  1.00  0.00     0.046 C
HETATM   17  C5  UNL     1      25.651 -14.219   8.203  1.00  0.00     0.185 C
HETATM   18  C6  UNL     1      26.143 -14.231   6.764  1.00  0.00     0.046 C
BRANCH  17  19
HETATM   19  N2  UNL     1      24.946 -15.405   8.600  1.00  0.00    -0.075 N
ATOM     20  H23 UNL     1      25.247 -16.203   8.040  1.00  0.00     0.274 HD
ATOM     21  H22 UNL     1      25.257 -15.713   9.521  1.00  0.00     0.274 HD
ATOM     22  H21 UNL     1      23.930 -15.316   8.578  1.00  0.00     0.274 HD
ENDBRANCH  17  19
ENDBRANCH   3  15
TORSDOF 3
ENDMDL