MODEL 5
REMARK VINA RESULT: -4.335416043      2.296      3.035
REMARK  2 active torsions:
REMARK  status: ('A' for Active; 'I' for Inactive)
REMARK    1  A    between atoms: S1_2  and  C2_3
REMARK    2  A    between atoms: C4_10  and  C5_11
ROOT
HETATM    1  C2  UNL     1      32.522 -12.531   3.847  1.00  0.00     0.095 A
HETATM    2  N1  UNL     1      33.614 -12.816   3.117  1.00  0.00    -0.329 N
ATOM      3  H1  UNL     1      34.060 -13.731   3.046  1.00  0.00     0.168 HD
HETATM    4  C3  UNL     1      34.028 -11.679   2.490  1.00  0.00     0.154 A
HETATM    5 BR1  UNL     1      35.538 -11.564   1.339  1.00  0.00    -0.010 Br
HETATM    6  N2  UNL     1      33.194 -10.684   2.829  1.00  0.00    -0.337 N
ATOM      7  H2  UNL     1      33.252  -9.716   2.514  1.00  0.00     0.168 HD
HETATM    8  C4  UNL     1      32.276 -11.191   3.652  1.00  0.00     0.055 A
ENDROOT
BRANCH   1   9
HETATM    9  S1  UNL     1      31.593 -13.684   4.852  1.00  0.00    -0.115 SA
HETATM   10  C1  UNL     1      30.015 -14.092   4.005  1.00  0.00     0.097 C
ENDBRANCH   1   9
BRANCH   8  11
HETATM   11  C5  UNL     1      31.155 -10.448   4.272  1.00  0.00     0.145 C
HETATM   12 BR2  UNL     1      31.091  -8.618   3.655  1.00  0.00    -0.090 Br
ENDBRANCH   8  11
TORSDOF 2
ENDMDL