MODEL 2
REMARK VINA RESULT: -7.154282128      2.649      3.528
REMARK  2 active torsions:
REMARK  status: ('A' for Active; 'I' for Inactive)
REMARK       I    between atoms: N1_2  and  C2_4
REMARK    1  A    between atoms: C2_4  and  C3_6
REMARK    2  A    between atoms: N2_10  and  C6_11
ROOT
HETATM    1  C3  UNL     1      13.042 -10.365  19.398  1.00  0.00     0.186 C
HETATM    2  F1  UNL     1      14.395 -10.289  19.256  1.00  0.00    -0.233 F
HETATM    3  C4  UNL     1      12.636 -11.819  19.257  1.00  0.00     0.084 C
HETATM    4  C5  UNL     1      13.482 -12.649  20.138  1.00  0.00     0.276 C
HETATM    5  N2  UNL     1      14.205 -12.022  21.152  1.00  0.00     0.093 N
HETATM    6  C14 UNL     1      13.764 -10.796  21.676  1.00  0.00     0.276 C
HETATM    7  C15 UNL     1      12.738 -10.058  20.871  1.00  0.00     0.084 C
ENDROOT
BRANCH   5   8
HETATM    8  C6  UNL     1      14.548 -12.945  22.212  1.00  0.00     0.223 C
HETATM    9  C7  UNL     1      15.097 -14.244  21.725  1.00  0.00     0.036 C
HETATM   10  C8  UNL     1      14.139 -15.403  21.969  1.00  0.00     0.011 C
HETATM   11  C9  UNL     1      13.892 -15.614  23.443  1.00  0.00    -0.048 C
HETATM   12  C10 UNL     1      14.984 -16.463  24.049  1.00  0.00     0.015 C
HETATM   13  C11 UNL     1      12.574 -16.306  23.699  1.00  0.00     0.015 C
HETATM   14  C12 UNL     1      13.845 -14.262  24.139  1.00  0.00     0.011 C
HETATM   15  C13 UNL     1      13.370 -13.246  23.118  1.00  0.00     0.036 C
ENDBRANCH   5   8
BRANCH   1  16
HETATM   16  C2  UNL     1      12.290  -9.471  18.526  1.00  0.00     0.257 C
HETATM   17  N1  UNL     1      10.888  -9.358  18.658  1.00  0.00    -0.363 N
HETATM   18  C1  UNL     1      10.107  -8.477  17.806  1.00  0.00     0.149 C
ATOM     19  H1  UNL     1      10.411  -9.910  19.370  1.00  0.00     0.162 HD
HETATM   20  O1  UNL     1      12.866  -8.789  17.649  1.00  0.00    -0.270 OA
ENDBRANCH   1  16
TORSDOF 2
ENDMDL