MODEL 5
REMARK VINA RESULT: -6.932494504      2.678      5.310
REMARK  2 active torsions:
REMARK  status: ('A' for Active; 'I' for Inactive)
REMARK       I    between atoms: N1_2  and  C2_4
REMARK    1  A    between atoms: C2_4  and  C3_6
REMARK    2  A    between atoms: N2_10  and  C7_11
ROOT
HETATM    1  C3  UNL     1      13.404 -14.548  21.337  1.00  0.00     0.111 C
HETATM    2  C4  UNL     1      11.985 -14.281  21.067  1.00  0.00     0.018 C
HETATM    3  C5  UNL     1      11.830 -13.064  20.174  1.00  0.00     0.031 C
HETATM    4  C6  UNL     1      13.178 -12.698  19.669  1.00  0.00     0.273 C
HETATM    5  N2  UNL     1      14.111 -12.257  20.686  1.00  0.00     0.104 N
HETATM    6  C13 UNL     1      14.285 -13.348  21.587  1.00  0.00     0.232 C
HETATM    7  C14 UNL     1      15.709 -13.930  21.544  1.00  0.00     0.043 C
ENDROOT
BRANCH   5   8
HETATM    8  C7  UNL     1      13.727 -11.001  21.236  1.00  0.00     0.295 C
HETATM    9  C8  UNL     1      14.575  -9.884  20.600  1.00  0.00     0.042 C
HETATM   10  C9  UNL     1      14.059  -8.535  21.131  1.00  0.00     0.002 C
HETATM   11  C10 UNL     1      14.312  -8.397  22.596  1.00  0.00     0.006 C
HETATM   12  C11 UNL     1      14.867  -9.691  23.081  1.00  0.00     0.081 C
HETATM   13  C12 UNL     1      13.862 -10.792  22.692  1.00  0.00     0.274 C
HETATM   14  F1  UNL     1      12.649 -10.296  23.207  1.00  0.00    -0.204 F
HETATM   15  F2  UNL     1      14.197 -11.833  23.479  1.00  0.00    -0.204 F
ENDBRANCH   5   8
BRANCH   1  16
HETATM   16  C2  UNL     1      13.461 -15.417  22.565  1.00  0.00     0.223 C
HETATM   17  N1  UNL     1      13.335 -14.796  23.853  1.00  0.00    -0.365 N
HETATM   18  C1  UNL     1      13.391 -15.649  25.018  1.00  0.00     0.149 C
ATOM     19  H1  UNL     1      13.210 -13.788  23.943  1.00  0.00     0.161 HD
HETATM   20  O1  UNL     1      13.614 -16.652  22.448  1.00  0.00    -0.273 OA
ENDBRANCH   1  16
TORSDOF 2
ENDMDL