MODEL 3
REMARK VINA RESULT: -8.191713362      0.348      1.146
REMARK  4 active torsions:
REMARK  status: ('A' for Active; 'I' for Inactive)
REMARK    1  A    between atoms: C1_4  and  O1_5
REMARK    2  A    between atoms: C1_4  and  C9_17
REMARK    3  A    between atoms: O1_5  and  C2_6
REMARK    4  A    between atoms: C2_6  and  C3_7
REMARK       I    between atoms: C3_7  and  N2_9
ROOT
HETATM    1  O1  UNL     1      13.504 -15.570  25.503  1.00  0.00    -0.330 OA
ENDROOT
BRANCH   1   2
HETATM    2  C1  UNL     1      13.948 -14.989  26.703  1.00  0.00     0.119 C
HETATM    3  N1  UNL     1      14.423 -15.802  27.567  1.00  0.00    -0.383 N
ATOM      4  H12 UNL     1      14.471 -16.804  27.383  1.00  0.00     0.158 HD
ATOM      5  H11 UNL     1      14.746 -15.381  28.438  1.00  0.00     0.158 HD
BRANCH   2   6
HETATM    6  C9  UNL     1      13.880 -13.560  26.966  1.00  0.00     0.082 C
HETATM    7  C10 UNL     1      13.566 -12.763  25.728  1.00  0.00    -0.018 C
HETATM    8  C11 UNL     1      13.790 -11.470  25.775  1.00  0.00    -0.030 C
HETATM    9  C12 UNL     1      14.323 -10.744  26.939  1.00  0.00     0.027 C
HETATM   10  C13 UNL     1      15.101 -11.580  27.887  1.00  0.00     0.005 C
HETATM   11  C14 UNL     1      15.171 -13.040  27.507  1.00  0.00     0.017 C
ENDBRANCH   2   6
ENDBRANCH   1   2
BRANCH   1  12
HETATM   12  C2  UNL     1      14.370 -16.039  24.511  1.00  0.00     0.280 C
BRANCH  12  13
HETATM   13  C3  UNL     1      13.741 -16.163  23.181  1.00  0.00     0.244 C
HETATM   14  O2  UNL     1      13.299 -17.260  22.794  1.00  0.00    -0.271 OA
HETATM   15  N2  UNL     1      13.645 -15.030  22.351  1.00  0.00    -0.350 N
HETATM   16  C4  UNL     1      14.143 -13.727  22.753  1.00  0.00     0.131 C
HETATM   17  C8  UNL     1      13.033 -15.140  21.051  1.00  0.00     0.131 C
HETATM   18  C5  UNL     1      14.583 -12.887  21.584  1.00  0.00     0.099 C
HETATM   19  C6  UNL     1      13.546 -12.829  20.490  1.00  0.00     0.246 C
HETATM   20  F1  UNL     1      14.171 -13.203  19.309  1.00  0.00    -0.206 F
HETATM   21  F2  UNL     1      13.034 -11.582  20.315  1.00  0.00    -0.206 F
HETATM   22  C7  UNL     1      12.409 -13.794  20.729  1.00  0.00     0.099 C
ENDBRANCH  12  13
ENDBRANCH   1  12
TORSDOF 4
ENDMDL