MODEL 2
REMARK VINA RESULT: -7.528596302      1.823      2.517
REMARK  3 active torsions:
REMARK  status: ('A' for Active; 'I' for Inactive)
REMARK       I    between atoms: N1_2  and  C2_3
REMARK    1  A    between atoms: N1_2  and  C3_6
REMARK    2  A    between atoms: C8_11  and  N3_12
REMARK    3  A    between atoms: C13_17  and  C14_18
ROOT
HETATM    1  C3  UNL     1      13.001 -13.635  23.141  1.00  0.00     0.134 C
HETATM    2  C4  UNL     1      13.372 -14.748  24.055  1.00  0.00     0.031 C
HETATM    3  C5  UNL     1      14.029 -14.452  25.342  1.00  0.00     0.003 C
HETATM    4  C6  UNL     1      13.734 -13.153  25.983  1.00  0.00     0.006 C
HETATM    5  C7  UNL     1      12.747 -12.318  25.185  1.00  0.00     0.055 C
HETATM    6  C8  UNL     1      13.224 -12.314  23.763  1.00  0.00     0.012 C
ENDROOT
BRANCH   6   7
HETATM    7  N3  UNL     1      13.016 -11.120  23.053  1.00  0.00    -0.351 N
HETATM    8  C9  UNL     1      11.880 -10.833  22.164  1.00  0.00     0.129 C
HETATM    9  C10 UNL     1      12.503 -10.562  20.778  1.00  0.00     0.024 C
HETATM   10  C11 UNL     1      13.335  -9.339  20.836  1.00  0.00     0.031 C
HETATM   11  C12 UNL     1      14.086  -9.200  22.102  1.00  0.00     0.004 C
HETATM   12  C13 UNL     1      13.927 -10.048  23.145  1.00  0.00     0.072 C
BRANCH  12  13
HETATM   13  C14 UNL     1      14.686  -9.770  24.330  1.00  0.00     0.402 C
HETATM   14  F1  UNL     1      15.557  -8.690  24.117  1.00  0.00    -0.208 F
HETATM   15  F2  UNL     1      13.760  -9.189  25.247  1.00  0.00    -0.208 F
ENDBRANCH  12  13
ENDBRANCH   6   7
BRANCH   1  16
HETATM   16  N1  UNL     1      13.579 -13.857  21.837  1.00  0.00    -0.331 N
HETATM   17  C1  UNL     1      15.022 -13.770  21.689  1.00  0.00     0.155 C
HETATM   18  C2  UNL     1      12.836 -14.167  20.687  1.00  0.00     0.331 C
HETATM   19  N2  UNL     1      11.430 -14.274  20.590  1.00  0.00    -0.040 NA
HETATM   20  O1  UNL     1      13.485 -14.377  19.594  1.00  0.00    -0.251 OA
ENDBRANCH   1  16
TORSDOF 3
ENDMDL