MODEL 5
REMARK VINA RESULT: -7.534084318      1.198      1.592
REMARK  2 active torsions:
REMARK  status: ('A' for Active; 'I' for Inactive)
REMARK    1  A    between atoms: C1_2  and  C2_4
REMARK    2  A    between atoms: C11_16  and  N3_17
ROOT
HETATM    1  C2  UNL     1      13.633 -13.499  25.418  1.00  0.00     0.076 A
HETATM    2  C3  UNL     1      13.304 -14.659  24.738  1.00  0.00     0.062 A
HETATM    3  C4  UNL     1      13.614 -14.578  23.400  1.00  0.00     0.055 A
HETATM    4  C5  UNL     1      14.176 -13.234  23.304  1.00  0.00     0.043 A
HETATM    5  N1  UNL     1      14.152 -12.692  24.486  1.00  0.00    -0.356 N
ATOM      6  H1  UNL     1      14.493 -11.751  24.682  1.00  0.00     0.166 HD
HETATM    7  C6  UNL     1      14.577 -12.944  21.874  1.00  0.00     0.073 C
HETATM    8  C7  UNL     1      15.610 -13.952  21.446  1.00  0.00     0.033 C
HETATM    9  C8  UNL     1      15.068 -15.394  21.595  1.00  0.00     0.123 C
HETATM   10  N2  UNL     1      13.687 -15.070  22.081  1.00  0.00    -0.379 N
HETATM   11  C9  UNL     1      12.680 -15.113  21.033  1.00  0.00     0.125 C
HETATM   12  C10 UNL     1      13.045 -13.882  20.112  1.00  0.00     0.056 C
HETATM   13  C11 UNL     1      13.430 -12.719  20.977  1.00  0.00     0.234 C
ENDROOT
BRANCH  13  14
HETATM   14  N3  UNL     1      13.465 -11.477  20.274  1.00  0.00     0.093 N
HETATM   15  C12 UNL     1      14.158 -10.415  20.896  1.00  0.00     0.273 C
HETATM   16  C13 UNL     1      13.141  -9.470  21.495  1.00  0.00     0.032 C
HETATM   17  C14 UNL     1      11.922  -9.723  20.660  1.00  0.00     0.032 C
HETATM   18  C15 UNL     1      12.271 -10.934  19.802  1.00  0.00     0.273 C
ENDBRANCH  13  14
BRANCH   1  19
HETATM   19  C1  UNL     1      13.464 -13.189  26.845  1.00  0.00     0.403 C
HETATM   20  F1  UNL     1      13.835 -11.868  27.136  1.00  0.00    -0.208 F
HETATM   21  F2  UNL     1      14.241 -13.986  27.664  1.00  0.00    -0.208 F
ENDBRANCH   1  19
TORSDOF 2
ENDMDL