MODEL 3
REMARK VINA RESULT: -7.307064602      3.483      4.728
REMARK  3 active torsions:
REMARK  status: ('A' for Active; 'I' for Inactive)
REMARK    1  A    between atoms: C7_8  and  C8_9
REMARK    2  A    between atoms: C10_11  and  C11_12
REMARK    3  A    between atoms: C11_12  and  O1_13
ROOT
HETATM    1  N1  UNL     1      15.317  -8.599  22.933  1.00  0.00    -0.196 NA
HETATM    2  C1  UNL     1      14.581  -9.501  22.818  1.00  0.00     0.073 C
HETATM    3  C2  UNL     1      13.656 -10.623  22.678  1.00  0.00     0.074 C
HETATM    4  C3  UNL     1      12.459 -10.194  21.929  1.00  0.00    -0.005 C
HETATM    5  C4  UNL     1      11.738 -11.049  21.206  1.00  0.00    -0.021 C
HETATM    6  C5  UNL     1      12.252 -12.469  21.227  1.00  0.00     0.048 C
HETATM    7  C6  UNL     1      12.231 -12.981  22.613  1.00  0.00     0.022 C
HETATM    8  C7  UNL     1      13.545 -12.618  23.308  1.00  0.00    -0.025 C
HETATM    9  C12 UNL     1      13.368 -11.337  24.008  1.00  0.00     0.039 C
HETATM   10  C13 UNL     1      14.271 -11.901  22.212  1.00  0.00     0.060 C
HETATM   11  C14 UNL     1      13.717 -12.382  20.895  1.00  0.00     0.126 C
HETATM   12 CL1  UNL     1      14.009 -11.198  19.605  1.00  0.00    -0.100 Cl
HETATM   13 CL2  UNL     1      14.426 -13.938  20.491  1.00  0.00    -0.100 Cl
ENDROOT
BRANCH   8  14
HETATM   14  C8  UNL     1      14.210 -13.786  23.931  1.00  0.00     0.001 A
HETATM   15  C9  UNL     1      13.602 -14.558  25.072  1.00  0.00     0.013 A
HETATM   16  C10 UNL     1      14.101 -15.194  23.728  1.00  0.00     0.014 A
BRANCH  16  17
HETATM   17  C11 UNL     1      13.057 -16.060  23.154  1.00  0.00     0.169 C
BRANCH  17  18
HETATM   18  O1  UNL     1      13.366 -17.407  23.023  1.00  0.00    -0.400 OA
ATOM     19  H1  UNL     1      13.845 -17.661  22.242  1.00  0.00     0.209 HD
ENDBRANCH  17  18
ENDBRANCH  16  17
ENDBRANCH   8  14
TORSDOF 3
ENDMDL