MODEL 1
REMARK VINA RESULT: -8.823365955      0.000      0.000
REMARK  2 active torsions:
REMARK  status: ('A' for Active; 'I' for Inactive)
REMARK    1  A    between atoms: N2_12  and  C8_13
REMARK    2  A    between atoms: C11_16  and  C12_17
ROOT
HETATM    1  O1  UNL     1      12.900 -16.516  22.930  1.00  0.00    -0.245 OA
HETATM    2  C1  UNL     1      13.067 -15.406  22.395  1.00  0.00     0.345 C
HETATM    3  N1  UNL     1      13.126 -15.061  21.010  1.00  0.00    -0.307 N
ATOM      4  H1  UNL     1      13.177 -15.700  20.216  1.00  0.00     0.167 HD
HETATM    5  C2  UNL     1      13.098 -13.622  20.972  1.00  0.00     0.165 C
HETATM    6  C3  UNL     1      14.015 -13.079  19.901  1.00  0.00     0.064 C
HETATM    7  C4  UNL     1      13.800 -11.624  19.667  1.00  0.00     0.005 C
HETATM    8  C5  UNL     1      12.341 -11.320  19.377  1.00  0.00     0.000 C
HETATM    9  C6  UNL     1      11.578 -11.680  20.654  1.00  0.00     0.005 C
HETATM   10  C7  UNL     1      11.674 -13.189  20.784  1.00  0.00     0.064 C
HETATM   11  O2  UNL     1      13.607 -13.260  22.193  1.00  0.00    -0.240 OA
HETATM   12  N2  UNL     1      13.242 -14.185  23.103  1.00  0.00    -0.200 N
ENDROOT
BRANCH  12  13
HETATM   13  C8  UNL     1      13.089 -13.888  24.495  1.00  0.00     0.120 C
HETATM   14  C9  UNL     1      13.200 -12.422  24.814  1.00  0.00     0.028 C
HETATM   15  C10 UNL     1      13.951 -12.248  26.090  1.00  0.00     0.012 C
HETATM   16  C11 UNL     1      13.596 -13.274  27.145  1.00  0.00     0.051 C
HETATM   17  C13 UNL     1      13.773 -14.679  26.676  1.00  0.00     0.012 C
HETATM   18  C14 UNL     1      14.240 -14.608  25.216  1.00  0.00     0.028 C
BRANCH  16  19
HETATM   19  C12 UNL     1      14.503 -12.979  28.347  1.00  0.00     0.357 C
HETATM   20  F1  UNL     1      15.341 -14.042  28.574  1.00  0.00    -0.214 F
HETATM   21  F2  UNL     1      15.246 -11.850  28.157  1.00  0.00    -0.214 F
ENDBRANCH  16  19
ENDBRANCH  12  13
TORSDOF 2
ENDMDL