MODEL 5
REMARK VINA RESULT: -7.382146459      1.691      2.316
REMARK  2 active torsions:
REMARK  status: ('A' for Active; 'I' for Inactive)
REMARK    1  A    between atoms: C1_2  and  C2_3
REMARK       I    between atoms: C1_2  and  N2_10
REMARK    2  A    between atoms: C10_16  and  C11_17
ROOT
HETATM    1  O1  UNL     1      12.721 -10.405  22.536  1.00  0.00    -0.271 OA
HETATM    2  C1  UNL     1      12.632 -10.836  21.333  1.00  0.00     0.251 C
HETATM    3  N2  UNL     1      12.493 -12.197  21.038  1.00  0.00    -0.342 N
HETATM    4  C6  UNL     1      12.365 -12.796  19.728  1.00  0.00     0.129 C
HETATM    5  C7  UNL     1      13.468 -13.859  19.856  1.00  0.00     0.065 C
HETATM    6  C8  UNL     1      13.027 -14.501  21.165  1.00  0.00     0.126 C
HETATM    7  F1  UNL     1      12.055 -15.426  20.829  1.00  0.00    -0.241 F
HETATM    8  C9  UNL     1      14.175 -15.163  21.880  1.00  0.00     0.051 C
HETATM    9  C10 UNL     1      13.636 -15.531  23.267  1.00  0.00     0.003 C
HETATM   10  C12 UNL     1      13.510 -14.253  24.030  1.00  0.00     0.008 C
HETATM   11  C13 UNL     1      13.148 -13.056  23.227  1.00  0.00     0.029 C
HETATM   12  C14 UNL     1      12.449 -13.340  21.943  1.00  0.00     0.127 C
ENDROOT
BRANCH   2  13
HETATM   13  C2  UNL     1      12.681  -9.801  20.265  1.00  0.00     0.277 C
HETATM   14  C3  UNL     1      14.034  -9.745  19.623  1.00  0.00     0.044 C
HETATM   15  C4  UNL     1      14.470  -8.286  19.754  1.00  0.00     0.030 C
HETATM   16  C5  UNL     1      13.129  -7.576  19.923  1.00  0.00     0.233 C
HETATM   17  N1  UNL     1      12.460  -8.474  20.826  1.00  0.00    -0.062 N
ATOM     18  H12 UNL     1      11.477  -8.248  20.982  1.00  0.00     0.278 HD
ATOM     19  H11 UNL     1      12.755  -8.380  21.797  1.00  0.00     0.278 HD
ENDBRANCH   2  13
BRANCH   9  20
HETATM   20  C11 UNL     1      14.533 -16.516  23.957  1.00  0.00     0.119 C
HETATM   21 CL1  UNL     1      14.571 -16.185  25.709  1.00  0.00    -0.130 Cl
ENDBRANCH   9  20
TORSDOF 2
ENDMDL