MODEL 5
REMARK VINA RESULT: -7.330071557      1.588      2.402
REMARK  2 active torsions:
REMARK  status: ('A' for Active; 'I' for Inactive)
REMARK       I    between atoms: C2_2  and  N1_4
REMARK    1  A    between atoms: N1_4  and  C3_6
REMARK    2  A    between atoms: N2_9  and  C6_10
ROOT
HETATM    1  C3  UNL     1      12.003 -11.701  20.404  1.00  0.00     0.091 C
HETATM    2  C4  UNL     1      12.052 -10.652  21.494  1.00  0.00     0.056 C
HETATM    3  C5  UNL     1      11.605 -11.347  22.777  1.00  0.00     0.275 C
HETATM    4  N2  UNL     1      12.406 -12.471  23.112  1.00  0.00     0.093 N
HETATM    5  C12 UNL     1      13.457 -12.748  22.164  1.00  0.00     0.279 C
HETATM    6  C13 UNL     1      12.851 -12.895  20.782  1.00  0.00     0.033 C
HETATM    7  C14 UNL     1      12.080 -14.186  20.734  1.00  0.00     0.014 C
ENDROOT
BRANCH   4   8
HETATM    8  C6  UNL     1      12.838 -12.515  24.474  1.00  0.00     0.223 C
HETATM    9  C7  UNL     1      13.499 -13.814  24.806  1.00  0.00     0.041 C
HETATM   10  C8  UNL     1      13.704 -13.926  26.295  1.00  0.00     0.081 C
HETATM   11  C9  UNL     1      14.301 -12.720  26.922  1.00  0.00     0.243 C
HETATM   12  F1  UNL     1      15.700 -12.748  26.920  1.00  0.00    -0.206 F
HETATM   13  F2  UNL     1      13.948 -12.739  28.279  1.00  0.00    -0.206 F
HETATM   14  C10 UNL     1      13.847 -11.418  26.369  1.00  0.00     0.081 C
HETATM   15  C11 UNL     1      13.811 -11.416  24.839  1.00  0.00     0.041 C
ENDBRANCH   4   8
BRANCH   1  16
HETATM   16  N1  UNL     1      12.386 -11.175  19.117  1.00  0.00    -0.356 N
HETATM   17  C2  UNL     1      11.750 -10.012  18.605  1.00  0.00     0.213 C
HETATM   18  C1  UNL     1      12.103  -9.431  17.294  1.00  0.00     0.117 C
HETATM   19  O1  UNL     1      10.854  -9.439  19.274  1.00  0.00    -0.274 OA
ATOM     20  H1  UNL     1      13.113 -11.638  18.573  1.00  0.00     0.162 HD
ENDBRANCH   1  16
TORSDOF 2
ENDMDL