MODEL 2
REMARK VINA RESULT: -5.233261015      5.064      5.896
REMARK  2 active torsions:
REMARK  status: ('A' for Active; 'I' for Inactive)
REMARK    1  A    between atoms: O1_2  and  N1_3
REMARK    2  A    between atoms: C2_5  and  C3_6
ROOT
HETATM    1  C3  UNL     1      13.187 -13.126  23.879  1.00  0.00     0.051 A
HETATM    2  C4  UNL     1      13.514 -12.132  24.778  1.00  0.00     0.053 A
HETATM    3  C5  UNL     1      13.946 -12.688  25.963  1.00  0.00     0.047 A
HETATM    4 BR1  UNL     1      14.523 -11.778  27.553  1.00  0.00    -0.048 Br
HETATM    5  C6  UNL     1      13.869 -14.054  25.750  1.00  0.00     0.097 A
HETATM    6 BR2  UNL     1      14.328 -15.412  27.009  1.00  0.00    -0.030 Br
HETATM    7  N2  UNL     1      13.416 -14.293  24.506  1.00  0.00    -0.348 N
ATOM      8  H2  UNL     1      13.270 -15.217  24.100  1.00  0.00     0.166 HD
ENDROOT
BRANCH   1   9
HETATM    9  C2  UNL     1      12.686 -12.946  22.501  1.00  0.00     0.143 C
HETATM   10  N1  UNL     1      11.710 -12.157  22.249  1.00  0.00    -0.276 N
ATOM     11  H1  UNL     1      11.295 -11.660  23.037  1.00  0.00     0.193 HD
BRANCH  10  12
HETATM   12  O1  UNL     1      11.184 -11.928  21.026  1.00  0.00    -0.286 OA
HETATM   13  C1  UNL     1      11.880 -11.057  20.149  1.00  0.00     0.237 C
ENDBRANCH  10  12
ENDBRANCH   1   9
TORSDOF 2
ENDMDL