MODEL 4
REMARK VINA RESULT: -8.126127726      4.473      7.306
REMARK  8 active torsions:
REMARK  status: ('A' for Active; 'I' for Inactive)
REMARK    1  A    between atoms: O1_2  and  C2_3
REMARK    2  A    between atoms: C4_5  and  C5_6
REMARK    3  A    between atoms: C5_6  and  O3_8
REMARK    4  A    between atoms: O3_8  and  C6_9
REMARK    5  A    between atoms: C6_9  and  C7_10
REMARK       I    between atoms: C7_10  and  N1_12
REMARK    6  A    between atoms: N1_12  and  C8_14
REMARK    7  A    between atoms: C15_27  and  C16_28
REMARK    8  A    between atoms: C17_33  and  O8_34
ROOT
HETATM    1  C6  UNL     1      -6.474 -16.833  13.243  1.00  0.00     0.282 C
ENDROOT
BRANCH   1   2
HETATM    2  O3  UNL     1      -7.301 -16.097  12.375  1.00  0.00    -0.308 OA
BRANCH   2   3
HETATM    3  C5  UNL     1      -8.312 -15.240  12.927  1.00  0.00     0.296 C
HETATM    4  O2  UNL     1      -9.238 -15.889  13.413  1.00  0.00    -0.259 OA
BRANCH   3   5
HETATM    5  C4  UNL     1      -8.102 -13.815  12.838  1.00  0.00     0.075 A
HETATM    6  C3  UNL     1      -7.853 -13.274  11.558  1.00  0.00     0.061 A
HETATM    7  C2  UNL     1      -7.656 -11.932  11.387  1.00  0.00     0.120 A
HETATM    8  C17 UNL     1      -7.701 -11.071  12.488  1.00  0.00     0.176 A
HETATM    9  N3  UNL     1      -7.935 -11.599  13.679  1.00  0.00    -0.328 N
HETATM   10  C15 UNL     1      -8.139 -12.960  13.885  1.00  0.00     0.128 A
ATOM     11  H3  UNL     1      -7.968 -10.977  14.487  1.00  0.00     0.168 HD
BRANCH   7  12
HETATM   12  O1  UNL     1      -7.409 -11.342  10.168  1.00  0.00    -0.352 OA
HETATM   13  C1  UNL     1      -6.706 -11.912   9.095  1.00  0.00     0.210 C
ENDBRANCH   7  12
BRANCH   8  14
HETATM   14  O8  UNL     1      -7.501  -9.717  12.307  1.00  0.00    -0.339 OA
HETATM   15  C18 UNL     1      -8.429  -8.768  12.792  1.00  0.00     0.211 C
ENDBRANCH   8  14
BRANCH  10  16
HETATM   16  C16 UNL     1      -8.368 -13.374  15.242  1.00  0.00     0.228 C
HETATM   17  O6  UNL     1      -7.534 -13.653  16.091  1.00  0.00    -0.643 OA
HETATM   18  O7  UNL     1      -9.745 -13.474  15.655  1.00  0.00    -0.643 OA
ENDBRANCH  10  16
ENDBRANCH   3   5
ENDBRANCH   2   3
ENDBRANCH   1   2
BRANCH   1  19
HETATM   19  C7  UNL     1      -5.897 -16.060  14.347  1.00  0.00     0.249 C
HETATM   20  O4  UNL     1      -6.069 -16.547  15.517  1.00  0.00    -0.271 OA
HETATM   21  N1  UNL     1      -5.184 -14.851  14.264  1.00  0.00    -0.290 N
ATOM     22  H1  UNL     1      -5.373 -14.196  13.506  1.00  0.00     0.172 HD
BRANCH  21  23
HETATM   23  C8  UNL     1      -4.275 -14.571  15.166  1.00  0.00     0.232 A
HETATM   24  N2  UNL     1      -4.471 -14.448  16.483  1.00  0.00    -0.318 N
HETATM   25  C9  UNL     1      -3.296 -14.156  17.060  1.00  0.00     0.093 A
ATOM     26  H2  UNL     1      -5.362 -14.559  16.967  1.00  0.00     0.169 HD
HETATM   27  C10 UNL     1      -2.874 -13.918  18.358  1.00  0.00     0.087 A
HETATM   28  C14 UNL     1      -2.343 -14.097  16.053  1.00  0.00     0.109 A
HETATM   29 CL1  UNL     1      -4.065 -13.992  19.655  1.00  0.00    -0.080 Cl
HETATM   30  C11 UNL     1      -1.579 -13.634  18.669  1.00  0.00     0.080 A
HETATM   31 CL2  UNL     1      -1.071 -13.335  20.314  1.00  0.00    -0.081 Cl
HETATM   32  C12 UNL     1      -0.635 -13.578  17.649  1.00  0.00     0.060 A
HETATM   33 CL3  UNL     1       1.029 -13.217  18.029  1.00  0.00    -0.082 Cl
HETATM   34  C13 UNL     1      -1.022 -13.810  16.349  1.00  0.00     0.065 A
HETATM   35  O5  UNL     1      -2.995 -14.355  14.946  1.00  0.00    -0.277 OA
ENDBRANCH  21  23
ENDBRANCH   1  19
TORSDOF 8
ENDMDL