MODEL 5
REMARK VINA RESULT: -7.631199069      5.356      9.230
REMARK  10 active torsions:
REMARK  status: ('A' for Active; 'I' for Inactive)
REMARK    1  A    between atoms: C2_2  and  O1_3
REMARK    2  A    between atoms: O1_3  and  C3_4
REMARK    3  A    between atoms: C3_4  and  C4_6
REMARK    4  A    between atoms: C5_7  and  N1_8
REMARK       I    between atoms: N1_8  and  C6_10
REMARK    5  A    between atoms: C6_10  and  C7_12
REMARK    6  A    between atoms: C7_12  and  N2_14
REMARK       I    between atoms: N2_14  and  C9_16
REMARK    7  A    between atoms: C9_16  and  O5_18
REMARK    8  A    between atoms: O5_18  and  C10_19
REMARK       I    between atoms: N3_28  and  C18_29
REMARK    9  A    between atoms: C18_29  and  O7_31
REMARK   10  A    between atoms: O7_31  and  C19_32
ROOT
HETATM    1  C4  UNL     1      -6.878 -14.395  15.921  1.00  0.00     0.080 A
HETATM    2  C5  UNL     1      -6.818 -13.902  17.195  1.00  0.00     0.094 A
HETATM    3  S1  UNL     1      -8.180 -12.837  17.272  1.00  0.00    -0.074 SA
HETATM    4  C14 UNL     1      -8.767 -13.053  15.708  1.00  0.00     0.010 A
HETATM    5  C15 UNL     1      -7.902 -13.947  15.141  1.00  0.00    -0.023 A
HETATM    6  C16 UNL     1      -8.272 -14.261  13.693  1.00  0.00     0.061 C
HETATM    7  C17 UNL     1      -8.516 -12.955  12.940  1.00  0.00     0.133 C
HETATM    8  N3  UNL     1      -9.397 -12.086  13.645  1.00  0.00    -0.323 N
HETATM    9  C18 UNL     1      -9.743 -10.821  13.132  1.00  0.00     0.369 C
HETATM   10  O6  UNL     1     -10.522 -10.067  13.768  1.00  0.00    -0.238 OA
HETATM   11  C20 UNL     1      -9.942 -12.513  14.909  1.00  0.00     0.174 C
ENDROOT
BRANCH   2  12
HETATM   12  N1  UNL     1      -5.894 -14.143  18.277  1.00  0.00    -0.319 N
HETATM   13  C6  UNL     1      -4.566 -13.662  18.174  1.00  0.00     0.245 C
HETATM   14  O3  UNL     1      -4.224 -13.042  17.153  1.00  0.00    -0.271 OA
ATOM     15  H1  UNL     1      -6.193 -14.655  19.107  1.00  0.00     0.169 HD
BRANCH  13  16
HETATM   16  C7  UNL     1      -3.598 -13.886  19.252  1.00  0.00     0.175 C
HETATM   17  C8  UNL     1      -4.281 -14.351  20.532  1.00  0.00     0.042 C
BRANCH  16  18
HETATM   18  N2  UNL     1      -2.620 -14.858  18.804  1.00  0.00    -0.324 N
HETATM   19  C9  UNL     1      -1.249 -14.785  19.209  1.00  0.00     0.362 C
HETATM   20  O4  UNL     1      -0.920 -13.848  19.971  1.00  0.00    -0.238 OA
ATOM     21  H2  UNL     1      -2.916 -15.612  18.184  1.00  0.00     0.165 HD
BRANCH  19  22
HETATM   22  O5  UNL     1      -0.298 -15.680  18.808  1.00  0.00    -0.294 OA
BRANCH  22  23
HETATM   23  C10 UNL     1       0.392 -15.633  17.585  1.00  0.00     0.061 C
HETATM   24  C11 UNL     1      -0.456 -16.321  16.538  1.00  0.00     0.046 C
HETATM   25  C12 UNL     1       1.692 -16.421  17.704  1.00  0.00     0.046 C
HETATM   26  C13 UNL     1       0.757 -14.232  17.160  1.00  0.00     0.046 C
ENDBRANCH  22  23
ENDBRANCH  19  22
ENDBRANCH  16  18
ENDBRANCH  13  16
ENDBRANCH   2  12
BRANCH   1  27
HETATM   27  C3  UNL     1      -5.859 -15.386  15.440  1.00  0.00     0.296 C
HETATM   28  O2  UNL     1      -5.775 -16.542  15.907  1.00  0.00    -0.259 OA
BRANCH  27  29
HETATM   29  O1  UNL     1      -4.948 -15.090  14.453  1.00  0.00    -0.318 OA
BRANCH  29  30
HETATM   30  C2  UNL     1      -3.636 -15.601  14.454  1.00  0.00     0.174 C
HETATM   31  C1  UNL     1      -2.611 -14.576  14.089  1.00  0.00     0.034 C
ENDBRANCH  29  30
ENDBRANCH  27  29
ENDBRANCH   1  27
BRANCH   9  32
HETATM   32  O7  UNL     1      -9.256 -10.347  11.927  1.00  0.00    -0.204 OA
BRANCH  32  33
HETATM   33  C19 UNL     1      -8.064  -9.552  11.894  1.00  0.00     0.533 C
HETATM   34  F1  UNL     1      -7.143 -10.113  11.048  1.00  0.00    -0.144 F
HETATM   35  F2  UNL     1      -8.338  -8.246  11.571  1.00  0.00    -0.144 F
HETATM   36  F3  UNL     1      -7.521  -9.552  13.175  1.00  0.00    -0.144 F
ENDBRANCH  32  33
ENDBRANCH   9  32
TORSDOF 10
ENDMDL