MODEL 3
REMARK VINA RESULT: -8.129528370      1.818      2.533
REMARK  8 active torsions:
REMARK  status: ('A' for Active; 'I' for Inactive)
REMARK    1  A    between atoms: C2_2  and  O1_3
REMARK    2  A    between atoms: O1_3  and  C3_4
REMARK    3  A    between atoms: C3_4  and  C4_6
REMARK    4  A    between atoms: N3_12  and  C6_14
REMARK    5  A    between atoms: C6_14  and  C7_15
REMARK    6  A    between atoms: C9_18  and  N4_19
REMARK       I    between atoms: N4_19  and  C10_21
REMARK    7  A    between atoms: C10_21  and  C11_23
REMARK    8  A    between atoms: C13_25  and  O4_26
ROOT
HETATM    1  C7  UNL     1      -1.093 -14.777  16.805  1.00  0.00     0.056 A
HETATM    2  C8  UNL     1      -0.618 -14.637  18.093  1.00  0.00     0.084 A
HETATM    3  S1  UNL     1      -2.013 -14.123  18.931  1.00  0.00    -0.063 SA
HETATM    4  C9  UNL     1      -3.105 -14.113  17.618  1.00  0.00     0.151 A
HETATM    5  N5  UNL     1      -2.346 -14.507  16.601  1.00  0.00    -0.335 N
ATOM      6  H5  UNL     1      -2.746 -14.596  15.666  1.00  0.00     0.168 HD
ENDROOT
BRANCH   1   7
HETATM    7  C6  UNL     1      -0.137 -15.240  15.707  1.00  0.00     0.120 C
BRANCH   7   8
HETATM    8  N3  UNL     1      -0.464 -16.484  15.151  1.00  0.00    -0.343 N
HETATM    9  C5  UNL     1      -1.436 -16.790  14.367  1.00  0.00     0.165 A
HETATM   10  N2  UNL     1      -2.418 -16.046  13.848  1.00  0.00    -0.279 N
HETATM   11  S2  UNL     1      -1.782 -18.329  13.709  1.00  0.00    -0.027 SA
HETATM   12  N1  UNL     1      -3.266 -16.603  13.081  1.00  0.00    -0.287 N
ATOM     13  H2  UNL     1      -2.486 -15.051  14.062  1.00  0.00     0.189 HD
HETATM   14  C4  UNL     1      -3.172 -17.897  12.807  1.00  0.00     0.168 A
ATOM     15  H1  UNL     1      -4.022 -16.051  12.675  1.00  0.00     0.188 HD
ATOM     16  H3  UNL     1       0.156 -17.255  15.403  1.00  0.00     0.167 HD
BRANCH  14  17
HETATM   17  C3  UNL     1      -4.039 -18.733  11.958  1.00  0.00     0.318 C
HETATM   18  O2  UNL     1      -3.485 -19.564  11.210  1.00  0.00    -0.257 OA
BRANCH  17  19
HETATM   19  O1  UNL     1      -5.392 -18.601  11.990  1.00  0.00    -0.316 OA
BRANCH  19  20
HETATM   20  C2  UNL     1      -6.288 -19.073  11.033  1.00  0.00     0.175 C
HETATM   21  C1  UNL     1      -7.069 -20.290  11.490  1.00  0.00     0.034 C
ENDBRANCH  19  20
ENDBRANCH  17  19
ENDBRANCH  14  17
ENDBRANCH   7   8
ENDBRANCH   1   7
BRANCH   4  22
HETATM   22  N4  UNL     1      -4.370 -13.806  17.580  1.00  0.00    -0.303 N
HETATM   23  C10 UNL     1      -5.277 -14.460  16.740  1.00  0.00     0.259 C
HETATM   24  O3  UNL     1      -4.919 -15.434  16.056  1.00  0.00    -0.267 OA
ATOM     25  H4  UNL     1      -4.712 -13.060  18.185  1.00  0.00     0.171 HD
BRANCH  23  26
HETATM   26  C11 UNL     1      -6.647 -13.931  16.718  1.00  0.00     0.059 A
HETATM   27  C12 UNL     1      -7.222 -13.567  17.917  1.00  0.00     0.057 A
HETATM   28  C13 UNL     1      -8.490 -13.076  17.957  1.00  0.00     0.094 A
HETATM   29  C15 UNL     1      -9.181 -12.955  16.747  1.00  0.00     0.107 A
HETATM   30 CL1  UNL     1     -10.824 -12.325  16.786  1.00  0.00    -0.078 Cl
HETATM   31  C16 UNL     1      -8.606 -13.318  15.553  1.00  0.00     0.163 A
HETATM   32  F1  UNL     1      -9.269 -13.208  14.377  1.00  0.00    -0.202 F
HETATM   33  C17 UNL     1      -7.313 -13.817  15.522  1.00  0.00     0.090 A
HETATM   34 CL2  UNL     1      -6.573 -14.272  14.024  1.00  0.00    -0.080 Cl
BRANCH  28  35
HETATM   35  O4  UNL     1      -9.137 -12.689  19.121  1.00  0.00    -0.354 OA
HETATM   36  C14 UNL     1      -8.584 -11.668  19.933  1.00  0.00     0.210 C
ENDBRANCH  28  35
ENDBRANCH  23  26
ENDBRANCH   4  22
TORSDOF 8
ENDMDL