MODEL 3
REMARK VINA RESULT: -8.524913893      3.281      6.954
REMARK  6 active torsions:
REMARK  status: ('A' for Active; 'I' for Inactive)
REMARK    1  A    between atoms: O1_2  and  C2_3
REMARK    2  A    between atoms: C4_6  and  S1_7
REMARK    3  A    between atoms: S1_7  and  N1_10
REMARK    4  A    between atoms: N1_10  and  C5_12
REMARK    5  A    between atoms: C6_13  and  C7_14
REMARK    6  A    between atoms: C7_14  and  C8_16
ROOT
HETATM    1  C5  UNL     1      -3.310 -13.939  17.931  1.00  0.00     0.098 A
HETATM    2  C6  UNL     1      -4.661 -14.214  17.947  1.00  0.00     0.128 A
HETATM    3  N2  UNL     1      -5.010 -14.149  19.263  1.00  0.00    -0.293 N
ATOM      4  H2  UNL     1      -5.953 -14.306  19.619  1.00  0.00     0.187 HD
HETATM    5  N3  UNL     1      -3.970 -13.857  20.014  1.00  0.00    -0.298 N
HETATM    6  C14 UNL     1      -3.971 -13.706  21.460  1.00  0.00     0.177 C
HETATM    7  C15 UNL     1      -2.882 -13.715  19.221  1.00  0.00     0.054 A
HETATM    8  C16 UNL     1      -1.528 -13.369  19.746  1.00  0.00     0.072 C
ENDROOT
BRANCH   1   9
HETATM    9  N1  UNL     1      -2.475 -13.884  16.804  1.00  0.00    -0.275 N
ATOM     10  H1  UNL     1      -2.684 -13.165  16.112  1.00  0.00     0.179 HD
BRANCH   9  11
HETATM   11  S1  UNL     1      -1.138 -14.909  16.474  1.00  0.00     0.282 S
HETATM   12  O2  UNL     1       0.122 -14.190  16.146  1.00  0.00    -0.199 OA
HETATM   13  O3  UNL     1      -0.860 -15.729  17.728  1.00  0.00    -0.199 OA
BRANCH  11  14
HETATM   14  C4  UNL     1      -1.566 -16.050  15.193  1.00  0.00     0.194 A
HETATM   15  C3  UNL     1      -2.618 -15.848  14.287  1.00  0.00     0.193 A
HETATM   16  C2  UNL     1      -2.648 -16.942  13.448  1.00  0.00     0.151 A
HETATM   17  F1  UNL     1      -3.454 -14.796  14.225  1.00  0.00    -0.200 F
HETATM   18  C18 UNL     1      -1.639 -17.800  13.825  1.00  0.00     0.156 A
HETATM   19  N4  UNL     1      -1.002 -17.226  14.889  1.00  0.00    -0.324 N
HETATM   20  N5  UNL     1      -1.281 -19.054  13.257  1.00  0.00    -0.079 NA
HETATM   21  C17 UNL     1       0.121 -17.825  15.569  1.00  0.00     0.158 C
BRANCH  16  22
HETATM   22  O1  UNL     1      -3.501 -17.221  12.385  1.00  0.00    -0.350 OA
HETATM   23  C1  UNL     1      -4.854 -17.581  12.565  1.00  0.00     0.210 C
ENDBRANCH  16  22
ENDBRANCH  11  14
ENDBRANCH   9  11
ENDBRANCH   1   9
BRANCH   2  24
HETATM   24  C7  UNL     1      -5.567 -14.468  16.846  1.00  0.00     0.214 C
HETATM   25  O4  UNL     1      -5.766 -15.669  16.450  1.00  0.00    -0.285 OA
BRANCH  24  26
HETATM   26  C8  UNL     1      -6.293 -13.433  16.127  1.00  0.00     0.038 A
HETATM   27  C9  UNL     1      -5.772 -12.853  14.996  1.00  0.00     0.019 A
HETATM   28  C10 UNL     1      -6.527 -11.856  14.374  1.00  0.00     0.025 A
HETATM   29  C11 UNL     1      -7.737 -11.455  14.851  1.00  0.00     0.035 A
HETATM   30 CL1  UNL     1      -8.701 -10.195  14.076  1.00  0.00    -0.084 Cl
HETATM   31  C12 UNL     1      -8.258 -12.028  15.975  1.00  0.00     0.048 A
HETATM   32  C13 UNL     1      -7.543 -13.000  16.596  1.00  0.00     0.050 A
HETATM   33 CL2  UNL     1      -8.189 -13.763  18.056  1.00  0.00    -0.083 Cl
ENDBRANCH  24  26
ENDBRANCH   2  24
TORSDOF 6
ENDMDL