MODEL 1
REMARK VINA RESULT: -7.882941953      0.000      0.000
REMARK  8 active torsions:
REMARK  status: ('A' for Active; 'I' for Inactive)
REMARK    1  A    between atoms: C2_2  and  O1_3
REMARK    2  A    between atoms: O1_3  and  C3_4
REMARK    3  A    between atoms: C3_4  and  C4_6
REMARK    4  A    between atoms: N2_9  and  C5_10
REMARK    5  A    between atoms: C6_11  and  C7_12
REMARK    6  A    between atoms: C13_19  and  N3_20
REMARK    7  A    between atoms: C15_24  and  O3_26
REMARK    8  A    between atoms: O3_26  and  N4_27
ROOT
HETATM    1  C4  UNL     1      -2.435 -14.416  16.839  1.00  0.00     0.146 A
HETATM    2  N1  UNL     1      -3.731 -14.138  16.919  1.00  0.00    -0.286 N
ATOM      3  H1  UNL     1      -4.048 -13.546  17.686  1.00  0.00     0.188 HD
HETATM    4  N2  UNL     1      -4.655 -14.595  16.043  1.00  0.00    -0.250 N
HETATM    5  C13 UNL     1      -4.273 -15.382  15.014  1.00  0.00     0.131 A
HETATM    6  C14 UNL     1      -2.939 -15.729  14.844  1.00  0.00     0.053 A
HETATM    7  C15 UNL     1      -2.382 -16.571  13.779  1.00  0.00     0.266 C
HETATM    8 BR1  UNL     1      -0.549 -17.077  14.389  1.00  0.00    -0.027 Br
HETATM    9  C18 UNL     1      -2.052 -15.217  15.790  1.00  0.00     0.077 A
HETATM   10 CL2  UNL     1      -0.320 -15.569  15.698  1.00  0.00    -0.106 Cl
ENDROOT
BRANCH   4  11
HETATM   11  C5  UNL     1      -6.000 -14.196  16.284  1.00  0.00     0.119 C
HETATM   12  C6  UNL     1      -6.470 -13.135  16.848  1.00  0.00     0.032 C
BRANCH  12  13
HETATM   13  C7  UNL     1      -7.922 -12.929  16.991  1.00  0.00    -0.013 A
HETATM   14  C8  UNL     1      -8.644 -13.506  17.988  1.00  0.00     0.013 A
HETATM   15  C9  UNL     1     -10.035 -13.279  18.084  1.00  0.00     0.001 A
HETATM   16  C10 UNL     1     -10.666 -12.482  17.184  1.00  0.00     0.002 A
HETATM   17  C11 UNL     1      -9.941 -11.906  16.187  1.00  0.00     0.024 A
HETATM   18  C12 UNL     1      -8.599 -12.121  16.087  1.00  0.00     0.044 A
HETATM   19 CL1  UNL     1      -7.701 -11.362  14.790  1.00  0.00    -0.083 Cl
ENDBRANCH  12  13
ENDBRANCH   4  11
BRANCH   5  20
HETATM   20  N3  UNL     1      -5.101 -15.806  14.188  1.00  0.00    -0.383 N
ATOM     21  H32 UNL     1      -5.294 -15.239  13.364  1.00  0.00     0.157 HD
ATOM     22  H31 UNL     1      -5.582 -16.695  14.333  1.00  0.00     0.157 HD
ENDBRANCH   5  20
BRANCH   1  23
HETATM   23  C3  UNL     1      -1.464 -13.893  17.818  1.00  0.00     0.313 C
HETATM   24  O2  UNL     1      -0.777 -12.896  17.491  1.00  0.00    -0.257 OA
BRANCH  23  25
HETATM   25  O1  UNL     1      -1.291 -14.453  19.056  1.00  0.00    -0.317 OA
BRANCH  25  26
HETATM   26  C2  UNL     1      -1.700 -13.712  20.200  1.00  0.00     0.175 C
HETATM   27  C1  UNL     1      -3.137 -13.941  20.530  1.00  0.00     0.034 C
ENDBRANCH  25  26
ENDBRANCH  23  25
ENDBRANCH   1  23
BRANCH   7  28
HETATM   28  O3  UNL     1      -3.041 -17.744  13.460  1.00  0.00    -0.258 OA
BRANCH  28  29
HETATM   29  N4  UNL     1      -3.271 -18.155  12.206  1.00  0.00    -0.256 N
HETATM   30  C16 UNL     1      -4.289 -18.158  11.478  1.00  0.00     0.109 C
HETATM   31  C17 UNL     1      -4.123 -18.728  10.084  1.00  0.00     0.087 C
HETATM   32  N5  UNL     1      -5.580 -17.678  11.834  1.00  0.00    -0.086 NA
ATOM     33  H4  UNL     1      -2.447 -18.547  11.751  1.00  0.00     0.195 HD
ENDBRANCH  28  29
ENDBRANCH   7  28
TORSDOF 8
ENDMDL