MODEL 1
REMARK VINA RESULT: -8.817441707      0.000      0.000
REMARK  7 active torsions:
REMARK  status: ('A' for Active; 'I' for Inactive)
REMARK    1  A    between atoms: O1_2  and  N1_3
REMARK    2  A    between atoms: N1_3  and  C2_5
REMARK    3  A    between atoms: C6_10  and  O2_11
REMARK    4  A    between atoms: N3_13  and  C7_14
REMARK    5  A    between atoms: C12_20  and  O3_21
REMARK    6  A    between atoms: O3_21  and  C13_22
REMARK    7  A    between atoms: C13_22  and  C14_23
ROOT
HETATM    1  C7  UNL     1      -5.830 -13.424  16.338  1.00  0.00     0.093 A
HETATM    2  C8  UNL     1      -6.594 -13.417  17.485  1.00  0.00     0.035 A
HETATM    3  C9  UNL     1      -6.017 -13.596  18.734  1.00  0.00     0.021 A
HETATM    4  C10 UNL     1      -4.645 -13.787  18.832  1.00  0.00     0.013 A
HETATM    5 BR1  UNL     1      -3.801 -14.037  20.520  1.00  0.00    -0.051 Br
HETATM    6  C11 UNL     1      -3.877 -13.794  17.687  1.00  0.00     0.058 A
HETATM    7  C12 UNL     1      -4.445 -13.617  16.443  1.00  0.00     0.104 A
ENDROOT
BRANCH   1   8
HETATM    8  N3  UNL     1      -6.492 -13.234  15.111  1.00  0.00    -0.120 N
HETATM    9  C2  UNL     1      -7.106 -14.191  14.408  1.00  0.00     0.713 A
HETATM   10  N2  UNL     1      -7.620 -13.635  13.298  1.00  0.00    -0.185 N
HETATM   11  C3  UNL     1      -8.365 -14.294  12.256  1.00  0.00     0.175 C
HETATM   12  C4  UNL     1      -7.339 -12.307  13.280  1.00  0.00     0.076 A
HETATM   13  C5  UNL     1      -7.711 -11.309  12.251  1.00  0.00     0.074 C
HETATM   14  C6  UNL     1      -6.622 -12.064  14.434  1.00  0.00     0.186 A
BRANCH   9  15
HETATM   15  N1  UNL     1      -7.208 -15.440  14.709  1.00  0.00    -0.096 N
ATOM     16  H1  UNL     1      -8.069 -15.754  15.158  1.00  0.00     0.213 HD
BRANCH  15  17
HETATM   17  O1  UNL     1      -6.234 -16.375  14.466  1.00  0.00    -0.271 OA
HETATM   18  C1  UNL     1      -6.289 -17.070  13.229  1.00  0.00     0.238 C
ENDBRANCH  15  17
ENDBRANCH   9  15
BRANCH  14  19
HETATM   19  O2  UNL     1      -6.097 -10.849  14.885  1.00  0.00    -0.344 OA
ATOM     20  H2  UNL     1      -5.187 -10.578  14.914  1.00  0.00     0.219 HD
ENDBRANCH  14  19
ENDBRANCH   1   8
BRANCH   7  21
HETATM   21  O3  UNL     1      -3.697 -13.616  15.309  1.00  0.00    -0.319 OA
BRANCH  21  22
HETATM   22  C13 UNL     1      -2.392 -13.724  15.032  1.00  0.00     0.159 C
BRANCH  22  23
HETATM   23  C14 UNL     1      -1.565 -14.893  15.314  1.00  0.00     0.053 A
HETATM   24  C15 UNL     1      -0.507 -14.702  16.249  1.00  0.00     0.132 A
HETATM   25 CL1  UNL     1      -0.416 -13.105  16.987  1.00  0.00    -0.062 Cl
HETATM   26  N4  UNL     1       0.336 -15.664  16.531  1.00  0.00    -0.286 N
HETATM   27  N5  UNL     1       0.287 -16.861  15.995  1.00  0.00    -0.264 N
ATOM     28  H4  UNL     1       1.074 -15.470  17.208  1.00  0.00     0.188 HD
HETATM   29  C16 UNL     1      -0.675 -17.089  15.120  1.00  0.00     0.282 A
ATOM     30  H5  UNL     1       0.963 -17.583  16.244  1.00  0.00     0.190 HD
HETATM   31  O4  UNL     1      -0.757 -18.234  14.578  1.00  0.00    -0.265 OA
HETATM   32  C17 UNL     1      -1.619 -16.133  14.751  1.00  0.00     0.118 A
HETATM   33 CL2  UNL     1      -2.768 -16.537  13.481  1.00  0.00    -0.077 Cl
ENDBRANCH  22  23
ENDBRANCH  21  22
ENDBRANCH   7  21
TORSDOF 7
ENDMDL