MODEL 4
REMARK VINA RESULT: -8.791672801      2.028      2.824
REMARK  9 active torsions:
REMARK  status: ('A' for Active; 'I' for Inactive)
REMARK    1  A    between atoms: C2_2  and  C3_3
REMARK    2  A    between atoms: C2_2  and  N3_15
REMARK    3  A    between atoms: C3_3  and  O1_4
REMARK    4  A    between atoms: O1_4  and  C4_5
REMARK       I    between atoms: C4_5  and  N1_7
REMARK    5  A    between atoms: N1_7  and  C5_9
REMARK    6  A    between atoms: N3_15  and  C8_17
REMARK    7  A    between atoms: C17_30  and  C18_31
REMARK    8  A    between atoms: C18_31  and  O3_32
REMARK    9  A    between atoms: O3_32  and  C19_33
ROOT
HETATM    1  C8  UNL     1      -6.633 -14.006  17.474  1.00  0.00     0.146 A
HETATM    2  N4  UNL     1      -6.358 -13.797  18.754  1.00  0.00    -0.336 N
ATOM      3  H4  UNL     1      -7.112 -13.614  19.416  1.00  0.00     0.168 HD
HETATM    4  C9  UNL     1      -5.112 -13.827  19.163  1.00  0.00     0.052 A
HETATM    5  C10 UNL     1      -4.646 -13.627  20.482  1.00  0.00     0.034 A
HETATM    6  C11 UNL     1      -3.303 -13.689  20.752  1.00  0.00     0.040 A
HETATM    7  C12 UNL     1      -2.328 -13.938  19.822  1.00  0.00     0.079 A
HETATM    8  C13 UNL     1      -2.777 -14.133  18.537  1.00  0.00     0.034 A
HETATM    9  C14 UNL     1      -4.143 -14.075  18.230  1.00  0.00     0.047 A
HETATM   10  S2  UNL     1      -5.056 -14.258  16.801  1.00  0.00    -0.051 SA
HETATM   11  C15 UNL     1      -1.880 -14.414  17.391  1.00  0.00     0.138 C
HETATM   12  C16 UNL     1      -1.695 -13.123  16.646  1.00  0.00     0.058 C
HETATM   13  F1  UNL     1      -2.507 -15.314  16.546  1.00  0.00    -0.237 F
HETATM   14  C17 UNL     1      -0.611 -15.035  17.887  1.00  0.00     0.078 C
HETATM   15  C20 UNL     1      -0.015 -14.295  19.061  1.00  0.00     0.186 C
HETATM   16  O4  UNL     1      -0.985 -14.007  20.052  1.00  0.00    -0.350 OA
ENDROOT
BRANCH   1  17
HETATM   17  N3  UNL     1      -7.740 -14.032  16.821  1.00  0.00    -0.364 N
ATOM     18  H3  UNL     1      -8.157 -14.929  16.570  1.00  0.00     0.162 HD
BRANCH  17  19
HETATM   19  C2  UNL     1      -8.399 -12.808  16.440  1.00  0.00     0.104 C
HETATM   20  C1  UNL     1      -9.068 -12.090  17.551  1.00  0.00     0.034 C
BRANCH  19  21
HETATM   21  C3  UNL     1      -7.552 -12.003  15.491  1.00  0.00     0.205 C
BRANCH  21  22
HETATM   22  O1  UNL     1      -7.888 -12.068  14.186  1.00  0.00    -0.302 OA
BRANCH  22  23
HETATM   23  C4  UNL     1      -7.368 -12.779  13.168  1.00  0.00     0.366 C
HETATM   24  O2  UNL     1      -7.544 -12.472  11.970  1.00  0.00    -0.238 OA
HETATM   25  N1  UNL     1      -6.575 -13.946  13.509  1.00  0.00    -0.282 N
ATOM     26  H1  UNL     1      -5.589 -13.888  13.762  1.00  0.00     0.173 HD
BRANCH  25  27
HETATM   27  C5  UNL     1      -7.234 -15.083  13.465  1.00  0.00     0.152 A
HETATM   28  N2  UNL     1      -8.506 -15.326  13.169  1.00  0.00    -0.346 N
HETATM   29  C6  UNL     1      -8.941 -16.551  13.191  1.00  0.00     0.097 A
ATOM     30  H2  UNL     1      -9.135 -14.560  12.926  1.00  0.00     0.167 HD
HETATM   31  C7  UNL     1      -8.058 -17.543  13.520  1.00  0.00     0.070 A
HETATM   32  S1  UNL     1      -6.620 -16.664  13.790  1.00  0.00    -0.064 SA
ENDBRANCH  25  27
ENDBRANCH  22  23
ENDBRANCH  21  22
ENDBRANCH  19  21
ENDBRANCH  17  19
ENDBRANCH   1  17
BRANCH  14  33
HETATM   33  C18 UNL     1       0.368 -15.154  16.767  1.00  0.00     0.184 C
BRANCH  33  34
HETATM   34  O3  UNL     1       0.851 -16.427  16.551  1.00  0.00    -0.332 OA
BRANCH  34  35
HETATM   35  C19 UNL     1      -0.056 -17.159  15.824  1.00  0.00     0.500 C
HETATM   36  F2  UNL     1      -0.498 -16.401  14.734  1.00  0.00    -0.185 F
HETATM   37  F3  UNL     1       0.479 -18.325  15.309  1.00  0.00    -0.185 F
ENDBRANCH  34  35
ENDBRANCH  33  34
ENDBRANCH  14  33
TORSDOF 9
ENDMDL