MODEL 4
REMARK VINA RESULT: -8.603505486      3.974      8.020
REMARK  9 active torsions:
REMARK  status: ('A' for Active; 'I' for Inactive)
REMARK    1  A    between atoms: C3_5  and  C4_6
REMARK    2  A    between atoms: C4_6  and  O1_7
REMARK    3  A    between atoms: C4_6  and  C12_18
REMARK    4  A    between atoms: O1_7  and  C5_8
REMARK    5  A    between atoms: C5_8  and  C6_10
REMARK    6  A    between atoms: C12_18  and  O3_19
REMARK    7  A    between atoms: N2_21  and  C13_23
REMARK    8  A    between atoms: C14_28  and  C15_29
REMARK    9  A    between atoms: C15_29  and  C16_30
ROOT
HETATM    1  C4  UNL     1      -6.093 -14.167  16.871  1.00  0.00     0.281 C
ENDROOT
BRANCH   1   2
HETATM    2  C3  UNL     1      -5.090 -14.061  17.994  1.00  0.00     0.163 A
HETATM    3  N1  UNL     1      -5.360 -14.070  19.308  1.00  0.00    -0.338 N
HETATM    4  C2  UNL     1      -4.213 -13.953  19.975  1.00  0.00     0.053 A
ATOM      5  H1  UNL     1      -6.287 -14.152  19.726  1.00  0.00     0.167 HD
HETATM    6  C1  UNL     1      -3.968 -13.913  21.445  1.00  0.00     0.072 C
HETATM    7  C17 UNL     1      -3.217 -13.872  19.027  1.00  0.00     0.169 A
HETATM    8  O6  UNL     1      -3.800 -13.943  17.860  1.00  0.00    -0.280 OA
HETATM    9 CL3  UNL     1      -1.482 -13.705  19.345  1.00  0.00    -0.054 Cl
ENDBRANCH   1   2
BRANCH   1  10
HETATM   10  O1  UNL     1      -5.490 -13.451  15.758  1.00  0.00    -0.295 OA
BRANCH  10  11
HETATM   11  C5  UNL     1      -5.462 -14.178  14.549  1.00  0.00     0.296 C
HETATM   12  O2  UNL     1      -6.336 -13.972  13.665  1.00  0.00    -0.259 OA
BRANCH  11  13
HETATM   13  C6  UNL     1      -4.433 -15.167  14.303  1.00  0.00     0.061 A
HETATM   14  C7  UNL     1      -3.099 -14.858  14.290  1.00  0.00     0.021 A
HETATM   15  C8  UNL     1      -2.163 -15.858  14.032  1.00  0.00     0.025 A
HETATM   16  C9  UNL     1      -2.545 -17.161  13.790  1.00  0.00     0.035 A
HETATM   17 CL1  UNL     1      -1.377 -18.420  13.454  1.00  0.00    -0.084 Cl
HETATM   18  C10 UNL     1      -3.908 -17.412  13.819  1.00  0.00     0.048 A
HETATM   19  C11 UNL     1      -4.851 -16.474  14.063  1.00  0.00     0.051 A
HETATM   20 CL2  UNL     1      -6.558 -16.849  14.089  1.00  0.00    -0.083 Cl
ENDBRANCH  11  13
ENDBRANCH  10  11
ENDBRANCH   1  10
BRANCH   1  21
HETATM   21  C12 UNL     1      -7.351 -13.455  17.182  1.00  0.00     0.156 C
HETATM   22  N2  UNL     1      -7.832 -12.389  16.605  1.00  0.00    -0.317 N
ATOM     23  H2  UNL     1      -8.387 -11.929  17.327  1.00  0.00     0.170 HD
BRANCH  21  24
HETATM   24  O3  UNL     1      -8.075 -13.961  18.176  1.00  0.00    -0.347 OA
ATOM     25  H3  UNL     1      -8.807 -14.510  17.919  1.00  0.00     0.219 HD
ENDBRANCH  21  24
BRANCH  22  26
HETATM   26  C13 UNL     1      -7.943 -11.667  15.615  1.00  0.00     0.167 A
HETATM   27  N3  UNL     1      -7.201 -10.712  15.064  1.00  0.00    -0.279 N
HETATM   28  N4  UNL     1      -7.586 -10.110  14.019  1.00  0.00    -0.295 N
ATOM     29  H3  UNL     1      -6.309 -10.460  15.489  1.00  0.00     0.189 HD
HETATM   30  C14 UNL     1      -8.738 -10.423  13.455  1.00  0.00     0.079 A
ATOM     31  H4  UNL     1      -7.003  -9.380  13.611  1.00  0.00     0.187 HD
HETATM   32  S1  UNL     1      -9.305 -11.655  14.481  1.00  0.00    -0.037 SA
BRANCH  30  33
HETATM   33  C15 UNL     1      -9.380  -9.826  12.229  1.00  0.00     0.179 C
BRANCH  33  34
HETATM   34  C16 UNL     1      -8.373  -9.687  11.181  1.00  0.00     0.178 C
HETATM   35  O4  UNL     1      -7.192 -10.132  11.223  1.00  0.00    -0.648 OA
HETATM   36  O5  UNL     1      -8.778  -8.985  10.022  1.00  0.00    -0.648 OA
ENDBRANCH  33  34
ENDBRANCH  30  33
ENDBRANCH  22  26
ENDBRANCH   1  21
TORSDOF 9
ENDMDL