MODEL 3
REMARK VINA RESULT: -8.619187350      1.266      1.484
REMARK  7 active torsions:
REMARK  status: ('A' for Active; 'I' for Inactive)
REMARK    1  A    between atoms: C4_6  and  C5_7
REMARK    2  A    between atoms: C5_7  and  C6_9
REMARK    3  A    between atoms: C6_9  and  O2_10
REMARK    4  A    between atoms: O2_10  and  C7_11
REMARK    5  A    between atoms: C7_11  and  C8_13
REMARK    6  A    between atoms: C14_22  and  O4_23
REMARK    7  A    between atoms: O4_23  and  C15_24
ROOT
HETATM    1  C8  UNL     1      -3.376 -13.502  16.684  1.00  0.00     0.082 A
HETATM    2  C9  UNL     1      -2.318 -13.517  17.597  1.00  0.00    -0.019 A
HETATM    3  C10 UNL     1      -0.895 -13.366  17.216  1.00  0.00     0.051 C
HETATM    4  C11 UNL     1      -2.643 -13.698  18.941  1.00  0.00     0.064 A
HETATM    5 CL1  UNL     1      -1.326 -13.720  20.116  1.00  0.00    -0.082 Cl
HETATM    6  C12 UNL     1      -3.938 -13.851  19.334  1.00  0.00     0.080 A
HETATM    7 CL2  UNL     1      -4.327 -14.073  21.030  1.00  0.00    -0.081 Cl
HETATM    8  C13 UNL     1      -4.986 -13.842  18.443  1.00  0.00     0.091 A
HETATM    9 CL3  UNL     1      -6.640 -14.008  19.037  1.00  0.00    -0.079 Cl
HETATM   10  C14 UNL     1      -4.686 -13.667  17.092  1.00  0.00     0.109 A
ENDROOT
BRANCH   1  11
HETATM   11  C7  UNL     1      -3.031 -13.175  15.315  1.00  0.00     0.297 C
HETATM   12  O3  UNL     1      -2.685 -12.019  14.996  1.00  0.00    -0.259 OA
BRANCH  11  13
HETATM   13  O2  UNL     1      -3.054 -14.093  14.263  1.00  0.00    -0.309 OA
BRANCH  13  14
HETATM   14  C6  UNL     1      -1.839 -14.757  13.886  1.00  0.00     0.264 C
BRANCH  14  15
HETATM   15  C5  UNL     1      -1.894 -16.148  14.395  1.00  0.00     0.201 C
HETATM   16  O1  UNL     1      -1.387 -16.506  15.477  1.00  0.00    -0.288 OA
BRANCH  15  17
HETATM   17  C4  UNL     1      -2.588 -17.175  13.584  1.00  0.00     0.103 A
HETATM   18  N1  UNL     1      -3.870 -16.903  13.187  1.00  0.00    -0.359 N
HETATM   19  C3  UNL     1      -4.540 -17.790  12.457  1.00  0.00     0.113 A
ATOM     20  H1  UNL     1      -4.310 -16.021  13.451  1.00  0.00     0.165 HD
HETATM   21  C2  UNL     1      -3.991 -19.000  12.071  1.00  0.00     0.021 A
HETATM   22  C1  UNL     1      -4.764 -19.983  11.249  1.00  0.00     0.069 C
HETATM   23  N4  UNL     1      -2.749 -19.239  12.467  1.00  0.00    -0.360 N
HETATM   24  C19 UNL     1      -2.027 -18.355  13.218  1.00  0.00     0.036 A
ATOM     25  H4  UNL     1      -2.313 -20.121  12.199  1.00  0.00     0.165 HD
HETATM   26  C20 UNL     1      -0.648 -18.704  13.615  1.00  0.00     0.070 C
ENDBRANCH  15  17
ENDBRANCH  14  15
ENDBRANCH  13  14
ENDBRANCH  11  13
ENDBRANCH   1  11
BRANCH  10  27
HETATM   27  O4  UNL     1      -5.770 -13.697  16.212  1.00  0.00    -0.341 OA
BRANCH  27  28
HETATM   28  C15 UNL     1      -6.681 -12.611  16.059  1.00  0.00     0.154 C
HETATM   29  C16 UNL     1      -8.112 -12.909  15.832  1.00  0.00     0.167 C
HETATM   30  N2  UNL     1      -8.436 -13.446  14.528  1.00  0.00    -0.136 NA
HETATM   31  N3  UNL     1      -8.035 -12.496  13.557  1.00  0.00    -0.274 N
HETATM   32  C17 UNL     1      -7.250 -11.412  14.008  1.00  0.00     0.235 C
ATOM     33  H3  UNL     1      -8.301 -12.591  12.576  1.00  0.00     0.185 HD
HETATM   34  O5  UNL     1      -7.504 -10.224  13.593  1.00  0.00    -0.272 OA
HETATM   35  C18 UNL     1      -6.140 -11.683  14.960  1.00  0.00     0.138 C
ENDBRANCH  27  28
ENDBRANCH  10  27
TORSDOF 7
ENDMDL