MODEL 3
REMARK VINA RESULT: -8.639596435      3.856      7.913
REMARK  11 active torsions:
REMARK  status: ('A' for Active; 'I' for Inactive)
REMARK    1  A    between atoms: C2_2  and  O1_3
REMARK    2  A    between atoms: O1_3  and  C3_4
REMARK    3  A    between atoms: C3_4  and  C4_6
REMARK    4  A    between atoms: C4_6  and  C5_7
REMARK    5  A    between atoms: C5_7  and  O3_8
REMARK    6  A    between atoms: C5_7  and  C17_25
REMARK    7  A    between atoms: O3_8  and  C6_9
REMARK    8  A    between atoms: C11_16  and  C12_17
REMARK    9  A    between atoms: C12_17  and  O7_19
REMARK   10  A    between atoms: C22_32  and  C23_33
REMARK   11  A    between atoms: C24_34  and  N1_35
ROOT
HETATM    1  C5  UNL     1      -6.613 -13.721  14.668  1.00  0.00     0.075 C
ENDROOT
BRANCH   1   2
HETATM    2  C4  UNL     1      -6.887 -14.877  13.764  1.00  0.00     0.177 C
BRANCH   2   3
HETATM    3  C3  UNL     1      -6.507 -16.227  14.208  1.00  0.00     0.264 C
HETATM    4  O2  UNL     1      -6.226 -16.558  15.357  1.00  0.00    -0.265 OA
BRANCH   3   5
HETATM    5  O1  UNL     1      -6.450 -17.232  13.235  1.00  0.00    -0.322 OA
BRANCH   5   6
HETATM    6  C2  UNL     1      -5.522 -17.595  12.310  1.00  0.00     0.174 C
HETATM    7  C1  UNL     1      -4.067 -17.512  12.716  1.00  0.00     0.034 C
ENDBRANCH   5   6
ENDBRANCH   3   5
ENDBRANCH   2   3
ENDBRANCH   1   2
BRANCH   1   8
HETATM    8  O3  UNL     1      -5.370 -13.352  14.953  1.00  0.00    -0.312 OA
BRANCH   8   9
HETATM    9  C6  UNL     1      -4.394 -13.658  15.837  1.00  0.00     0.100 A
HETATM   10  C7  UNL     1      -4.689 -13.521  17.184  1.00  0.00     0.077 A
HETATM   11  C8  UNL     1      -3.809 -13.790  18.192  1.00  0.00     0.093 A
HETATM   12  O4  UNL     1      -4.165 -13.632  19.461  1.00  0.00    -0.275 OA
HETATM   13  C14 UNL     1      -2.542 -14.226  17.927  1.00  0.00     0.016 A
HETATM   14  C9  UNL     1      -3.338 -13.881  20.443  1.00  0.00     0.289 A
HETATM   15  O5  UNL     1      -3.747 -13.705  21.648  1.00  0.00    -0.260 OA
HETATM   16  C10 UNL     1      -2.062 -14.318  20.269  1.00  0.00     0.101 A
HETATM   17  C11 UNL     1      -1.640 -14.499  18.930  1.00  0.00     0.058 A
HETATM   18  C15 UNL     1      -2.217 -14.374  16.593  1.00  0.00     0.042 A
HETATM   19  C16 UNL     1      -3.133 -14.095  15.557  1.00  0.00     0.069 A
HETATM   20 CL1  UNL     1      -2.528 -14.408  13.926  1.00  0.00    -0.081 Cl
BRANCH  17  21
HETATM   21  C12 UNL     1      -0.273 -14.909  18.717  1.00  0.00     0.294 C
HETATM   22  O6  UNL     1       0.718 -14.192  18.575  1.00  0.00    -0.259 OA
BRANCH  21  23
HETATM   23  O7  UNL     1      -0.000 -16.291  18.649  1.00  0.00    -0.322 OA
HETATM   24  C13 UNL     1       0.388 -16.924  17.469  1.00  0.00     0.213 C
ENDBRANCH  21  23
ENDBRANCH  17  21
ENDBRANCH   8   9
ENDBRANCH   1   8
BRANCH   1  25
HETATM   25  C17 UNL     1      -7.605 -12.626  14.303  1.00  0.00     0.019 A
HETATM   26  C18 UNL     1      -7.610 -12.091  13.012  1.00  0.00     0.058 A
HETATM   27  C19 UNL     1      -8.614 -11.237  12.588  1.00  0.00     0.120 A
HETATM   28  F1  UNL     1      -8.651 -10.706  11.336  1.00  0.00    -0.206 F
HETATM   29  C20 UNL     1      -9.627 -10.913  13.457  1.00  0.00     0.086 A
HETATM   30  C21 UNL     1      -9.606 -11.448  14.739  1.00  0.00     0.139 A
HETATM   31  F2  UNL     1     -10.587 -11.156  15.645  1.00  0.00    -0.204 F
HETATM   32  C22 UNL     1      -8.612 -12.283  15.143  1.00  0.00     0.070 A
BRANCH  32  33
HETATM   33  C23 UNL     1      -8.497 -12.636  16.560  1.00  0.00    -0.040 C
HETATM   34  C24 UNL     1      -8.374 -12.870  17.743  1.00  0.00     0.009 C
BRANCH  34  35
HETATM   35  N1  UNL     1      -8.215 -13.117  19.126  1.00  0.00    -0.359 N
ATOM     36  H12 UNL     1      -8.099 -12.262  18.582  1.00  0.00     0.166 HD
ATOM     37  H11 UNL     1      -8.105 -13.316  20.121  1.00  0.00     0.166 HD
ENDBRANCH  34  35
ENDBRANCH  32  33
ENDBRANCH   1  25
TORSDOF 11
ENDMDL