MODEL 3
REMARK VINA RESULT: -7.744532587      3.306      4.473
REMARK  5 active torsions:
REMARK  status: ('A' for Active; 'I' for Inactive)
REMARK    1  A    between atoms: C2_2  and  C4_4
REMARK    2  A    between atoms: C2_2  and  C5_6
REMARK    3  A    between atoms: N1_10  and  O2_12
REMARK    4  A    between atoms: C9_15  and  C10_16
REMARK    5  A    between atoms: C13_19  and  N2_20
ROOT
HETATM    1  C5  UNL     1      -5.014  -5.053 -17.101  1.00  0.00     0.271 C
HETATM    2  O1  UNL     1      -5.498  -3.880 -16.567  1.00  0.00    -0.347 OA
HETATM    3  C6  UNL     1      -6.350  -3.370 -17.560  1.00  0.00     0.201 C
HETATM    4  C7  UNL     1      -7.535  -2.775 -16.958  1.00  0.00     0.044 C
HETATM    5  N1  UNL     1      -7.476  -2.258 -15.779  1.00  0.00    -0.275 N
ATOM      6  H1  UNL     1      -8.312  -1.844 -15.368  1.00  0.00     0.193 HD
HETATM    7  C8  UNL     1      -8.777  -2.753 -17.693  1.00  0.00     0.093 C
HETATM    8  C9  UNL     1      -9.103  -3.970 -18.539  1.00  0.00     0.071 C
HETATM    9  N3  UNL     1     -10.054  -3.479 -19.514  1.00  0.00    -0.357 N
ATOM     10  H3  UNL     1     -10.580  -2.648 -19.245  1.00  0.00     0.162 HD
HETATM   11  C16 UNL     1     -10.343  -4.004 -20.785  1.00  0.00     0.134 C
HETATM   12  N4  UNL     1     -11.292  -3.640 -21.548  1.00  0.00    -0.380 N
ATOM     13  H41 UNL     1     -11.501  -4.021 -22.470  1.00  0.00     0.158 HD
ATOM     14  H42 UNL     1     -11.924  -2.901 -21.238  1.00  0.00     0.158 HD
HETATM   15  S1  UNL     1      -9.233  -5.302 -21.330  1.00  0.00    -0.094 SA
HETATM   16  C17 UNL     1      -7.692  -4.658 -20.554  1.00  0.00     0.092 C
HETATM   17  C18 UNL     1      -7.943  -4.698 -19.052  1.00  0.00     0.060 C
HETATM   18  C19 UNL     1      -6.601  -4.523 -18.440  1.00  0.00     0.167 C
HETATM   19  O5  UNL     1      -6.155  -5.613 -17.676  1.00  0.00    -0.352 OA
ENDROOT
BRANCH   8  20
HETATM   20  C10 UNL     1      -9.946  -4.832 -17.611  1.00  0.00    -0.029 A
HETATM   21  C11 UNL     1      -9.816  -6.205 -17.542  1.00  0.00     0.012 A
HETATM   22  C12 UNL     1     -10.564  -7.007 -16.707  1.00  0.00     0.037 A
HETATM   23  C13 UNL     1     -11.496  -6.421 -15.889  1.00  0.00     0.102 A
HETATM   24  C14 UNL     1     -11.674  -5.059 -15.910  1.00  0.00     0.037 A
HETATM   25  C15 UNL     1     -10.893  -4.286 -16.774  1.00  0.00     0.012 A
BRANCH  23  26
HETATM   26  N2  UNL     1     -12.259  -7.251 -15.028  1.00  0.00    -0.116 N
HETATM   27  O3  UNL     1     -12.818  -8.288 -15.426  1.00  0.00    -0.532 OA
HETATM   28  O4  UNL     1     -12.395  -6.909 -13.708  1.00  0.00    -0.532 OA
ENDBRANCH  23  26
ENDBRANCH   8  20
BRANCH   5  29
HETATM   29  O2  UNL     1      -6.313  -2.258 -15.079  1.00  0.00    -0.290 OA
ATOM     30  H2  UNL     1      -6.300  -2.501 -14.160  1.00  0.00     0.244 HD
ENDBRANCH   5  29
BRANCH   1  31
HETATM   31  C2  UNL     1      -4.331  -5.934 -16.106  1.00  0.00     0.028 C
HETATM   32  C1  UNL     1      -3.144  -5.296 -15.449  1.00  0.00     0.022 C
HETATM   33  C3  UNL     1      -3.923  -7.207 -16.828  1.00  0.00     0.022 C
BRANCH  31  34
HETATM   34  C4  UNL     1      -5.315  -6.334 -15.019  1.00  0.00     0.235 C
HETATM   35  F1  UNL     1      -4.704  -7.348 -14.291  1.00  0.00    -0.255 F
ENDBRANCH  31  34
ENDBRANCH   1  31
TORSDOF 5
ENDMDL