MODEL 5
REMARK VINA RESULT: -6.549976891      5.060      8.151
REMARK  7 active torsions:
REMARK  status: ('A' for Active; 'I' for Inactive)
REMARK    1  A    between atoms: C3_4  and  C4_5
REMARK    2  A    between atoms: C10_11  and  C11_12
REMARK    3  A    between atoms: N2_20  and  C18_21
REMARK    4  A    between atoms: C19_23  and  C20_24
REMARK    5  A    between atoms: C20_24  and  O2_25
REMARK    6  A    between atoms: C21_27  and  O3_28
REMARK    7  A    between atoms: C22_30  and  O4_31
ROOT
HETATM    1  N1  UNL     1      -5.939  -2.224 -17.139  1.00  0.00    -0.191 NA
HETATM    2  C1  UNL     1      -6.730  -2.978 -17.573  1.00  0.00     0.103 C
HETATM    3  C2  UNL     1      -7.695  -3.893 -18.108  1.00  0.00     0.094 A
HETATM    4  C3  UNL     1      -8.611  -4.477 -17.256  1.00  0.00     0.010 A
HETATM    5  C10 UNL     1      -9.543  -5.351 -17.733  1.00  0.00     0.003 A
HETATM    6  C17 UNL     1      -9.554  -5.646 -19.101  1.00  0.00     0.108 A
HETATM    7  N2  UNL     1      -8.673  -5.087 -19.936  1.00  0.00    -0.316 N
HETATM    8  C23 UNL     1      -7.754  -4.220 -19.448  1.00  0.00     0.126 A
HETATM    9  S1  UNL     1      -6.673  -3.528 -20.437  1.00  0.00    -0.059 SA
ENDROOT
BRANCH   4  10
HETATM   10  C4  UNL     1      -8.553  -4.130 -15.850  1.00  0.00    -0.023 A
HETATM   11  C5  UNL     1      -9.279  -3.119 -15.256  1.00  0.00     0.012 A
HETATM   12  C6  UNL     1      -9.173  -2.840 -13.902  1.00  0.00     0.001 A
HETATM   13  C7  UNL     1      -8.332  -3.565 -13.086  1.00  0.00     0.000 A
HETATM   14  C8  UNL     1      -7.597  -4.582 -13.666  1.00  0.00     0.001 A
HETATM   15  C9  UNL     1      -7.705  -4.853 -15.003  1.00  0.00     0.012 A
ENDBRANCH   4  10
BRANCH   5  16
HETATM   16  C11 UNL     1     -10.500  -5.966 -16.825  1.00  0.00    -0.024 A
HETATM   17  C12 UNL     1     -11.441  -5.134 -16.233  1.00  0.00     0.015 A
HETATM   18  C13 UNL     1     -12.380  -5.665 -15.366  1.00  0.00     0.043 A
HETATM   19  C14 UNL     1     -12.371  -7.015 -15.100  1.00  0.00     0.116 A
HETATM   20  F1  UNL     1     -13.289  -7.519 -14.254  1.00  0.00    -0.206 F
HETATM   21  C15 UNL     1     -11.434  -7.822 -15.694  1.00  0.00     0.043 A
HETATM   22  C16 UNL     1     -10.483  -7.321 -16.564  1.00  0.00     0.015 A
ENDBRANCH   5  16
BRANCH   7  23
HETATM   23  C18 UNL     1      -8.649  -5.361 -21.347  1.00  0.00     0.260 C
HETATM   24  O1  UNL     1      -8.110  -6.613 -21.637  1.00  0.00    -0.353 OA
HETATM   25  C19 UNL     1      -8.346  -6.724 -23.005  1.00  0.00     0.179 C
HETATM   26  C21 UNL     1      -9.693  -6.151 -23.292  1.00  0.00     0.182 C
HETATM   27  C22 UNL     1     -10.031  -5.470 -21.959  1.00  0.00     0.198 C
BRANCH  25  28
HETATM   28  C20 UNL     1      -8.201  -8.167 -23.467  1.00  0.00     0.198 C
BRANCH  28  29
HETATM   29  O2  UNL     1      -8.730  -9.047 -22.555  1.00  0.00    -0.398 OA
ATOM     30  H2  UNL     1      -9.452  -9.542 -22.924  1.00  0.00     0.209 HD
ENDBRANCH  28  29
ENDBRANCH  25  28
BRANCH  26  31
HETATM   31  O3  UNL     1     -10.649  -7.090 -23.641  1.00  0.00    -0.390 OA
ATOM     32  H3  UNL     1     -11.254  -6.799 -24.312  1.00  0.00     0.210 HD
ENDBRANCH  26  31
BRANCH  27  33
HETATM   33  O4  UNL     1     -10.609  -4.228 -22.173  1.00  0.00    -0.388 OA
ATOM     34  H4  UNL     1     -11.507  -4.191 -21.864  1.00  0.00     0.210 HD
ENDBRANCH  27  33
ENDBRANCH   7  23
TORSDOF 7
ENDMDL