MODEL 4
REMARK VINA RESULT: -7.127336942      1.954      7.026
REMARK  9 active torsions:
REMARK  status: ('A' for Active; 'I' for Inactive)
REMARK    1  A    between atoms: O1_2  and  C2_3
REMARK    2  A    between atoms: C2_3  and  C3_5
REMARK    3  A    between atoms: N2_8  and  C4_9
REMARK    4  A    between atoms: C4_9  and  O3_10
REMARK    5  A    between atoms: C4_9  and  N3_12
REMARK    6  A    between atoms: N3_12  and  C5_14
REMARK    7  A    between atoms: C10_20  and  C11_21
REMARK    8  A    between atoms: C16_29  and  N5_30
REMARK       I    between atoms: N5_30  and  C17_32
REMARK    9  A    between atoms: C17_32  and  C18_34
ROOT
HETATM    1  C3  UNL     1      -6.748  -1.673 -14.352  1.00  0.00     0.153 A
HETATM    2  N1  UNL     1      -8.004  -2.032 -14.348  1.00  0.00    -0.283 N
ATOM      3  H1  UNL     1      -8.743  -1.541 -13.845  1.00  0.00     0.188 HD
HETATM    4  N2  UNL     1      -8.200  -3.177 -15.123  1.00  0.00    -0.220 N
HETATM    5  C10 UNL     1      -7.021  -3.531 -15.640  1.00  0.00     0.071 A
HETATM    6  C16 UNL     1      -6.102  -2.590 -15.144  1.00  0.00     0.095 A
ENDROOT
BRANCH   4   7
HETATM    7  C4  UNL     1      -9.523  -3.642 -15.099  1.00  0.00     0.239 C
BRANCH   7   8
HETATM    8  O3  UNL     1     -10.362  -2.879 -15.801  1.00  0.00    -0.331 OA
ATOM      9  H3  UNL     1     -10.778  -3.341 -16.521  1.00  0.00     0.221 HD
ENDBRANCH   7   8
BRANCH   7  10
HETATM   10  N3  UNL     1     -10.169  -4.723 -14.480  1.00  0.00    -0.350 N
ATOM     11  H3  UNL     1      -9.720  -5.187 -13.691  1.00  0.00     0.163 HD
BRANCH  10  12
HETATM   12  C5  UNL     1     -11.482  -5.201 -14.947  1.00  0.00     0.089 C
HETATM   13  C6  UNL     1     -11.400  -6.183 -16.058  1.00  0.00     0.051 C
HETATM   14  C7  UNL     1     -11.640  -7.594 -15.506  1.00  0.00     0.169 C
HETATM   15  O4  UNL     1     -12.942  -7.739 -15.060  1.00  0.00    -0.391 OA
HETATM   16  C8  UNL     1     -13.405  -6.608 -14.431  1.00  0.00     0.169 C
HETATM   17  C9  UNL     1     -12.266  -5.808 -13.807  1.00  0.00     0.051 C
ENDBRANCH  10  12
ENDBRANCH   7  10
ENDBRANCH   4   7
BRANCH   5  18
HETATM   18  C11 UNL     1      -6.680  -4.586 -16.580  1.00  0.00     0.043 C
HETATM   19  C12 UNL     1      -7.517  -5.825 -16.427  1.00  0.00     0.038 C
HETATM   20  C13 UNL     1      -8.055  -6.359 -17.774  1.00  0.00     0.233 C
HETATM   21  N4  UNL     1      -8.785  -5.389 -18.514  1.00  0.00    -0.075 N
HETATM   22  C14 UNL     1      -8.206  -4.053 -18.408  1.00  0.00     0.233 C
ATOM     23  H42 UNL     1      -8.885  -5.670 -19.490  1.00  0.00     0.277 HD
ATOM     24  H41 UNL     1      -9.769  -5.384 -18.244  1.00  0.00     0.277 HD
HETATM   25  C15 UNL     1      -6.770  -4.242 -18.043  1.00  0.00     0.038 C
ENDBRANCH   5  18
BRANCH   1  26
HETATM   26  C2  UNL     1      -6.140  -0.523 -13.662  1.00  0.00     0.313 C
HETATM   27  O2  UNL     1      -6.819   0.478 -13.380  1.00  0.00    -0.257 OA
BRANCH  26  28
HETATM   28  O1  UNL     1      -4.802  -0.514 -13.303  1.00  0.00    -0.321 OA
HETATM   29  C1  UNL     1      -4.185   0.590 -12.657  1.00  0.00     0.213 C
ENDBRANCH  26  28
ENDBRANCH   1  26
BRANCH   6  30
HETATM   30  N5  UNL     1      -4.708  -2.561 -15.330  1.00  0.00    -0.323 N
HETATM   31  C17 UNL     1      -4.139  -1.884 -16.470  1.00  0.00     0.230 C
HETATM   32  O5  UNL     1      -4.999  -1.335 -17.247  1.00  0.00    -0.272 OA
ATOM     33  H5  UNL     1      -4.097  -3.023 -14.656  1.00  0.00     0.169 HD
BRANCH  31  34
HETATM   34  C18 UNL     1      -2.715  -1.793 -16.775  1.00  0.00     0.030 C
HETATM   35  C19 UNL     1      -1.792  -2.380 -15.741  1.00  0.00     0.025 C
HETATM   36  C20 UNL     1      -2.362  -0.287 -16.813  1.00  0.00     0.025 C
HETATM   37  C21 UNL     1      -2.400  -2.283 -18.172  1.00  0.00     0.025 C
ENDBRANCH  31  34
ENDBRANCH   6  30
TORSDOF 9
ENDMDL