MODEL 1
REMARK VINA RESULT: -7.207077354      0.000      0.000
REMARK  8 active torsions:
REMARK  status: ('A' for Active; 'I' for Inactive)
REMARK    1  A    between atoms: O1_2  and  C2_3
REMARK    2  A    between atoms: C2_3  and  C3_5
REMARK    3  A    between atoms: C5_8  and  O4_10
REMARK    4  A    between atoms: C7_12  and  N1_13
REMARK    5  A    between atoms: N1_13  and  C8_15
REMARK    6  A    between atoms: C8_15  and  O5_16
REMARK    7  A    between atoms: C8_15  and  C9_18
REMARK    8  A    between atoms: C19_30  and  O6_31
ROOT
HETATM    1  N1  UNL     1     -10.579  -3.305 -15.216  1.00  0.00    -0.360 N
ATOM      2  H1  UNL     1     -11.323  -2.619 -15.086  1.00  0.00     0.162 HD
ENDROOT
BRANCH   1   3
HETATM    3  C7  UNL     1     -10.730  -4.608 -14.540  1.00  0.00     0.151 C
HETATM    4  C5  UNL     1     -11.806  -5.360 -15.286  1.00  0.00     0.098 C
HETATM    5  C4  UNL     1     -13.110  -4.677 -14.836  1.00  0.00     0.208 C
HETATM    6  C6  UNL     1     -11.850  -6.792 -14.756  1.00  0.00     0.050 C
HETATM    7  O3  UNL     1     -13.328  -5.169 -13.581  1.00  0.00    -0.370 OA
HETATM    8  C3  UNL     1     -12.426  -4.675 -12.633  1.00  0.00     0.251 C
HETATM    9  C19 UNL     1     -11.040  -4.417 -13.113  1.00  0.00     0.182 C
BRANCH   4  10
HETATM   10  O4  UNL     1     -11.661  -5.326 -16.637  1.00  0.00    -0.386 OA
ATOM     11  H4  UNL     1     -11.246  -6.115 -16.966  1.00  0.00     0.210 HD
ENDBRANCH   4  10
BRANCH   8  12
HETATM   12  C2  UNL     1     -13.057  -3.503 -11.967  1.00  0.00     0.290 C
HETATM   13  O2  UNL     1     -13.539  -2.542 -12.670  1.00  0.00    -0.262 OA
BRANCH  12  14
HETATM   14  O1  UNL     1     -13.186  -3.341 -10.597  1.00  0.00    -0.324 OA
HETATM   15  C1  UNL     1     -14.493  -3.161 -10.012  1.00  0.00     0.213 C
ENDBRANCH  12  14
ENDBRANCH   8  12
BRANCH   9  16
HETATM   16  O6  UNL     1     -10.732  -3.087 -12.772  1.00  0.00    -0.390 OA
ATOM     17  H6  UNL     1     -10.621  -2.613 -13.588  1.00  0.00     0.210 HD
ENDBRANCH   9  16
ENDBRANCH   1   3
BRANCH   1  18
HETATM   18  C8  UNL     1      -9.512  -2.943 -16.011  1.00  0.00     0.154 C
BRANCH  18  19
HETATM   19  O5  UNL     1      -9.665  -1.877 -16.750  1.00  0.00    -0.345 OA
ATOM     20  H5  UNL     1      -8.883  -1.369 -16.934  1.00  0.00     0.219 HD
ENDBRANCH  18  19
BRANCH  18  21
HETATM   21  C9  UNL     1      -8.192  -3.549 -16.182  1.00  0.00     0.063 A
HETATM   22  S1  UNL     1      -7.871  -5.171 -16.772  1.00  0.00    -0.084 SA
HETATM   23  C10 UNL     1      -6.189  -5.263 -16.504  1.00  0.00     0.030 A
HETATM   24  C11 UNL     1      -5.380  -6.445 -16.689  1.00  0.00    -0.061 C
HETATM   25  C16 UNL     1      -5.933  -4.039 -15.967  1.00  0.00     0.058 A
HETATM   26  C12 UNL     1      -4.734  -6.644 -18.034  1.00  0.00     0.036 C
HETATM   27  C15 UNL     1      -4.471  -6.960 -15.671  1.00  0.00     0.036 C
HETATM   28  C13 UNL     1      -3.956  -7.907 -17.863  1.00  0.00     0.005 C
HETATM   29  C14 UNL     1      -3.467  -7.851 -16.433  1.00  0.00     0.005 C
HETATM   30 CL1  UNL     1      -4.225  -3.677 -15.526  1.00  0.00    -0.082 Cl
HETATM   31  C17 UNL     1      -6.933  -3.169 -15.806  1.00  0.00    -0.018 A
HETATM   32  C18 UNL     1      -6.719  -1.758 -15.271  1.00  0.00     0.052 C
ENDBRANCH  18  21
ENDBRANCH   1  18
TORSDOF 8
ENDMDL