MODEL 1
REMARK VINA RESULT: -7.475767451      0.000      0.000
REMARK  7 active torsions:
REMARK  status: ('A' for Active; 'I' for Inactive)
REMARK    1  A    between atoms: N1_2  and  C2_4
REMARK    2  A    between atoms: N3_7  and  C3_8
REMARK    3  A    between atoms: C4_10  and  N4_11
REMARK    4  A    between atoms: C6_13  and  C7_14
REMARK    5  A    between atoms: C13_20  and  C14_21
REMARK    6  A    between atoms: C18_28  and  O2_29
REMARK    7  A    between atoms: C19_31  and  O3_32
ROOT
HETATM    1  C3  UNL     1     -11.246  -4.370 -13.652  1.00  0.00     0.277 A
HETATM    2  O1  UNL     1     -10.964  -3.647 -14.769  1.00  0.00    -0.334 OA
HETATM    3  C4  UNL     1     -11.565  -4.206 -15.862  1.00  0.00     0.277 A
HETATM    4  C18 UNL     1     -12.410  -5.353 -15.447  1.00  0.00     0.201 A
HETATM    5  C19 UNL     1     -12.242  -5.429 -13.969  1.00  0.00     0.201 A
ENDROOT
BRANCH   3   6
HETATM    6  N4  UNL     1     -10.605  -4.569 -16.910  1.00  0.00    -0.270 N
HETATM    7  C5  UNL     1     -10.637  -4.180 -18.189  1.00  0.00     0.128 A
HETATM    8  C6  UNL     1      -9.548  -4.754 -18.819  1.00  0.00     0.021 A
HETATM    9  C13 UNL     1      -8.858  -5.502 -17.882  1.00  0.00     0.077 A
HETATM   10  N5  UNL     1      -9.543  -5.356 -16.736  1.00  0.00    -0.294 N
ATOM     11  H5  UNL     1      -9.286  -5.789 -15.850  1.00  0.00     0.187 HD
BRANCH   8  12
HETATM   12  C7  UNL     1      -9.116  -4.657 -20.202  1.00  0.00    -0.022 A
HETATM   13  C8  UNL     1      -9.746  -5.439 -21.144  1.00  0.00     0.012 A
HETATM   14  C9  UNL     1      -9.373  -5.384 -22.476  1.00  0.00     0.001 A
HETATM   15  C10 UNL     1      -8.365  -4.545 -22.889  1.00  0.00     0.000 A
HETATM   16  C11 UNL     1      -7.733  -3.759 -21.936  1.00  0.00     0.001 A
HETATM   17  C12 UNL     1      -8.108  -3.817 -20.612  1.00  0.00     0.012 A
ENDBRANCH   8  12
BRANCH   9  18
HETATM   18  C14 UNL     1      -7.628  -6.296 -18.096  1.00  0.00     0.033 A
HETATM   19  C15 UNL     1      -7.531  -7.509 -18.722  1.00  0.00     0.021 A
HETATM   20  C16 UNL     1      -6.311  -8.062 -18.809  1.00  0.00     0.008 A
HETATM   21  C17 UNL     1      -5.266  -7.365 -18.266  1.00  0.00     0.050 A
HETATM   22  S1  UNL     1      -6.017  -5.966 -17.650  1.00  0.00    -0.100 SA
ENDBRANCH   9  18
ENDBRANCH   3   6
BRANCH   4  23
HETATM   23  O2  UNL     1     -12.029  -6.565 -16.003  1.00  0.00    -0.388 OA
ATOM     24  H2  UNL     1     -11.590  -7.148 -15.396  1.00  0.00     0.210 HD
ENDBRANCH   4  23
BRANCH   1  25
HETATM   25  N3  UNL     1     -11.774  -3.563 -12.549  1.00  0.00    -0.267 N
HETATM   26  N2  UNL     1     -13.040  -3.457 -12.209  1.00  0.00    -0.279 N
HETATM   27  C2  UNL     1     -13.189  -2.640 -11.156  1.00  0.00     0.156 A
ATOM     28  H2  UNL     1     -13.806  -3.934 -12.683  1.00  0.00     0.189 HD
HETATM   29  C21 UNL     1     -11.932  -2.202 -10.811  1.00  0.00     0.178 A
HETATM   30  C20 UNL     1     -11.071  -2.804 -11.710  1.00  0.00     0.159 A
HETATM   31  F1  UNL     1     -11.633  -1.356  -9.795  1.00  0.00    -0.201 F
BRANCH  27  32
HETATM   32  N1  UNL     1     -14.276  -2.306 -10.556  1.00  0.00    -0.377 N
HETATM   33  C1  UNL     1     -14.960  -3.188  -9.631  1.00  0.00     0.148 C
ATOM     34  H1  UNL     1     -14.673  -1.384 -10.739  1.00  0.00     0.160 HD
ENDBRANCH  27  32
ENDBRANCH   1  25
BRANCH   5  35
HETATM   35  O3  UNL     1     -11.852  -6.695 -13.531  1.00  0.00    -0.388 OA
ATOM     36  H3  UNL     1     -12.460  -7.381 -13.783  1.00  0.00     0.210 HD
ENDBRANCH   5  35
TORSDOF 7
ENDMDL