MODEL 2
REMARK VINA RESULT: -9.647874871      1.686      2.820
REMARK  7 active torsions:
REMARK  status: ('A' for Active; 'I' for Inactive)
REMARK    1  A    between atoms: C6_6  and  C7_7
REMARK    2  A    between atoms: C7_7  and  C8_8
REMARK    3  A    between atoms: C7_7  and  N1_14
REMARK    4  A    between atoms: C15_16  and  C16_17
REMARK    5  A    between atoms: C20_23  and  O2_24
REMARK    6  A    between atoms: C21_26  and  O3_27
REMARK    7  A    between atoms: C22_29  and  O4_30
ROOT
HETATM    1  C16 UNL     1      -6.489  -2.749 -16.515  1.00  0.00     0.207 C
HETATM    2  O1  UNL     1      -5.900  -2.237 -15.374  1.00  0.00    -0.349 OA
HETATM    3  C17 UNL     1      -4.530  -2.149 -15.452  1.00  0.00     0.174 C
HETATM    4  C18 UNL     1      -4.017  -1.695 -14.102  1.00  0.00     0.066 C
HETATM    5  C19 UNL     1      -3.969  -3.436 -15.849  1.00  0.00     0.100 C
HETATM    6  N2  UNL     1      -3.516  -4.451 -16.148  1.00  0.00    -0.194 NA
HETATM    7  C20 UNL     1      -4.217  -1.077 -16.481  1.00  0.00     0.198 C
HETATM    8  C21 UNL     1      -4.812  -1.392 -17.815  1.00  0.00     0.182 C
HETATM    9  C22 UNL     1      -6.169  -2.009 -17.762  1.00  0.00     0.184 C
ENDROOT
BRANCH   7  10
HETATM   10  O2  UNL     1      -4.652   0.149 -16.028  1.00  0.00    -0.389 OA
ATOM     11  H2  UNL     1      -3.970   0.800 -16.151  1.00  0.00     0.210 HD
ENDBRANCH   7  10
BRANCH   1  12
HETATM   12  C15 UNL     1      -7.976  -2.732 -16.286  1.00  0.00     0.076 A
HETATM   13  C14 UNL     1      -8.692  -3.511 -15.403  1.00  0.00     0.142 A
HETATM   14  N1  UNL     1      -9.974  -3.190 -15.506  1.00  0.00    -0.274 N
HETATM   15  N4  UNL     1     -10.071  -2.239 -16.420  1.00  0.00    -0.240 N
HETATM   16  N3  UNL     1      -8.885  -1.956 -16.896  1.00  0.00    -0.286 N
ATOM     17  H4  UNL     1     -10.940  -1.793 -16.712  1.00  0.00     0.208 HD
ATOM     18  H3  UNL     1      -8.684  -1.260 -17.613  1.00  0.00     0.188 HD
BRANCH  14  19
HETATM   19  C7  UNL     1     -11.149  -3.693 -14.816  1.00  0.00     0.175 C
BRANCH  19  20
HETATM   20  C6  UNL     1     -11.163  -3.368 -13.379  1.00  0.00    -0.029 A
HETATM   21  C5  UNL     1     -10.045  -3.014 -12.650  1.00  0.00     0.010 A
HETATM   22  C4  UNL     1     -10.104  -2.714 -11.294  1.00  0.00     0.001 A
HETATM   23  C3  UNL     1     -11.309  -2.765 -10.638  1.00  0.00     0.007 A
HETATM   24  C2  UNL     1     -12.439  -3.112 -11.332  1.00  0.00    -0.061 A
HETATM   25  C1  UNL     1     -13.744  -3.167 -10.617  1.00  0.00     0.048 C
HETATM   26  C23 UNL     1     -12.360  -3.406 -12.675  1.00  0.00     0.016 A
ENDBRANCH  19  20
BRANCH  19  27
HETATM   27  C8  UNL     1     -11.380  -5.139 -15.073  1.00  0.00    -0.029 A
HETATM   28  C9  UNL     1     -10.513  -5.887 -15.840  1.00  0.00     0.009 A
HETATM   29  C10 UNL     1     -10.724  -7.241 -16.084  1.00  0.00     0.001 A
HETATM   30  C11 UNL     1     -11.823  -7.892 -15.563  1.00  0.00     0.000 A
HETATM   31  C12 UNL     1     -12.690  -7.145 -14.796  1.00  0.00     0.001 A
HETATM   32  C13 UNL     1     -12.482  -5.803 -14.553  1.00  0.00     0.009 A
ENDBRANCH  19  27
ENDBRANCH  14  19
ENDBRANCH   1  12
BRANCH   8  33
HETATM   33  O3  UNL     1      -4.840  -0.210 -18.556  1.00  0.00    -0.390 OA
ATOM     34  H3  UNL     1      -5.627  -0.220 -19.087  1.00  0.00     0.210 HD
ENDBRANCH   8  33
BRANCH   9  35
HETATM   35  O4  UNL     1      -6.251  -2.934 -18.830  1.00  0.00    -0.390 OA
ATOM     36  H4  UNL     1      -5.700  -2.604 -19.530  1.00  0.00     0.210 HD
ENDBRANCH   9  35
TORSDOF 7
ENDMDL