MODEL 1
REMARK VINA RESULT: -8.066955449      0.000      0.000
REMARK  6 active torsions:
REMARK  status: ('A' for Active; 'I' for Inactive)
REMARK    1  A    between atoms: O1_2  and  C2_3
REMARK    2  A    between atoms: C2_3  and  C3_5
REMARK    3  A    between atoms: C7_17  and  N3_18
REMARK    4  A    between atoms: N3_18  and  C8_20
REMARK    5  A    between atoms: C10_22  and  O4_23
REMARK    6  A    between atoms: C13_26  and  O5_27
ROOT
HETATM    1  C3  UNL     1      -8.346  -5.127 -16.789  1.00  0.00     0.168 C
HETATM    2  C4  UNL     1      -8.585  -6.565 -17.113  1.00  0.00     0.126 C
HETATM    3  N1  UNL     1      -8.276  -7.070 -18.258  1.00  0.00    -0.383 N
ATOM      4  H11 UNL     1      -8.440  -8.052 -18.479  1.00  0.00     0.158 HD
ATOM      5  H12 UNL     1      -7.853  -6.539 -19.019  1.00  0.00     0.158 HD
HETATM    6  O3  UNL     1      -9.161  -7.288 -16.077  1.00  0.00    -0.328 OA
HETATM    7  C5  UNL     1     -10.126  -6.769 -15.235  1.00  0.00     0.200 C
HETATM    8  C6  UNL     1     -11.465  -7.368 -15.623  1.00  0.00     0.400 C
HETATM    9  F1  UNL     1     -11.356  -8.202 -16.725  1.00  0.00    -0.216 F
HETATM   10  N2  UNL     1     -12.379  -6.285 -15.818  1.00  0.00    -0.020 N
ATOM     11  H21 UNL     1     -13.328  -6.494 -15.509  1.00  0.00     0.283 HD
ATOM     12  H22 UNL     1     -12.603  -6.114 -16.798  1.00  0.00     0.283 HD
HETATM   13  C7  UNL     1     -11.796  -5.147 -15.154  1.00  0.00     0.295 C
HETATM   14  C16 UNL     1     -10.304  -5.291 -15.265  1.00  0.00     0.080 C
HETATM   15  C17 UNL     1      -9.679  -4.564 -16.382  1.00  0.00    -0.011 C
HETATM   16  C18 UNL     1     -10.574  -4.571 -17.603  1.00  0.00     0.011 C
HETATM   17  C19 UNL     1      -9.969  -3.814 -18.769  1.00  0.00     0.001 C
HETATM   18  C20 UNL     1      -9.566  -2.407 -18.382  1.00  0.00     0.000 C
HETATM   19  C21 UNL     1     -10.115  -2.163 -16.992  1.00  0.00     0.001 C
HETATM   20  C22 UNL     1      -9.450  -3.107 -16.009  1.00  0.00     0.011 C
ENDROOT
BRANCH  13  21
HETATM   21  N3  UNL     1     -12.175  -5.247 -13.741  1.00  0.00    -0.362 N
ATOM     22  H3  UNL     1     -12.544  -6.137 -13.407  1.00  0.00     0.161 HD
BRANCH  21  23
HETATM   23  C8  UNL     1     -12.063  -4.205 -12.831  1.00  0.00     0.034 A
HETATM   24  C9  UNL     1     -13.160  -3.757 -12.142  1.00  0.00     0.066 A
HETATM   25  C10 UNL     1     -13.118  -2.727 -11.219  1.00  0.00     0.073 A
HETATM   26  C12 UNL     1     -11.901  -2.124 -10.984  1.00  0.00     0.073 A
HETATM   27  C13 UNL     1     -10.779  -2.546 -11.656  1.00  0.00     0.073 A
HETATM   28  C15 UNL     1     -10.854  -3.592 -12.586  1.00  0.00     0.066 A
BRANCH  25  29
HETATM   29  O4  UNL     1     -14.281  -2.347 -10.574  1.00  0.00    -0.356 OA
HETATM   30  C11 UNL     1     -14.936  -3.156  -9.641  1.00  0.00     0.210 C
ENDBRANCH  25  29
BRANCH  27  31
HETATM   31  O5  UNL     1      -9.548  -1.965 -11.446  1.00  0.00    -0.356 OA
HETATM   32  C14 UNL     1      -8.528  -2.170 -12.380  1.00  0.00     0.210 C
ENDBRANCH  27  31
ENDBRANCH  21  23
ENDBRANCH  13  21
BRANCH   1  33
HETATM   33  C2  UNL     1      -7.338  -5.108 -15.705  1.00  0.00     0.271 C
HETATM   34  O2  UNL     1      -7.222  -4.267 -14.810  1.00  0.00    -0.264 OA
BRANCH  33  35
HETATM   35  O1  UNL     1      -6.404  -6.163 -15.687  1.00  0.00    -0.326 OA
HETATM   36  C1  UNL     1      -5.009  -5.883 -15.669  1.00  0.00     0.213 C
ENDBRANCH  33  35
ENDBRANCH   1  33
TORSDOF 6
ENDMDL