MODEL 4
REMARK VINA RESULT: -7.796456402      4.929      9.135
REMARK  6 active torsions:
REMARK  status: ('A' for Active; 'I' for Inactive)
REMARK       I    between atoms: N1_2  and  C2_4
REMARK    1  A    between atoms: C2_4  and  C3_6
REMARK    2  A    between atoms: C8_11  and  O2_12
REMARK    3  A    between atoms: O2_12  and  C9_13
REMARK    4  A    between atoms: C9_13  and  C11_15
REMARK    5  A    between atoms: C12_16  and  C13_17
REMARK    6  A    between atoms: C16_20  and  N2_21
ROOT
HETATM    1  C13 UNL     1     -10.586  -4.080 -18.154  1.00  0.00     0.060 A
HETATM    2  C14 UNL     1     -11.063  -4.288 -19.421  1.00  0.00     0.031 A
HETATM    3  C15 UNL     1     -10.306  -3.892 -20.450  1.00  0.00     0.039 A
HETATM    4  C16 UNL     1      -9.099  -3.303 -20.146  1.00  0.00     0.082 A
HETATM    5  S1  UNL     1      -9.086  -3.334 -18.446  1.00  0.00    -0.063 SA
ENDROOT
BRANCH   1   6
HETATM    6  C12 UNL     1     -11.232  -4.426 -16.890  1.00  0.00    -0.057 C
HETATM    7  C11 UNL     1     -11.784  -4.707 -15.858  1.00  0.00    -0.068 C
BRANCH   7   8
HETATM    8  C9  UNL     1     -12.444  -5.046 -14.570  1.00  0.00     0.204 C
HETATM    9  C10 UNL     1     -12.671  -6.567 -14.515  1.00  0.00     0.054 C
BRANCH   8  10
HETATM   10  O2  UNL     1     -11.554  -4.749 -13.554  1.00  0.00    -0.333 OA
BRANCH  10  11
HETATM   11  C8  UNL     1     -11.661  -3.814 -12.553  1.00  0.00     0.086 A
HETATM   12  C3  UNL     1     -10.583  -3.008 -12.259  1.00  0.00     0.065 A
HETATM   13  C4  UNL     1     -10.758  -2.075 -11.226  1.00  0.00     0.020 A
HETATM   14  C5  UNL     1     -11.920  -1.951 -10.534  1.00  0.00     0.001 A
HETATM   15  C6  UNL     1     -12.977  -2.769 -10.849  1.00  0.00     0.003 A
HETATM   16  C7  UNL     1     -12.847  -3.692 -11.851  1.00  0.00     0.038 A
BRANCH  12  17
HETATM   17  C2  UNL     1      -9.300  -3.066 -12.942  1.00  0.00     0.254 C
HETATM   18  N1  UNL     1      -8.830  -4.014 -13.835  1.00  0.00    -0.361 N
HETATM   19  C1  UNL     1      -7.490  -3.876 -14.410  1.00  0.00     0.149 C
ATOM     20  H1  UNL     1      -9.417  -4.808 -14.093  1.00  0.00     0.162 HD
HETATM   21  O1  UNL     1      -8.491  -2.095 -12.671  1.00  0.00    -0.268 OA
ENDBRANCH  12  17
ENDBRANCH  10  11
ENDBRANCH   8  10
ENDBRANCH   7   8
ENDBRANCH   1   6
BRANCH   4  22
HETATM   22  N2  UNL     1      -8.106  -2.794 -21.075  1.00  0.00    -0.288 N
HETATM   23  C17 UNL     1      -7.112  -3.690 -21.511  1.00  0.00     0.200 A
HETATM   24  N3  UNL     1      -7.184  -5.043 -20.986  1.00  0.00    -0.063 NA
HETATM   25  N4  UNL     1      -6.162  -3.381 -22.336  1.00  0.00    -0.304 N
HETATM   26  C18 UNL     1      -6.183  -2.034 -22.792  1.00  0.00     0.192 A
ATOM     27  H4  UNL     1      -5.454  -4.052 -22.635  1.00  0.00     0.171 HD
HETATM   28  N5  UNL     1      -5.179  -1.558 -23.716  1.00  0.00    -0.063 NA
HETATM   29  N6  UNL     1      -7.051  -1.185 -22.434  1.00  0.00    -0.338 N
HETATM   30  C19 UNL     1      -8.108  -1.461 -21.540  1.00  0.00     0.108 A
ATOM     31  H6  UNL     1      -6.983  -0.242 -22.816  1.00  0.00     0.164 HD
HETATM   32  C20 UNL     1      -9.457  -0.992 -22.059  1.00  0.00     0.063 C
HETATM   33  C21 UNL     1      -7.867  -0.534 -20.316  1.00  0.00     0.063 C
ENDBRANCH   4  22
TORSDOF 6
ENDMDL