MODEL 1
REMARK VINA RESULT: -7.682224039      0.000      0.000
REMARK  7 active torsions:
REMARK  status: ('A' for Active; 'I' for Inactive)
REMARK    1  A    between atoms: N1_5  and  O1_6
REMARK    2  A    between atoms: C5_8  and  C6_9
REMARK    3  A    between atoms: C9_13  and  N2_14
REMARK       I    between atoms: N2_14  and  C10_16
REMARK       I    between atoms: C10_16  and  N3_18
REMARK    4  A    between atoms: C13_21  and  C15_23
REMARK    5  A    between atoms: C15_23  and  O3_24
REMARK    6  A    between atoms: N4_26  and  O4_28
REMARK       I    between atoms: N5_30  and  C16_31
REMARK       I    between atoms: C16_31  and  N6_33
REMARK    7  A    between atoms: N6_33  and  O6_35
ROOT
HETATM    1  N2  UNL     1     -10.166  -5.268 -17.683  1.00  0.00    -0.299 N
ATOM      2  H2  UNL     1     -10.376  -4.454 -18.262  1.00  0.00     0.171 HD
HETATM    3  C10 UNL     1      -9.405  -6.228 -18.314  1.00  0.00     0.342 C
HETATM    4  O2  UNL     1      -9.046  -7.295 -17.712  1.00  0.00    -0.245 OA
HETATM    5  N3  UNL     1      -8.959  -6.127 -19.646  1.00  0.00    -0.235 N
HETATM    6  C11 UNL     1      -8.026  -7.070 -20.304  1.00  0.00     0.157 C
HETATM    7  C12 UNL     1      -7.166  -6.175 -21.128  1.00  0.00     0.063 C
HETATM    8  C13 UNL     1      -7.967  -4.902 -21.318  1.00  0.00     0.123 C
HETATM    9  C14 UNL     1      -7.269  -3.797 -20.594  1.00  0.00     0.050 C
HETATM   10  N5  UNL     1      -9.255  -5.219 -20.674  1.00  0.00    -0.217 N
HETATM   11  C16 UNL     1     -10.503  -4.741 -21.059  1.00  0.00     0.362 C
HETATM   12  O5  UNL     1     -11.578  -5.111 -20.561  1.00  0.00    -0.243 OA
HETATM   13  N6  UNL     1     -10.585  -3.761 -22.088  1.00  0.00    -0.217 N
ATOM     14  H6  UNL     1     -10.274  -3.968 -23.037  1.00  0.00     0.199 HD
ENDROOT
BRANCH   1  15
HETATM   15  C9  UNL     1     -10.710  -5.205 -16.372  1.00  0.00     0.117 A
HETATM   16  C8  UNL     1     -11.467  -6.008 -15.592  1.00  0.00     0.151 A
HETATM   17  C7  UNL     1     -11.790  -5.572 -14.351  1.00  0.00     0.066 A
HETATM   18  F1  UNL     1     -11.907  -7.253 -16.050  1.00  0.00    -0.203 F
HETATM   19  C6  UNL     1     -11.355  -4.376 -13.943  1.00  0.00     0.039 A
HETATM   20  S1  UNL     1     -10.470  -3.837 -15.320  1.00  0.00    -0.067 SA
BRANCH  19  21
HETATM   21  C5  UNL     1     -11.499  -3.592 -12.700  1.00  0.00     0.079 A
HETATM   22  N1  UNL     1     -10.500  -2.947 -12.157  1.00  0.00    -0.235 N
HETATM   23  C4  UNL     1     -10.665  -2.224 -10.996  1.00  0.00     0.124 A
HETATM   24  C3  UNL     1     -11.905  -2.179 -10.392  1.00  0.00     0.026 A
HETATM   25  C2  UNL     1     -12.965  -2.858 -10.959  1.00  0.00    -0.058 A
HETATM   26  C1  UNL     1     -14.290  -2.793 -10.289  1.00  0.00     0.048 C
HETATM   27  C17 UNL     1     -12.784  -3.575 -12.118  1.00  0.00     0.040 A
BRANCH  22  28
HETATM   28  O1  UNL     1      -9.250  -2.951 -12.703  1.00  0.00    -0.283 OA
ATOM     29  H1  UNL     1      -8.872  -3.800 -12.897  1.00  0.00     0.245 HD
ENDBRANCH  22  28
ENDBRANCH  19  21
ENDBRANCH   1  15
BRANCH   8  30
HETATM   30  C15 UNL     1      -8.121  -4.695 -22.752  1.00  0.00     0.166 C
HETATM   31  N4  UNL     1      -8.451  -5.563 -23.583  1.00  0.00    -0.249 N
ATOM     32  H4  UNL     1      -8.511  -5.245 -24.550  1.00  0.00     0.196 HD
BRANCH  30  33
HETATM   33  O3  UNL     1      -7.875  -3.396 -23.248  1.00  0.00    -0.346 OA
ATOM     34  H3  UNL     1      -6.997  -3.207 -23.557  1.00  0.00     0.219 HD
ENDBRANCH  30  33
BRANCH  31  35
HETATM   35  O4  UNL     1      -8.736  -6.846 -23.385  1.00  0.00    -0.288 OA
ATOM     36  H4  UNL     1      -9.070  -7.487 -24.002  1.00  0.00     0.244 HD
ENDBRANCH  31  35
ENDBRANCH   8  30
BRANCH  13  37
HETATM   37  O6  UNL     1     -11.053  -2.636 -21.793  1.00  0.00    -0.286 OA
ATOM     38  H6  UNL     1     -10.443  -1.916 -21.676  1.00  0.00     0.244 HD
ENDBRANCH  13  37
TORSDOF 7
ENDMDL