MODEL 1
REMARK VINA RESULT: -7.831717290      0.000      0.000
REMARK  8 active torsions:
REMARK  status: ('A' for Active; 'I' for Inactive)
REMARK       I    between atoms: N1_2  and  C2_4
REMARK    1  A    between atoms: C2_4  and  C3_6
REMARK    2  A    between atoms: C4_7  and  N2_8
REMARK    3  A    between atoms: N2_8  and  N3_10
REMARK    4  A    between atoms: N3_10  and  C5_12
REMARK    5  A    between atoms: C8_15  and  S1_16
REMARK    6  A    between atoms: S1_16  and  N4_19
REMARK    7  A    between atoms: C12_24  and  O4_25
REMARK    8  A    between atoms: C14_29  and  O6_30
ROOT
HETATM    1  N3  UNL     1      -8.750  -4.761 -14.508  1.00  0.00    -0.298 N
ATOM      2  H3  UNL     1      -8.755  -5.490 -13.794  1.00  0.00     0.187 HD
ENDROOT
BRANCH   1   3
HETATM    3  N2  UNL     1      -9.789  -4.512 -15.223  1.00  0.00    -0.297 N
ATOM      4  H2  UNL     1      -9.830  -3.698 -15.837  1.00  0.00     0.187 HD
BRANCH   3   5
HETATM    5  C4  UNL     1     -10.879  -5.416 -15.122  1.00  0.00     0.091 A
HETATM    6  C3  UNL     1     -11.939  -5.307 -14.208  1.00  0.00     0.119 A
HETATM    7  C14 UNL     1     -12.773  -6.373 -14.440  1.00  0.00     0.201 A
HETATM    8  O5  UNL     1     -12.264  -7.085 -15.425  1.00  0.00    -0.297 OA
HETATM    9  C13 UNL     1     -11.148  -6.548 -15.848  1.00  0.00     0.177 A
BRANCH   6  10
HETATM   10  C2  UNL     1     -12.055  -4.243 -13.239  1.00  0.00     0.258 C
HETATM   11  N1  UNL     1     -13.275  -3.826 -12.686  1.00  0.00    -0.361 N
HETATM   12  C1  UNL     1     -13.340  -2.756 -11.720  1.00  0.00     0.149 C
ATOM     13  H1  UNL     1     -14.137  -4.290 -12.974  1.00  0.00     0.162 HD
HETATM   14  O1  UNL     1     -11.016  -3.635 -12.849  1.00  0.00    -0.267 OA
ENDBRANCH   6  10
BRANCH   7  15
HETATM   15  O6  UNL     1     -13.963  -6.694 -13.781  1.00  0.00    -0.340 OA
ATOM     16  H6  UNL     1     -14.726  -7.135 -14.135  1.00  0.00     0.220 HD
ENDBRANCH   7  15
ENDBRANCH   3   5
ENDBRANCH   1   3
BRANCH   1  17
HETATM   17  C5  UNL     1      -7.580  -3.965 -14.762  1.00  0.00     0.082 A
HETATM   18  C6  UNL     1      -6.564  -4.425 -15.567  1.00  0.00     0.035 A
HETATM   19  C7  UNL     1      -5.429  -3.639 -15.806  1.00  0.00     0.028 A
HETATM   20  C8  UNL     1      -5.298  -2.389 -15.244  1.00  0.00     0.095 A
HETATM   21  C11 UNL     1      -6.332  -1.955 -14.442  1.00  0.00     0.069 A
HETATM   22 BR1  UNL     1      -6.177  -0.221 -13.648  1.00  0.00    -0.046 Br
HETATM   23  C12 UNL     1      -7.454  -2.712 -14.195  1.00  0.00     0.112 A
BRANCH  20  24
HETATM   24  S1  UNL     1      -3.903  -1.390 -15.525  1.00  0.00     0.244 S
HETATM   25  O2  UNL     1      -4.263  -0.376 -16.597  1.00  0.00    -0.206 OA
HETATM   26  O3  UNL     1      -3.551  -0.594 -14.302  1.00  0.00    -0.206 OA
BRANCH  24  27
HETATM   27  N4  UNL     1      -2.527  -2.223 -16.051  1.00  0.00    -0.215 NA
HETATM   28  C9  UNL     1      -1.550  -1.454 -16.747  1.00  0.00     0.129 C
HETATM   29  C10 UNL     1      -1.965  -3.111 -15.059  1.00  0.00     0.129 C
ENDBRANCH  24  27
ENDBRANCH  20  24
BRANCH  23  30
HETATM   30  O4  UNL     1      -8.495  -2.278 -13.390  1.00  0.00    -0.357 OA
ATOM     31  H4  UNL     1      -9.298  -2.019 -13.826  1.00  0.00     0.217 HD
ENDBRANCH  23  30
ENDBRANCH   1  17
TORSDOF 8
ENDMDL