MODEL 4
REMARK VINA RESULT: -6.806451715      3.722      6.890
REMARK  6 active torsions:
REMARK  status: ('A' for Active; 'I' for Inactive)
REMARK    1  A    between atoms: O1_2  and  C2_3
REMARK    2  A    between atoms: C5_6  and  C6_7
REMARK    3  A    between atoms: C6_7  and  N1_8
REMARK       I    between atoms: N1_8  and  C7_10
REMARK       I    between atoms: C7_10  and  N3_14
REMARK    4  A    between atoms: N3_14  and  C8_16
REMARK    5  A    between atoms: C8_16  and  C10_18
REMARK    6  A    between atoms: C10_18  and  N4_19
ROOT
HETATM    1  N1  UNL     1      40.307  -7.923   1.818  1.00  0.00    -0.223 N
ATOM      2  H1  UNL     1      39.826  -7.335   2.499  1.00  0.00     0.178 HD
HETATM    3  C7  UNL     1      41.702  -8.149   1.928  1.00  0.00     0.668 C
HETATM    4  N2  UNL     1      42.208  -9.357   1.845  1.00  0.00    -0.235 N
ATOM      5  H21 UNL     1      43.212  -9.519   1.925  1.00  0.00     0.174 HD
ATOM      6  H22 UNL     1      41.530 -10.105   1.698  1.00  0.00     0.174 HD
HETATM    7  N3  UNL     1      42.645  -7.110   2.134  1.00  0.00    -0.221 N
ATOM      8  H3  UNL     1      43.118  -7.015   3.032  1.00  0.00     0.178 HD
ENDROOT
BRANCH   1   9
HETATM    9  C6  UNL     1      39.585  -8.520   0.752  1.00  0.00     0.176 C
BRANCH   9  10
HETATM   10  C5  UNL     1      38.919  -9.787   1.035  1.00  0.00    -0.040 A
HETATM   11  C4  UNL     1      39.700 -10.940   0.870  1.00  0.00     0.011 A
HETATM   12  C3  UNL     1      39.213 -12.205   1.099  1.00  0.00     0.037 A
HETATM   13  C2  UNL     1      37.903 -12.378   1.510  1.00  0.00     0.068 A
HETATM   14  C12 UNL     1      37.111 -11.265   1.681  1.00  0.00     0.037 A
HETATM   15  C11 UNL     1      37.638  -9.990   1.439  1.00  0.00     0.011 A
BRANCH  13  16
HETATM   16  O1  UNL     1      37.453 -13.668   1.729  1.00  0.00    -0.356 OA
HETATM   17  C1  UNL     1      38.051 -14.813   1.190  1.00  0.00     0.210 C
ENDBRANCH  13  16
ENDBRANCH   9  10
ENDBRANCH   1   9
BRANCH   7  18
HETATM   18  C8  UNL     1      42.930  -6.185   1.057  1.00  0.00     0.120 C
HETATM   19  C9  UNL     1      41.815  -5.222   0.790  1.00  0.00     0.034 C
BRANCH  18  20
HETATM   20  C10 UNL     1      43.274  -6.901  -0.225  1.00  0.00     0.254 C
BRANCH  20  21
HETATM   21  N4  UNL     1      42.234  -6.797  -1.200  1.00  0.00    -0.077 N
ATOM     22  H43 UNL     1      41.360  -7.189  -0.850  1.00  0.00     0.274 HD
ATOM     23  H42 UNL     1      41.939  -5.828  -1.323  1.00  0.00     0.274 HD
ATOM     24  H41 UNL     1      42.496  -7.218  -2.092  1.00  0.00     0.274 HD
ENDBRANCH  20  21
ENDBRANCH  18  20
ENDBRANCH   7  18
TORSDOF 6
ENDMDL