MODEL 1
REMARK VINA RESULT: -6.545323162      0.000      0.000
REMARK  8 active torsions:
REMARK  status: ('A' for Active; 'I' for Inactive)
REMARK    1  A    between atoms: C3_3  and  C5_5
REMARK    2  A    between atoms: C5_5  and  N1_6
REMARK    3  A    between atoms: C5_5  and  C6_10
REMARK    4  A    between atoms: C6_10  and  C7_11
REMARK    5  A    between atoms: C7_11  and  N2_12
REMARK    6  A    between atoms: C7_11  and  C10_17
REMARK    7  A    between atoms: N2_12  and  C8_14
REMARK    8  A    between atoms: C10_17  and  O2_19
ROOT
HETATM    1  C6  UNL     1      39.082  -9.175   0.388  1.00  0.00     0.072 C
ENDROOT
BRANCH   1   2
HETATM    2  C5  UNL     1      38.099  -9.669   1.402  1.00  0.00     0.214 C
BRANCH   2   3
HETATM    3  C3  UNL     1      38.075 -11.163   1.402  1.00  0.00    -0.058 C
HETATM    4  C2  UNL     1      39.082 -11.904   1.018  1.00  0.00    -0.026 C
HETATM    5  C1  UNL     1      38.988 -13.385   1.044  1.00  0.00     0.036 C
HETATM    6  C4  UNL     1      36.817 -11.806   1.871  1.00  0.00     0.045 C
ENDBRANCH   2   3
BRANCH   2   7
HETATM    7  N1  UNL     1      36.751  -9.211   1.204  1.00  0.00    -0.071 N
ATOM      8  H13 UNL     1      36.177  -9.879   0.688  1.00  0.00     0.275 HD
ATOM      9  H12 UNL     1      36.205  -9.201   2.065  1.00  0.00     0.275 HD
ATOM     10  H11 UNL     1      36.798  -8.296   0.753  1.00  0.00     0.275 HD
ENDBRANCH   2   7
ENDBRANCH   1   2
BRANCH   1  11
HETATM   11  C7  UNL     1      39.892  -8.007   0.818  1.00  0.00     0.184 C
BRANCH  11  12
HETATM   12  N2  UNL     1      40.690  -7.555  -0.306  1.00  0.00    -0.371 N
ATOM     13  H2  UNL     1      40.546  -8.009  -1.208  1.00  0.00     0.161 HD
BRANCH  12  14
HETATM   14  C8  UNL     1      41.648  -6.533  -0.230  1.00  0.00     0.070 C
HETATM   15  C9  UNL     1      43.081  -6.882  -0.510  1.00  0.00     0.081 C
HETATM   16  S1  UNL     1      41.326  -4.994   0.164  1.00  0.00    -0.066 SA
ENDBRANCH  12  14
ENDBRANCH  11  12
BRANCH  11  17
HETATM   17  C10 UNL     1      40.800  -8.249   1.965  1.00  0.00     0.281 C
HETATM   18  O1  UNL     1      40.875  -7.400   2.924  1.00  0.00    -0.263 OA
BRANCH  17  19
HETATM   19  O2  UNL     1      41.601  -9.354   2.093  1.00  0.00    -0.325 OA
HETATM   20  C11 UNL     1      42.961  -9.426   1.802  1.00  0.00     0.213 C
ENDBRANCH  17  19
ENDBRANCH  11  17
ENDBRANCH   1  11
TORSDOF 8
ENDMDL