MODEL 3
REMARK VINA RESULT: -5.250743452      1.640      1.659
REMARK  8 active torsions:
REMARK  status: ('A' for Active; 'I' for Inactive)
REMARK    1  A    between atoms: N1_2  and  C2_4
REMARK    2  A    between atoms: C2_4  and  C3_5
REMARK    3  A    between atoms: C11_13  and  C12_14
REMARK    4  A    between atoms: C12_14  and  N2_15
REMARK    5  A    between atoms: C12_14  and  N3_18
REMARK    6  A    between atoms: N3_18  and  C13_20
REMARK    7  A    between atoms: C13_20  and  C14_21
REMARK    8  A    between atoms: C14_21  and  N4_22
ROOT
HETATM    1  C3  UNL     1      37.665 -16.532  -1.150  1.00  0.00    -0.029 A
HETATM    2  C4  UNL     1      37.408 -16.879  -2.475  1.00  0.00     0.010 A
HETATM    3  C5  UNL     1      38.340 -17.111  -3.433  1.00  0.00     0.002 A
HETATM    4  C6  UNL     1      39.647 -17.003  -3.091  1.00  0.00     0.012 A
HETATM    5  C7  UNL     1      39.987 -16.665  -1.796  1.00  0.00    -0.024 A
HETATM    6  C8  UNL     1      41.343 -16.695  -1.543  1.00  0.00     0.012 A
HETATM    7  C9  UNL     1      41.721 -16.472  -0.255  1.00  0.00     0.002 A
HETATM    8  C10 UNL     1      40.804 -16.234   0.712  1.00  0.00     0.016 A
HETATM    9  C11 UNL     1      39.376 -16.194   0.458  1.00  0.00     0.019 A
HETATM   10  C15 UNL     1      39.023 -16.423  -0.820  1.00  0.00    -0.004 A
ENDROOT
BRANCH   9  11
HETATM   11  C12 UNL     1      38.633 -15.655   1.527  1.00  0.00     0.109 C
BRANCH  11  12
HETATM   12  N2  UNL     1      37.985 -15.916   2.456  1.00  0.00    -0.385 N
ATOM     13  H22 UNL     1      37.349 -16.658   2.163  1.00  0.00     0.157 HD
ATOM     14  H21 UNL     1      37.746 -15.637   3.408  1.00  0.00     0.157 HD
ENDBRANCH  11  12
BRANCH  11  15
HETATM   15  N3  UNL     1      38.871 -14.148   1.581  1.00  0.00    -0.354 N
ATOM     16  H3  UNL     1      39.672 -13.801   2.108  1.00  0.00     0.166 HD
BRANCH  15  17
HETATM   17  C13 UNL     1      38.042 -13.221   0.941  1.00  0.00     0.089 C
BRANCH  17  18
HETATM   18  C14 UNL     1      38.060 -11.882   1.629  1.00  0.00     0.274 C
BRANCH  18  19
HETATM   19  N4  UNL     1      36.862 -11.167   1.346  1.00  0.00    -0.075 N
ATOM     20  H43 UNL     1      36.992 -10.158   1.432  1.00  0.00     0.274 HD
ATOM     21  H42 UNL     1      36.622 -11.203   0.355  1.00  0.00     0.274 HD
ATOM     22  H41 UNL     1      36.101 -11.504   1.934  1.00  0.00     0.274 HD
ENDBRANCH  18  19
ENDBRANCH  17  18
ENDBRANCH  15  17
ENDBRANCH  11  15
ENDBRANCH   9  11
BRANCH   1  23
HETATM   23  C2  UNL     1      36.570 -16.359  -0.215  1.00  0.00     0.157 C
BRANCH  23  24
HETATM   24  N1  UNL     1      36.008 -17.728  -0.015  1.00  0.00    -0.404 N
HETATM   25  C1  UNL     1      35.099 -17.858   0.882  1.00  0.00     0.112 C
ATOM     26  H1  UNL     1      36.333 -18.523  -0.565  1.00  0.00     0.158 HD
ENDBRANCH  23  24
ENDBRANCH   1  23
TORSDOF 8
ENDMDL