MODEL 3
REMARK VINA RESULT: -5.958800834      1.839      2.643
REMARK  8 active torsions:
REMARK  status: ('A' for Active; 'I' for Inactive)
REMARK    1  A    between atoms: C2_2  and  N1_3
REMARK    2  A    between atoms: N1_3  and  C3_5
REMARK    3  A    between atoms: C3_5  and  N2_7
REMARK    4  A    between atoms: N2_7  and  C4_9
REMARK    5  A    between atoms: C4_9  and  C5_10
REMARK    6  A    between atoms: C5_10  and  N3_11
REMARK    7  A    between atoms: C5_10  and  C6_15
REMARK    8  A    between atoms: C6_15  and  O1_16
ROOT
HETATM    1  C5  UNL     1      39.068  -9.620   1.690  1.00  0.00     0.235 C
ENDROOT
BRANCH   1   2
HETATM    2  C4  UNL     1      39.102 -11.069   2.016  1.00  0.00     0.158 C
BRANCH   2   3
HETATM    3  N2  UNL     1      38.751 -11.760   0.748  1.00  0.00    -0.365 N
ATOM      4  H2  UNL     1      38.383 -11.218  -0.035  1.00  0.00     0.161 HD
BRANCH   3   5
HETATM    5  C3  UNL     1      38.919 -13.150   0.612  1.00  0.00     0.167 C
HETATM    6  S1  UNL     1      39.204 -13.791  -0.846  1.00  0.00    -0.041 SA
BRANCH   5   7
HETATM    7  N1  UNL     1      38.834 -13.979   1.743  1.00  0.00    -0.368 N
ATOM      8  H1  UNL     1      38.239 -13.685   2.517  1.00  0.00     0.161 HD
BRANCH   7   9
HETATM    9  C2  UNL     1      39.559 -15.240   1.863  1.00  0.00     0.117 C
HETATM   10  C1  UNL     1      38.503 -16.346   1.869  1.00  0.00     0.026 C
ENDBRANCH   7   9
ENDBRANCH   5   7
ENDBRANCH   3   5
ENDBRANCH   2   3
ENDBRANCH   1   2
BRANCH   1  11
HETATM   11  N3  UNL     1      38.124  -9.478   0.576  1.00  0.00    -0.071 N
ATOM     12  H33 UNL     1      37.161  -9.705   0.826  1.00  0.00     0.274 HD
ATOM     13  H32 UNL     1      37.956  -8.509   0.304  1.00  0.00     0.274 HD
ATOM     14  H31 UNL     1      38.495 -10.054  -0.181  1.00  0.00     0.274 HD
ENDBRANCH   1  11
BRANCH   1  15
HETATM   15  C6  UNL     1      40.391  -8.975   1.341  1.00  0.00     0.090 C
HETATM   16  C8  UNL     1      40.298  -8.215   0.036  1.00  0.00     0.040 C
HETATM   17  C9  UNL     1      40.858  -6.828   0.288  1.00  0.00     0.003 C
HETATM   18  C10 UNL     1      40.146  -6.549   1.620  1.00  0.00     0.003 C
HETATM   19  C11 UNL     1      40.483  -7.803   2.351  1.00  0.00     0.040 C
BRANCH  15  20
HETATM   20  O1  UNL     1      41.499  -9.655   1.543  1.00  0.00    -0.383 OA
HETATM   21  C7  UNL     1      42.725  -9.300   1.800  1.00  0.00     0.202 C
ENDBRANCH  15  20
ENDBRANCH   1  15
TORSDOF 8
ENDMDL