MODEL 4
REMARK VINA RESULT: -6.423988198      1.609      1.885
REMARK  6 active torsions:
REMARK  status: ('A' for Active; 'I' for Inactive)
REMARK    1  A    between atoms: O1_2  and  C2_3
REMARK    2  A    between atoms: C7_8  and  N1_9
REMARK       I    between atoms: N1_9  and  C8_11
REMARK    3  A    between atoms: N3_13  and  C9_15
REMARK    4  A    between atoms: C9_15  and  C10_16
REMARK    5  A    between atoms: C10_16  and  C11_17
REMARK    6  A    between atoms: C11_17  and  N4_19
ROOT
HETATM    1  N1  UNL     1      38.772 -13.279   1.620  1.00  0.00    -0.328 N
ATOM      2  H1  UNL     1      38.805 -13.611   2.583  1.00  0.00     0.168 HD
HETATM    3  C8  UNL     1      38.250 -11.945   1.336  1.00  0.00     0.192 C
HETATM    4  N2  UNL     1      36.902 -11.951   0.893  1.00  0.00    -0.063 NA
HETATM    5  N3  UNL     1      39.011 -10.960   1.503  1.00  0.00    -0.344 N
ATOM      6  H3  UNL     1      39.941 -11.224   1.830  1.00  0.00     0.167 HD
ENDROOT
BRANCH   1   7
HETATM    7  C7  UNL     1      39.229 -14.111   0.585  1.00  0.00     0.068 A
HETATM    8  C2  UNL     1      39.234 -15.481   0.787  1.00  0.00     0.095 A
HETATM    9  C3  UNL     1      39.684 -16.260  -0.237  1.00  0.00     0.039 A
HETATM   10  C4  UNL     1      40.130 -15.787  -1.449  1.00  0.00     0.003 A
HETATM   11  C5  UNL     1      40.117 -14.417  -1.631  1.00  0.00     0.002 A
HETATM   12  C6  UNL     1      39.673 -13.579  -0.631  1.00  0.00     0.032 A
BRANCH   8  13
HETATM   13  O1  UNL     1      38.806 -16.058   1.968  1.00  0.00    -0.354 OA
HETATM   14  C1  UNL     1      38.406 -17.412   1.948  1.00  0.00     0.210 C
ENDBRANCH   8  13
ENDBRANCH   1   7
BRANCH   5  15
HETATM   15  C9  UNL     1      38.860  -9.572   1.337  1.00  0.00     0.065 C
BRANCH  15  16
HETATM   16  C10 UNL     1      40.113  -8.906   0.879  1.00  0.00     0.077 C
BRANCH  16  17
HETATM   17  C11 UNL     1      41.189  -8.915   1.960  1.00  0.00     0.184 C
HETATM   18  C12 UNL     1      42.567  -8.904   1.369  1.00  0.00     0.040 C
BRANCH  17  19
HETATM   19  N4  UNL     1      41.022  -7.682   2.708  1.00  0.00    -0.075 N
ATOM     20  H43 UNL     1      40.532  -7.809   3.594  1.00  0.00     0.274 HD
ATOM     21  H42 UNL     1      41.893  -7.324   3.098  1.00  0.00     0.274 HD
ATOM     22  H41 UNL     1      40.559  -7.028   2.078  1.00  0.00     0.274 HD
ENDBRANCH  17  19
ENDBRANCH  16  17
ENDBRANCH  15  16
ENDBRANCH   5  15
TORSDOF 6
ENDMDL