MODEL 2
REMARK VINA RESULT: -7.822980870      0.060      1.059
REMARK  4 active torsions:
REMARK  status: ('A' for Active; 'I' for Inactive)
REMARK    1  A    between atoms: N2_3  and  C2_5
REMARK    2  A    between atoms: N3_6  and  C3_8
REMARK    3  A    between atoms: C7_14  and  C8_15
REMARK    4  A    between atoms: N6_17  and  C9_19
ROOT
HETATM    1  C3  UNL     1      38.913 -16.452   1.152  1.00  0.00     0.049 A
HETATM    2  C4  UNL     1      38.666 -17.797   1.348  1.00  0.00     0.047 A
HETATM    3  C5  UNL     1      37.393 -18.331   1.241  1.00  0.00     0.090 A
HETATM    4  N4  UNL     1      36.386 -17.493   0.936  1.00  0.00    -0.374 N
ATOM      5  H4  UNL     1      35.446 -17.880   0.855  1.00  0.00     0.164 HD
HETATM    6  C6  UNL     1      36.551 -16.174   0.732  1.00  0.00     0.104 A
HETATM    7  C7  UNL     1      37.833 -15.653   0.843  1.00  0.00     0.047 A
ENDROOT
BRANCH   7   8
HETATM    8  C8  UNL     1      38.028 -14.243   0.626  1.00  0.00     0.130 C
HETATM    9  N5  UNL     1      38.362 -13.775  -0.663  1.00  0.00    -0.082 NA
HETATM   10  N6  UNL     1      37.900 -13.417   1.598  1.00  0.00    -0.344 N
ATOM     11  H6  UNL     1      37.658 -13.788   2.517  1.00  0.00     0.167 HD
BRANCH  10  12
HETATM   12  C9  UNL     1      38.074 -12.024   1.468  1.00  0.00     0.033 A
HETATM   13  C10 UNL     1      37.019 -11.145   1.392  1.00  0.00     0.029 A
HETATM   14  C11 UNL     1      37.247  -9.789   1.265  1.00  0.00     0.002 A
HETATM   15  C12 UNL     1      38.523  -9.267   1.210  1.00  0.00     0.000 A
HETATM   16  C13 UNL     1      39.590 -10.136   1.285  1.00  0.00     0.002 A
HETATM   17  C14 UNL     1      39.350 -11.508   1.414  1.00  0.00     0.029 A
ENDBRANCH  10  12
ENDBRANCH   7   8
BRANCH   1  18
HETATM   18  N3  UNL     1      40.180 -15.872   1.252  1.00  0.00    -0.351 N
HETATM   19  C2  UNL     1      41.163 -16.000   0.470  1.00  0.00     0.181 C
ATOM     20  H3  UNL     1      40.331 -15.267   2.060  1.00  0.00     0.166 HD
BRANCH  19  21
HETATM   21  N2  UNL     1      41.058 -16.816  -0.676  1.00  0.00    -0.350 N
HETATM   22  C1  UNL     1      41.083 -16.402  -1.879  1.00  0.00     0.190 C
HETATM   23  N1  UNL     1      41.217 -15.065  -2.295  1.00  0.00    -0.097 NA
ATOM     24  H2  UNL     1      40.955 -17.820  -0.528  1.00  0.00     0.167 HD
ENDBRANCH  19  21
ENDBRANCH   1  18
TORSDOF 4
ENDMDL