MODEL 1
REMARK VINA RESULT: -6.042765449      0.000      0.000
REMARK  5 active torsions:
REMARK  status: ('A' for Active; 'I' for Inactive)
REMARK    1  A    between atoms: C2_2  and  C3_3
REMARK    2  A    between atoms: C2_2  and  N5_19
REMARK    3  A    between atoms: C3_3  and  C4_4
REMARK    4  A    between atoms: C4_4  and  C5_5
REMARK    5  A    between atoms: N1_10  and  N2_12
REMARK       I    between atoms: N2_12  and  C9_14
ROOT
HETATM    1  C3  UNL     1      39.274 -14.807   0.157  1.00  0.00     0.065 C
HETATM    2  N1  UNL     1      38.455 -14.931   1.085  1.00  0.00    -0.300 N
ATOM      3  H1  UNL     1      37.984 -14.032   1.188  1.00  0.00     0.186 HD
ENDROOT
BRANCH   1   4
HETATM    4  C2  UNL     1      40.191 -15.855  -0.353  1.00  0.00     0.150 C
HETATM    5  C1  UNL     1      41.282 -16.090   0.348  1.00  0.00     0.053 C
BRANCH   4   6
HETATM    6  N5  UNL     1      39.948 -16.611  -1.510  1.00  0.00    -0.048 N
HETATM    7  C10 UNL     1      38.597 -16.657  -1.969  1.00  0.00     0.278 C
HETATM    8  C11 UNL     1      40.737 -16.082  -2.629  1.00  0.00     0.278 C
HETATM    9  C12 UNL     1      40.387 -17.974  -1.222  1.00  0.00     0.278 C
ENDBRANCH   4   6
ENDBRANCH   1   4
BRANCH   1  10
HETATM   10  C4  UNL     1      39.301 -13.413  -0.461  1.00  0.00     0.126 C
BRANCH  10  11
HETATM   11  C5  UNL     1      38.562 -12.463   0.429  1.00  0.00     0.058 A
HETATM   12  C6  UNL     1      39.153 -11.463   1.166  1.00  0.00     0.035 A
HETATM   13  C7  UNL     1      38.159 -10.804   1.854  1.00  0.00     0.027 A
HETATM   14  C8  UNL     1      36.989 -11.436   1.505  1.00  0.00     0.142 A
HETATM   15  O1  UNL     1      37.289 -12.401   0.667  1.00  0.00    -0.327 OA
ENDBRANCH  10  11
ENDBRANCH   1  10
BRANCH   2  16
HETATM   16  N2  UNL     1      37.946 -15.738   1.987  1.00  0.00    -0.274 N
HETATM   17  C9  UNL     1      37.444 -17.041   1.633  1.00  0.00     0.200 C
HETATM   18  N3  UNL     1      36.325 -17.166   1.004  1.00  0.00    -0.372 N
HETATM   19  N4  UNL     1      38.158 -18.221   1.959  1.00  0.00    -0.062 NA
ATOM     20  H32 UNL     1      35.810 -16.317   0.770  1.00  0.00     0.158 HD
ATOM     21  H31 UNL     1      35.969 -18.089   0.753  1.00  0.00     0.158 HD
ATOM     22  H2  UNL     1      37.904 -15.436   2.961  1.00  0.00     0.189 HD
ENDBRANCH   2  16
TORSDOF 5
ENDMDL