MODEL 3
REMARK VINA RESULT: -7.625235259      1.315      1.441
REMARK  8 active torsions:
REMARK  status: ('A' for Active; 'I' for Inactive)
REMARK    1  A    between atoms: C2_2  and  C3_3
REMARK    2  A    between atoms: C6_6  and  C7_7
REMARK    3  A    between atoms: N1_8  and  N2_10
REMARK    4  A    between atoms: N2_10  and  C8_12
REMARK    5  A    between atoms: C8_12  and  N3_14
REMARK    6  A    between atoms: N3_14  and  C9_16
REMARK    7  A    between atoms: C9_16  and  C10_17
REMARK    8  A    between atoms: C10_17  and  N4_18
ROOT
HETATM    1  N2  UNL     1      37.993 -12.706   1.740  1.00  0.00    -0.277 N
ATOM      2  H2  UNL     1      37.098 -12.522   2.193  1.00  0.00     0.189 HD
ENDROOT
BRANCH   1   3
HETATM    3  N1  UNL     1      38.931 -11.691   1.586  1.00  0.00    -0.309 N
HETATM    4  C7  UNL     1      38.643 -10.441   1.679  1.00  0.00     0.118 C
ATOM      5  H1  UNL     1      39.898 -11.951   1.388  1.00  0.00     0.186 HD
BRANCH   4   6
HETATM    6  C6  UNL     1      39.702  -9.472   1.500  1.00  0.00    -0.019 A
HETATM    7  C5  UNL     1      41.009  -9.811   1.743  1.00  0.00     0.013 A
HETATM    8  C4  UNL     1      42.047  -8.918   1.583  1.00  0.00     0.012 A
HETATM    9  C3  UNL     1      41.716  -7.627   1.157  1.00  0.00    -0.037 A
HETATM   10  C12 UNL     1      40.430  -7.268   0.910  1.00  0.00     0.012 A
HETATM   11  C11 UNL     1      39.408  -8.202   1.084  1.00  0.00     0.013 A
BRANCH   9  12
HETATM   12  C2  UNL     1      42.812  -6.692   0.993  1.00  0.00     0.001 C
HETATM   13  C1  UNL     1      43.318  -6.353  -0.173  1.00  0.00     0.012 C
ENDBRANCH   9  12
ENDBRANCH   4   6
ENDBRANCH   1   3
BRANCH   1  14
HETATM   14  C8  UNL     1      38.302 -13.989   1.261  1.00  0.00     0.186 C
HETATM   15  S1  UNL     1      37.523 -14.578  -0.027  1.00  0.00    -0.040 SA
BRANCH  14  16
HETATM   16  N3  UNL     1      39.302 -14.751   1.907  1.00  0.00    -0.364 N
ATOM     17  H3  UNL     1      39.741 -14.378   2.749  1.00  0.00     0.162 HD
BRANCH  16  18
HETATM   18  C9  UNL     1      39.719 -16.029   1.416  1.00  0.00     0.149 C
BRANCH  18  19
HETATM   19  C10 UNL     1      40.957 -16.006   0.594  1.00  0.00     0.249 C
BRANCH  19  20
HETATM   20  N4  UNL     1      40.931 -17.222  -0.236  1.00  0.00    -0.078 N
ATOM     21  H43 UNL     1      40.478 -18.014   0.221  1.00  0.00     0.274 HD
ATOM     22  H42 UNL     1      40.296 -17.155  -1.032  1.00  0.00     0.274 HD
ATOM     23  H41 UNL     1      41.897 -17.410  -0.505  1.00  0.00     0.274 HD
ENDBRANCH  19  20
ENDBRANCH  18  19
ENDBRANCH  16  18
ENDBRANCH  14  16
ENDBRANCH   1  14
TORSDOF 8
ENDMDL