MODEL 4
REMARK VINA RESULT: -5.801018126      1.131      7.165
REMARK  5 active torsions:
REMARK  status: ('A' for Active; 'I' for Inactive)
REMARK    1  A    between atoms: N1_2  and  C2_4
REMARK    2  A    between atoms: C2_4  and  C3_5
REMARK    3  A    between atoms: C6_8  and  N2_9
REMARK    4  A    between atoms: N2_9  and  C7_11
REMARK    5  A    between atoms: C7_11  and  C8_12
ROOT
HETATM    1  C3  UNL     1      38.121 -12.339   1.169  1.00  0.00    -0.025 A
HETATM    2  C4  UNL     1      39.446 -11.964   1.128  1.00  0.00     0.014 A
HETATM    3  C5  UNL     1      39.787 -10.623   1.145  1.00  0.00     0.049 A
HETATM    4  C6  UNL     1      38.803  -9.660   1.203  1.00  0.00     0.102 A
HETATM    5  N5  UNL     1      37.495 -10.035   1.244  1.00  0.00    -0.347 N
HETATM    6  C11 UNL     1      36.472  -8.990   1.306  1.00  0.00     0.157 C
HETATM    7  C12 UNL     1      37.192 -11.321   1.227  1.00  0.00     0.100 A
ENDROOT
BRANCH   4   8
HETATM    8  N2  UNL     1      39.152  -8.281   1.214  1.00  0.00    -0.370 N
ATOM      9  H2  UNL     1      38.549  -7.635   0.704  1.00  0.00     0.161 HD
BRANCH   8  10
HETATM   10  C7  UNL     1      40.294  -7.737   1.891  1.00  0.00     0.179 C
BRANCH  10  11
HETATM   11  C8  UNL     1      41.073  -6.767   1.090  1.00  0.00     0.043 A
HETATM   12  C9  UNL     1      42.429  -6.579   0.969  1.00  0.00     0.115 A
HETATM   13  N3  UNL     1      42.649  -5.568   0.117  1.00  0.00    -0.360 N
HETATM   14  C10 UNL     1      41.456  -5.124  -0.294  1.00  0.00     0.180 A
ATOM     15  H3  UNL     1      43.558  -5.203  -0.165  1.00  0.00     0.166 HD
HETATM   16  N4  UNL     1      40.499  -5.851   0.295  1.00  0.00    -0.353 N
ATOM     17  H4  UNL     1      39.495  -5.728   0.161  1.00  0.00     0.166 HD
ENDBRANCH  10  11
ENDBRANCH   8  10
ENDBRANCH   4   8
BRANCH   1  18
HETATM   18  C2  UNL     1      37.776 -13.783   1.149  1.00  0.00     0.153 C
BRANCH  18  19
HETATM   19  N1  UNL     1      38.843 -14.501   1.776  1.00  0.00    -0.421 N
HETATM   20  C1  UNL     1      38.669 -15.915   1.823  1.00  0.00     0.140 C
ATOM     21  H1  UNL     1      39.666 -14.037   2.160  1.00  0.00     0.153 HD
ENDBRANCH  18  19
ENDBRANCH   1  18
TORSDOF 5
ENDMDL