MODEL 3
REMARK VINA RESULT: -7.983037657      0.054      1.584
REMARK  7 active torsions:
REMARK  status: ('A' for Active; 'I' for Inactive)
REMARK    1  A    between atoms: O1_1  and  C1_3
REMARK    2  A    between atoms: C1_3  and  N1_4
REMARK    3  A    between atoms: N1_4  and  C2_5
REMARK    4  A    between atoms: N1_4  and  C10_15
REMARK    5  A    between atoms: C2_5  and  C3_6
REMARK    6  A    between atoms: C3_6  and  O2_7
REMARK    7  A    between atoms: C3_6  and  C4_9
ROOT
HETATM    1  N1  UNL     1      38.483 -12.105   1.153  1.00  0.00    -0.357 N
ENDROOT
BRANCH   1   2
HETATM    2  C1  UNL     1      37.064 -11.970   0.929  1.00  0.00     0.290 C
BRANCH   2   3
HETATM    3  O1  UNL     1      36.456 -11.257   1.965  1.00  0.00    -0.382 OA
ATOM      4  H1  UNL     1      36.197 -10.389   1.678  1.00  0.00     0.211 HD
ENDBRANCH   2   3
ENDBRANCH   1   2
BRANCH   1   5
HETATM    5  C2  UNL     1      39.230 -11.015   1.715  1.00  0.00     0.162 C
BRANCH   5   6
HETATM    6  C3  UNL     1      39.187  -9.780   0.876  1.00  0.00     0.169 C
BRANCH   6   7
HETATM    7  O2  UNL     1      38.187  -8.937   1.331  1.00  0.00    -0.389 OA
ATOM      8  H2  UNL     1      38.570  -8.139   1.677  1.00  0.00     0.210 HD
ENDBRANCH   6   7
BRANCH   6   9
HETATM    9  C4  UNL     1      40.466  -9.018   0.918  1.00  0.00    -0.028 A
HETATM   10  C5  UNL     1      41.546  -9.379   1.693  1.00  0.00     0.010 A
HETATM   11  C6  UNL     1      42.729  -8.648   1.710  1.00  0.00     0.001 A
HETATM   12  C7  UNL     1      42.832  -7.517   0.924  1.00  0.00     0.000 A
HETATM   13  C8  UNL     1      41.760  -7.130   0.132  1.00  0.00     0.001 A
HETATM   14  C9  UNL     1      40.611  -7.880   0.147  1.00  0.00     0.010 A
ENDBRANCH   6   9
ENDBRANCH   5   6
ENDBRANCH   1   5
BRANCH   1  15
HETATM   15  C10 UNL     1      39.117 -13.302   0.791  1.00  0.00     0.031 A
HETATM   16  C11 UNL     1      39.664 -13.473  -0.477  1.00  0.00     0.029 A
HETATM   17  C12 UNL     1      40.278 -14.628  -0.860  1.00  0.00     0.002 A
HETATM   18  C13 UNL     1      40.357 -15.657   0.045  1.00  0.00     0.000 A
HETATM   19  C14 UNL     1      39.829 -15.528   1.308  1.00  0.00     0.002 A
HETATM   20  C15 UNL     1      39.203 -14.337   1.682  1.00  0.00     0.029 A
ENDBRANCH   1  15
TORSDOF 7
ENDMDL