MODEL 5
REMARK VINA RESULT: -4.796682570      1.787      1.910
REMARK  4 active torsions:
REMARK  status: ('A' for Active; 'I' for Inactive)
REMARK    1  A    between atoms: C2_2  and  C4_5
REMARK    2  A    between atoms: C4_5  and  C5_6
REMARK    3  A    between atoms: C5_6  and  C6_7
REMARK    4  A    between atoms: N2_16  and  O2_17
ROOT
HETATM    1  C1  UNL     1       7.897 -40.823   9.112  1.00  0.00     0.030 C
HETATM    2  C2  UNL     1       8.668 -41.822   9.410  1.00  0.00     0.013 C
HETATM    3  C3  UNL     1       8.832 -42.955   8.530  1.00  0.00     0.094 C
HETATM    4  N1  UNL     1       8.970 -43.878   7.824  1.00  0.00    -0.192 NA
ENDROOT
BRANCH   2   5
HETATM    5  C4  UNL     1       9.459 -41.895  10.692  1.00  0.00     0.055 C
BRANCH   5   6
HETATM    6  C5  UNL     1      10.490 -40.804  10.593  1.00  0.00     0.067 C
BRANCH   6   7
HETATM    7  C6  UNL     1      11.872 -41.309  10.661  1.00  0.00     0.066 A
HETATM    8  C7  UNL     1      12.653 -41.824   9.640  1.00  0.00     0.096 A
HETATM    9 CL1  UNL     1      12.078 -41.962   7.997  1.00  0.00    -0.079 Cl
HETATM   10  C8  UNL     1      13.915 -42.190  10.150  1.00  0.00     0.137 A
HETATM   11  O1  UNL     1      14.993 -42.688   9.723  1.00  0.00    -0.287 OA
HETATM   12  C10 UNL     1      13.824 -41.868  11.477  1.00  0.00     0.142 A
HETATM   13  C9  UNL     1      15.994 -42.896  10.504  1.00  0.00     0.186 A
HETATM   14  S1  UNL     1      17.475 -43.535  10.132  1.00  0.00    -0.044 SA
HETATM   15  S2  UNL     1      15.391 -42.344  12.008  1.00  0.00    -0.030 SA
HETATM   16  N2  UNL     1      12.603 -41.342  11.785  1.00  0.00    -0.217 N
BRANCH  16  17
HETATM   17  O2  UNL     1      12.265 -40.940  13.051  1.00  0.00    -0.282 OA
ATOM     18  H2  UNL     1      12.206 -41.452  13.848  1.00  0.00     0.245 HD
ENDBRANCH  16  17
ENDBRANCH   6   7
ENDBRANCH   5   6
ENDBRANCH   2   5
TORSDOF 4
ENDMDL