MODEL 5
REMARK VINA RESULT: -2.131351543      1.693      1.823
REMARK  3 active torsions:
REMARK  status: ('A' for Active; 'I' for Inactive)
REMARK    1  A    between atoms: C2_2  and  C3_3
REMARK    2  A    between atoms: N1_5  and  N2_7
REMARK    3  A    between atoms: C4_8  and  C5_9
ROOT
HETATM    1  N2  UNL     1      11.371 -41.658   9.599  1.00  0.00    -0.210 N
HETATM    2  C4  UNL     1      12.668 -41.721   9.277  1.00  0.00     0.164 A
HETATM    3  N3  UNL     1      12.758 -41.168   8.047  1.00  0.00    -0.281 N
ATOM      4  H3  UNL     1      13.626 -41.066   7.522  1.00  0.00     0.188 HD
HETATM    5  N4  UNL     1      11.572 -40.776   7.614  1.00  0.00    -0.273 N
ATOM      6  H4  UNL     1      11.363 -40.330   6.720  1.00  0.00     0.189 HD
HETATM    7  C7  UNL     1      10.696 -41.083   8.588  1.00  0.00     0.214 A
HETATM    8  S3  UNL     1       9.097 -40.767   8.469  1.00  0.00    -0.037 SA
ENDROOT
BRANCH   1   9
HETATM    9  N1  UNL     1      10.832 -42.117  10.784  1.00  0.00    -0.298 N
HETATM   10  C2  UNL     1      10.884 -41.521  11.913  1.00  0.00     0.014 C
HETATM   11  C1  UNL     1      10.259 -42.137  13.095  1.00  0.00     0.066 C
ATOM     12  H1  UNL     1      10.348 -43.014  10.756  1.00  0.00     0.187 HD
BRANCH  10  13
HETATM   13  C3  UNL     1      11.574 -40.222  12.001  1.00  0.00     0.168 C
HETATM   14 CL1  UNL     1      13.095 -40.457  12.930  1.00  0.00    -0.124 Cl
ENDBRANCH  10  13
ENDBRANCH   1   9
BRANCH   2  15
HETATM   15  C5  UNL     1      13.780 -42.269  10.075  1.00  0.00     0.088 A
HETATM   16  S1  UNL     1      13.896 -43.692  11.015  1.00  0.00    -0.045 SA
HETATM   17  S2  UNL     1      15.768 -43.074  11.390  1.00  0.00    -0.038 SA
HETATM   18  C6  UNL     1      15.070 -41.879  10.356  1.00  0.00     0.102 A
HETATM   19 CL2  UNL     1      15.971 -40.444   9.822  1.00  0.00    -0.074 Cl
ENDBRANCH   2  15
TORSDOF 3
ENDMDL