MODEL 4
REMARK VINA RESULT: -3.949216359      1.748      2.963
REMARK  8 active torsions:
REMARK  status: ('A' for Active; 'I' for Inactive)
REMARK    1  A    between atoms: C2_2  and  C3_3
REMARK    2  A    between atoms: C3_3  and  C4_4
REMARK    3  A    between atoms: C3_3  and  N1_6
REMARK    4  A    between atoms: C7_11  and  N3_12
REMARK    5  A    between atoms: N3_12  and  C8_14
REMARK    6  A    between atoms: C8_14  and  S1_15
REMARK    7  A    between atoms: S1_15  and  C9_16
REMARK    8  A    between atoms: C12_22  and  N5_23
ROOT
HETATM    1  N1  UNL     1      13.663 -41.721  10.793  1.00  0.00    -0.270 N
HETATM    2  N2  UNL     1      13.052 -41.333  11.924  1.00  0.00    -0.284 N
ATOM      3  H2  UNL     1      13.635 -41.042  12.709  1.00  0.00     0.188 HD
HETATM    4  C6  UNL     1      11.725 -41.305  12.083  1.00  0.00     0.147 A
HETATM    5 CL1  UNL     1      11.095 -40.765  13.647  1.00  0.00    -0.060 Cl
HETATM    6  C7  UNL     1      10.886 -41.685  11.061  1.00  0.00     0.104 A
HETATM    7  C10 UNL     1      11.474 -42.089   9.886  1.00  0.00     0.120 A
HETATM    8  C11 UNL     1      10.655 -42.493   8.794  1.00  0.00     0.106 C
HETATM    9  N4  UNL     1       9.979 -42.832   7.918  1.00  0.00    -0.191 NA
HETATM   10  C12 UNL     1      12.856 -42.095   9.784  1.00  0.00     0.139 A
ENDROOT
BRANCH   6  11
HETATM   11  N3  UNL     1       9.489 -41.634  11.293  1.00  0.00    -0.312 N
ATOM     12  H3  UNL     1       9.044 -42.152  12.050  1.00  0.00     0.176 HD
BRANCH  11  13
HETATM   13  C8  UNL     1       8.818 -40.884  10.480  1.00  0.00     0.015 C
BRANCH  13  14
HETATM   14  S1  UNL     1       8.050 -40.261   9.165  1.00  0.00     0.033 SA
BRANCH  14  15
HETATM   15  C9  UNL     1       9.190 -39.582   8.159  1.00  0.00     0.317 C
HETATM   16  F1  UNL     1       9.338 -40.135   6.984  1.00  0.00    -0.164 F
HETATM   17  F2  UNL     1       9.871 -38.578   8.651  1.00  0.00    -0.164 F
ENDBRANCH  14  15
ENDBRANCH  13  14
ENDBRANCH  11  13
ENDBRANCH   6  11
BRANCH  10  18
HETATM   18  N5  UNL     1      13.367 -42.481   8.663  1.00  0.00    -0.383 N
ATOM     19  H52 UNL     1      12.728 -42.629   7.882  1.00  0.00     0.157 HD
ATOM     20  H51 UNL     1      14.375 -42.623   8.589  1.00  0.00     0.157 HD
ENDBRANCH  10  18
BRANCH   1  21
HETATM   21  C3  UNL     1      15.108 -41.724  10.695  1.00  0.00     0.109 C
BRANCH  21  22
HETATM   22  C2  UNL     1      15.742 -40.405  11.019  1.00  0.00     0.023 C
HETATM   23  C1  UNL     1      17.049 -40.197  10.306  1.00  0.00     0.007 C
ENDBRANCH  21  22
BRANCH  21  24
HETATM   24  C4  UNL     1      15.771 -42.817  11.484  1.00  0.00     0.023 C
HETATM   25  C5  UNL     1      16.686 -43.665  10.629  1.00  0.00     0.007 C
ENDBRANCH  21  24
ENDBRANCH   1  21
TORSDOF 8
ENDMDL