MODEL 3
REMARK VINA RESULT: -6.576517901      1.857      2.273
REMARK  4 active torsions:
REMARK  status: ('A' for Active; 'I' for Inactive)
REMARK    1  A    between atoms: C4_6  and  C5_7
REMARK    2  A    between atoms: C5_7  and  O2_9
REMARK    3  A    between atoms: O2_9  and  C6_10
REMARK    4  A    between atoms: C7_12  and  S2_13
ROOT
HETATM    1  C5  UNL     1      12.754 -41.966   9.665  1.00  0.00     0.308 C
HETATM    2  O1  UNL     1      12.677 -41.573   8.502  1.00  0.00    -0.258 OA
ENDROOT
BRANCH   1   3
HETATM    3  C4  UNL     1      11.662 -41.769  10.650  1.00  0.00     0.104 A
HETATM    4  C1  UNL     1      10.316 -41.922  10.449  1.00  0.00     0.070 A
HETATM    5  N1  UNL     1       9.824 -42.325   9.138  1.00  0.00    -0.101 NA
HETATM    6  C2  UNL     1       9.505 -41.691  11.483  1.00  0.00     0.035 A
HETATM    7  C3  UNL     1      10.085 -41.318  12.669  1.00  0.00     0.052 A
HETATM    8  S1  UNL     1      11.748 -41.305  12.288  1.00  0.00    -0.094 SA
ENDBRANCH   1   3
BRANCH   1   9
HETATM    9  O2  UNL     1      13.872 -42.607  10.083  1.00  0.00    -0.266 OA
BRANCH   9  10
HETATM   10  C6  UNL     1      15.098 -42.135  10.424  1.00  0.00     0.133 C
HETATM   11 BR1  UNL     1      16.271 -43.497  11.172  1.00  0.00    -0.022 Br
HETATM   12  C7  UNL     1      15.593 -40.943  10.330  1.00  0.00     0.107 C
BRANCH  12  13
HETATM   13  S2  UNL     1      17.255 -40.589  10.859  1.00  0.00    -0.028 SA
HETATM   14 CL1  UNL     1      18.065 -39.212   9.463  1.00  0.00    -0.039 Cl
ENDBRANCH  12  13
ENDBRANCH   9  10
ENDBRANCH   1   9
TORSDOF 4
ENDMDL