MODEL 5
REMARK VINA RESULT: -6.402742150      3.618      5.604
REMARK  6 active torsions:
REMARK  status: ('A' for Active; 'I' for Inactive)
REMARK    1  A    between atoms: C2_2  and  O1_3
REMARK    2  A    between atoms: O1_3  and  C3_4
REMARK    3  A    between atoms: C3_4  and  C4_6
REMARK    4  A    between atoms: C5_12  and  N3_13
REMARK    5  A    between atoms: N4_15  and  C6_17
REMARK    6  A    between atoms: C6_17  and  C7_21
ROOT
HETATM    1  C4  UNL     1      12.929 -41.527  11.142  1.00  0.00     0.161 A
HETATM    2  N1  UNL     1      12.524 -41.427  12.372  1.00  0.00    -0.286 N
ATOM      3  H1  UNL     1      13.207 -41.401  13.130  1.00  0.00     0.188 HD
HETATM    4  N2  UNL     1      11.263 -41.361  12.646  1.00  0.00    -0.267 N
ATOM      5  H2  UNL     1      10.819 -41.281  13.561  1.00  0.00     0.195 HD
HETATM    6  S1  UNL     1      10.530 -41.436  11.137  1.00  0.00     0.024 SA
HETATM    7  C5  UNL     1      11.928 -41.555  10.170  1.00  0.00     0.141 A
ENDROOT
BRANCH   7   8
HETATM    8  N3  UNL     1      12.125 -41.654   8.760  1.00  0.00    -0.289 N
HETATM    9  N4  UNL     1      11.188 -41.830   7.984  1.00  0.00    -0.286 N
ATOM     10  H4  UNL     1      11.459 -41.883   7.002  1.00  0.00     0.188 HD
ATOM     11  H3  UNL     1      13.071 -41.576   8.386  1.00  0.00     0.188 HD
BRANCH   9  12
HETATM   12  C6  UNL     1       9.820 -41.969   8.214  1.00  0.00     0.123 C
HETATM   13  N5  UNL     1       9.280 -43.055   8.643  1.00  0.00    -0.386 N
ATOM     14  H52 UNL     1       9.889 -43.855   8.816  1.00  0.00     0.157 HD
ATOM     15  H51 UNL     1       8.279 -43.156   8.812  1.00  0.00     0.157 HD
BRANCH  12  16
HETATM   16  C7  UNL     1       8.931 -40.802   7.961  1.00  0.00     0.246 C
HETATM   17 CL1  UNL     1       7.668 -40.658   9.199  1.00  0.00    -0.100 Cl
HETATM   18 CL2  UNL     1       9.854 -39.286   7.967  1.00  0.00    -0.100 Cl
ENDBRANCH  12  16
ENDBRANCH   9  12
ENDBRANCH   7   8
BRANCH   1  19
HETATM   19  C3  UNL     1      14.379 -41.606  10.793  1.00  0.00     0.314 C
HETATM   20  O2  UNL     1      14.802 -41.076   9.747  1.00  0.00    -0.257 OA
BRANCH  19  21
HETATM   21  O1  UNL     1      15.283 -42.255  11.601  1.00  0.00    -0.317 OA
BRANCH  21  22
HETATM   22  C2  UNL     1      15.800 -43.533  11.386  1.00  0.00     0.175 C
HETATM   23  C1  UNL     1      17.179 -43.539  10.778  1.00  0.00     0.034 C
ENDBRANCH  21  22
ENDBRANCH  19  21
ENDBRANCH   1  19
TORSDOF 6
ENDMDL