MODEL 5
REMARK VINA RESULT: -4.322931061      1.367      1.369
REMARK  4 active torsions:
REMARK  status: ('A' for Active; 'I' for Inactive)
REMARK    1  A    between atoms: O1_2  and  C2_3
REMARK    2  A    between atoms: C3_4  and  N1_5
REMARK    3  A    between atoms: C6_14  and  N4_15
REMARK    4  A    between atoms: N4_15  and  C7_17
ROOT
HETATM    1  C2  UNL     1      12.428 -42.069   9.634  1.00  0.00     0.132 A
HETATM    2  C3  UNL     1      13.551 -42.565  10.235  1.00  0.00     0.126 A
HETATM    3  S1  UNL     1      13.220 -42.394  11.894  1.00  0.00    -0.055 SA
HETATM    4  C4  UNL     1      11.673 -41.699  11.800  1.00  0.00     0.117 A
HETATM    5  C5  UNL     1      10.778 -41.282  12.878  1.00  0.00     0.109 C
HETATM    6  N3  UNL     1      10.084 -40.944  13.733  1.00  0.00    -0.191 NA
HETATM    7  C6  UNL     1      11.444 -41.615  10.454  1.00  0.00     0.098 A
ENDROOT
BRANCH   7   8
HETATM    8  N4  UNL     1      10.181 -41.055   9.961  1.00  0.00    -0.337 N
ATOM      9  H4  UNL     1       9.983 -40.065  10.104  1.00  0.00     0.167 HD
BRANCH   8  10
HETATM   10  C7  UNL     1       9.328 -41.784   9.355  1.00  0.00     0.151 C
HETATM   11 CL1  UNL     1       8.926 -43.338  10.041  1.00  0.00    -0.056 Cl
HETATM   12 BR1  UNL     1       8.534 -41.149   7.742  1.00  0.00    -0.017 Br
ENDBRANCH   8  10
ENDBRANCH   7   8
BRANCH   2  13
HETATM   13  N1  UNL     1      14.716 -43.098   9.563  1.00  0.00    -0.298 N
HETATM   14  N2  UNL     1      15.743 -43.422  10.221  1.00  0.00    -0.344 N
ATOM     15  H22 UNL     1      15.735 -43.301  11.234  1.00  0.00     0.176 HD
ATOM     16  H21 UNL     1      16.564 -43.798   9.746  1.00  0.00     0.176 HD
ATOM     17  H1  UNL     1      14.707 -43.212   8.550  1.00  0.00     0.187 HD
ENDBRANCH   2  13
BRANCH   1  18
HETATM   18  O1  UNL     1      12.315 -42.038   8.203  1.00  0.00    -0.351 OA
HETATM   19  C1  UNL     1      12.311 -40.746   7.587  1.00  0.00     0.210 C
ENDBRANCH   1  18
TORSDOF 4
ENDMDL