MODEL 2
REMARK VINA RESULT: -6.289207284      0.792      1.080
REMARK  5 active torsions:
REMARK  status: ('A' for Active; 'I' for Inactive)
REMARK    1  A    between atoms: C2_2  and  C4_5
REMARK    2  A    between atoms: C6_10  and  S2_11
REMARK    3  A    between atoms: S2_11  and  C7_12
REMARK    4  A    between atoms: C7_12  and  C8_13
REMARK    5  A    between atoms: C9_18  and  O1_19
ROOT
HETATM    1  C4  UNL     1      10.439 -41.183   9.278  1.00  0.00     0.087 A
HETATM    2  N1  UNL     1      10.681 -41.256  10.591  1.00  0.00    -0.333 N
ATOM      3  H1  UNL     1      10.023 -41.010  11.330  1.00  0.00     0.168 HD
HETATM    4  C5  UNL     1      11.949 -41.711  10.782  1.00  0.00     0.175 A
HETATM    5  S1  UNL     1      13.228 -42.156  11.867  1.00  0.00    -0.026 SA
HETATM    6  C6  UNL     1      14.394 -42.594  10.723  1.00  0.00     0.130 A
HETATM    7  N2  UNL     1      13.730 -42.369   9.588  1.00  0.00    -0.277 N
ATOM      8  H2  UNL     1      14.188 -42.545   8.695  1.00  0.00     0.189 HD
HETATM    9  N3  UNL     1      12.538 -41.939   9.604  1.00  0.00    -0.208 N
HETATM   10  C9  UNL     1      11.594 -41.608   8.651  1.00  0.00     0.189 A
ENDROOT
BRANCH   1  11
HETATM   11  C2  UNL     1       9.194 -40.717   8.549  1.00  0.00     0.076 C
HETATM   12  C1  UNL     1       8.072 -40.493   9.517  1.00  0.00     0.039 C
HETATM   13  C3  UNL     1       8.819 -41.631   7.414  1.00  0.00     0.039 C
HETATM   14 CL1  UNL     1       9.649 -39.149   7.771  1.00  0.00    -0.113 Cl
ENDBRANCH   1  11
BRANCH  10  15
HETATM   15  O1  UNL     1      11.753 -41.684   7.282  1.00  0.00    -0.343 OA
ATOM     16  H1  UNL     1      12.592 -41.642   6.837  1.00  0.00     0.219 HD
ENDBRANCH  10  15
BRANCH   6  17
HETATM   17  S2  UNL     1      16.084 -43.226  10.779  1.00  0.00    -0.102 SA
BRANCH  17  18
HETATM   18  C7  UNL     1      17.156 -42.022   9.990  1.00  0.00     0.096 C
BRANCH  18  19
HETATM   19  C8  UNL     1      16.737 -40.586  10.255  1.00  0.00     0.125 C
HETATM   20 CL2  UNL     1      17.853 -39.823  11.381  1.00  0.00    -0.130 Cl
ENDBRANCH  18  19
ENDBRANCH  17  18
ENDBRANCH   6  17
TORSDOF 5
ENDMDL