MODEL 4
REMARK VINA RESULT: -5.771785875      2.148      2.240
REMARK  6 active torsions:
REMARK  status: ('A' for Active; 'I' for Inactive)
REMARK    1  A    between atoms: S1_2  and  C2_3
REMARK    2  A    between atoms: C2_3  and  S2_7
REMARK    3  A    between atoms: S2_7  and  C3_8
REMARK    4  A    between atoms: C3_8  and  C4_9
REMARK    5  A    between atoms: C4_9  and  C5_11
REMARK    6  A    between atoms: C6_13  and  O2_14
ROOT
HETATM    1  C4  UNL     1      12.543 -41.974  11.005  1.00  0.00     0.177 C
HETATM    2  O1  UNL     1      12.721 -41.477  12.163  1.00  0.00    -0.291 OA
ENDROOT
BRANCH   1   3
HETATM    3  C3  UNL     1      13.557 -42.862  10.441  1.00  0.00     0.166 C
BRANCH   3   4
HETATM    4  S2  UNL     1      15.134 -42.661  11.334  1.00  0.00    -0.098 SA
BRANCH   4   5
HETATM    5  C2  UNL     1      16.530 -42.669  10.233  1.00  0.00     0.101 C
HETATM    6  N1  UNL     1      16.968 -43.790   9.812  1.00  0.00    -0.388 N
ATOM      7  H12 UNL     1      17.769 -43.794   9.181  1.00  0.00     0.157 HD
ATOM      8  H11 UNL     1      16.534 -44.669  10.095  1.00  0.00     0.157 HD
BRANCH   5   9
HETATM    9  S1  UNL     1      17.283 -41.145   9.744  1.00  0.00    -0.110 SA
HETATM   10  C1  UNL     1      17.641 -40.054  11.120  1.00  0.00     0.097 C
ENDBRANCH   5   9
ENDBRANCH   4   5
ENDBRANCH   3   4
ENDBRANCH   1   3
BRANCH   1  11
HETATM   11  C5  UNL     1      11.306 -41.603  10.322  1.00  0.00     0.077 A
HETATM   12  S3  UNL     1       9.731 -41.604  10.966  1.00  0.00    -0.059 SA
HETATM   13  C6  UNL     1       8.862 -41.071   9.598  1.00  0.00     0.131 A
HETATM   14  C7  UNL     1       9.849 -40.905   8.662  1.00  0.00     0.097 A
HETATM   15 CL1  UNL     1       9.413 -40.340   7.020  1.00  0.00    -0.079 Cl
HETATM   16  C8  UNL     1      11.108 -41.180   9.035  1.00  0.00     0.080 A
HETATM   17 CL2  UNL     1      12.506 -41.019   7.924  1.00  0.00    -0.081 Cl
BRANCH  13  18
HETATM   18  O2  UNL     1       7.478 -40.852   9.457  1.00  0.00    -0.353 OA
ATOM     19  H2  UNL     1       6.969 -40.081   9.677  1.00  0.00     0.218 HD
ENDBRANCH  13  18
ENDBRANCH   1  11
TORSDOF 6
ENDMDL