MODEL 4
REMARK VINA RESULT: -3.534319410      2.327      3.635
REMARK  4 active torsions:
REMARK  status: ('A' for Active; 'I' for Inactive)
REMARK    1  A    between atoms: C3_5  and  N2_6
REMARK    2  A    between atoms: C4_7  and  C5_8
REMARK    3  A    between atoms: C5_8  and  S1_9
REMARK    4  A    between atoms: S1_9  and  C6_10
ROOT
HETATM    1  N2  UNL     1      12.077 -41.607  10.343  1.00  0.00    -0.253 N
HETATM    2  C4  UNL     1      11.212 -41.446  11.333  1.00  0.00     0.116 A
HETATM    3  N3  UNL     1      10.005 -41.255  10.711  1.00  0.00    -0.286 N
ATOM      4  H3  UNL     1       9.116 -41.099  11.188  1.00  0.00     0.188 HD
HETATM    5  N4  UNL     1      10.168 -41.303   9.402  1.00  0.00    -0.274 N
ATOM      6  H4  UNL     1       9.432 -41.192   8.703  1.00  0.00     0.189 HD
HETATM    7  C7  UNL     1      11.471 -41.526   9.145  1.00  0.00     0.200 A
HETATM    8  S2  UNL     1      12.122 -41.658   7.647  1.00  0.00    -0.038 SA
ENDROOT
BRANCH   1   9
HETATM    9  C3  UNL     1      13.501 -41.850  10.426  1.00  0.00     0.159 A
HETATM   10  N1  UNL     1      14.478 -40.965  10.256  1.00  0.00    -0.339 N
HETATM   11  C2  UNL     1      15.710 -41.328  10.360  1.00  0.00     0.020 A
ATOM     12  H1  UNL     1      14.251 -39.993  10.042  1.00  0.00     0.168 HD
HETATM   13  C1  UNL     1      16.860 -40.357  10.177  1.00  0.00     0.069 C
HETATM   14  C8  UNL     1      15.967 -42.646  10.648  1.00  0.00     0.004 A
HETATM   15  S3  UNL     1      14.382 -43.271  10.751  1.00  0.00    -0.056 SA
HETATM   16  C9  UNL     1      17.300 -43.322  10.820  1.00  0.00     0.058 C
ENDBRANCH   1   9
BRANCH   2  17
HETATM   17  C5  UNL     1      11.462 -41.458  12.792  1.00  0.00     0.157 C
BRANCH  17  18
HETATM   18  S1  UNL     1       9.952 -41.399  13.772  1.00  0.00    -0.093 SA
BRANCH  18  19
HETATM   19  C6  UNL     1       9.083 -39.822  13.577  1.00  0.00     0.416 C
HETATM   20  F1  UNL     1       8.599 -39.431  14.823  1.00  0.00    -0.203 F
HETATM   21  F2  UNL     1       7.963 -40.066  12.783  1.00  0.00    -0.203 F
ENDBRANCH  18  19
ENDBRANCH  17  18
ENDBRANCH   2  17
TORSDOF 4
ENDMDL