MODEL 4
REMARK VINA RESULT: -8.048757990      8.897     13.865
REMARK  17 active torsions:
REMARK  status: ('A' for Active; 'I' for Inactive)
REMARK    1  A    between atoms: C2_2  and  C3_3
REMARK    2  A    between atoms: C3_3  and  C4_4
REMARK    3  A    between atoms: C4_4  and  C5_5
REMARK    4  A    between atoms: C5_5  and  C6_6
REMARK    5  A    between atoms: C6_6  and  C7_7
REMARK    6  A    between atoms: C7_7  and  N1_8
REMARK    7  A    between atoms: C7_7  and  C26_40
REMARK       I    between atoms: N1_8  and  C8_10
REMARK    8  A    between atoms: C8_10  and  C9_12
REMARK    9  A    between atoms: C9_12  and  C10_13
REMARK   10  A    between atoms: C9_12  and  N3_18
REMARK   11  A    between atoms: C10_13  and  C11_14
REMARK   12  A    between atoms: C11_14  and  C12_15
REMARK       I    between atoms: N3_18  and  C13_20
REMARK   13  A    between atoms: C13_20  and  C14_22
REMARK       I    between atoms: N4_26  and  C18_27
REMARK   14  A    between atoms: C18_27  and  C19_29
REMARK   15  A    between atoms: C19_29  and  N5_30
REMARK   16  A    between atoms: C19_29  and  C20_34
REMARK       I    between atoms: C26_40  and  N6_42
REMARK   17  A    between atoms: C34_50  and  C35_51
ROOT
HETATM    1  C9  UNL     1      48.370  -1.494  13.288  1.00  0.00     0.177 C
ENDROOT
BRANCH   1   2
HETATM    2  C8  UNL     1      49.813  -1.514  12.968  1.00  0.00     0.241 C
HETATM    3  N1  UNL     1      50.788  -1.429  13.990  1.00  0.00    -0.346 N
ATOM      4  H1  UNL     1      50.474  -1.351  14.958  1.00  0.00     0.163 HD
HETATM    5  O1  UNL     1      50.182  -1.613  11.781  1.00  0.00    -0.271 OA
BRANCH   3   6
HETATM    6  C7  UNL     1      52.245  -1.447  13.719  1.00  0.00     0.176 C
BRANCH   6   7
HETATM    7  C6  UNL     1      52.834  -1.829  15.092  1.00  0.00     0.035 C
BRANCH   7   8
HETATM    8  C5  UNL     1      51.724  -2.314  16.009  1.00  0.00     0.002 C
BRANCH   8   9
HETATM    9  C4  UNL     1      51.958  -3.755  16.398  1.00  0.00     0.000 C
BRANCH   9  10
HETATM   10  C3  UNL     1      50.761  -4.302  17.113  1.00  0.00    -0.000 C
BRANCH  10  11
HETATM   11  C2  UNL     1      49.545  -3.944  16.277  1.00  0.00    -0.005 C
HETATM   12  C1  UNL     1      48.496  -3.411  17.253  1.00  0.00     0.005 C
ENDBRANCH  10  11
ENDBRANCH   9  10
ENDBRANCH   8   9
ENDBRANCH   7   8
ENDBRANCH   6   7
BRANCH   6  13
HETATM   13  C26 UNL     1      52.643  -0.085  13.401  1.00  0.00     0.243 C
HETATM   14  O5  UNL     1      52.522   0.763  14.376  1.00  0.00    -0.271 OA
HETATM   15  N6  UNL     1      53.131   0.467  12.211  1.00  0.00    -0.333 N
HETATM   16  C27 UNL     1      53.384  -0.291  11.005  1.00  0.00     0.088 C
HETATM   17  C34 UNL     1      53.368   1.910  12.157  1.00  0.00     0.177 C
HETATM   18  C28 UNL     1      54.854  -0.497  10.793  1.00  0.00     0.025 C
HETATM   19  C32 UNL     1      52.879   0.493   9.799  1.00  0.00     0.030 C
HETATM   20  C29 UNL     1      55.340  -0.229   9.399  1.00  0.00     0.002 C
HETATM   21  C30 UNL     1      55.038   1.196   8.964  1.00  0.00     0.005 C
HETATM   22  C31 UNL     1      53.780   1.695   9.670  1.00  0.00    -0.010 C
HETATM   23  C33 UNL     1      54.117   2.368  10.955  1.00  0.00     0.039 C
BRANCH  17  24
HETATM   24  C35 UNL     1      52.064   2.647  12.263  1.00  0.00     0.254 C
HETATM   25  N7  UNL     1      52.022   4.000  12.665  1.00  0.00    -0.060 NA
HETATM   26  O6  UNL     1      51.010   2.050  11.989  1.00  0.00    -0.275 OA
ENDBRANCH  17  24
ENDBRANCH   6  13
ENDBRANCH   3   6
ENDBRANCH   1   2
BRANCH   1  27
HETATM   27  C10 UNL     1      48.175  -0.763  14.621  1.00  0.00     0.043 C
BRANCH  27  28
HETATM   28  C11 UNL     1      48.552   0.686  14.389  1.00  0.00     0.102 C
BRANCH  28  29
HETATM   29  C12 UNL     1      47.411   1.376  13.761  1.00  0.00     0.231 C
HETATM   30  N2  UNL     1      47.568   2.177  12.590  1.00  0.00    -0.062 NA
HETATM   31  O2  UNL     1      46.273   1.276  14.240  1.00  0.00    -0.277 OA
ENDBRANCH  28  29
ENDBRANCH  27  28
ENDBRANCH   1  27
BRANCH   1  32
HETATM   32  N3  UNL     1      47.540  -0.920  12.270  1.00  0.00    -0.346 N
HETATM   33  C13 UNL     1      46.724  -1.753  11.457  1.00  0.00     0.241 C
HETATM   34  O3  UNL     1      46.763  -2.991  11.677  1.00  0.00    -0.271 OA
ATOM     35  H3  UNL     1      47.535   0.090  12.127  1.00  0.00     0.163 HD
BRANCH  33  36
HETATM   36  C14 UNL     1      45.841  -1.258  10.375  1.00  0.00     0.179 C
HETATM   37  C15 UNL     1      45.788   0.213  10.225  1.00  0.00     0.037 C
HETATM   38  C16 UNL     1      44.634   0.652  11.065  1.00  0.00     0.022 C
HETATM   39  C17 UNL     1      44.026  -0.636  11.636  1.00  0.00     0.127 C
HETATM   40  N4  UNL     1      44.460  -1.636  10.726  1.00  0.00    -0.337 N
HETATM   41  C18 UNL     1      43.855  -2.781  10.170  1.00  0.00     0.251 C
HETATM   42  O4  UNL     1      44.505  -3.484   9.308  1.00  0.00    -0.271 OA
BRANCH  41  43
HETATM   43  C19 UNL     1      42.503  -3.311  10.459  1.00  0.00     0.278 C
BRANCH  43  44
HETATM   44  N5  UNL     1      41.478  -2.825   9.558  1.00  0.00    -0.066 N
ATOM     45  H53 UNL     1      41.884  -2.225   8.841  1.00  0.00     0.275 HD
ATOM     46  H52 UNL     1      41.129  -3.582   8.970  1.00  0.00     0.275 HD
ATOM     47  H51 UNL     1      40.706  -2.352  10.028  1.00  0.00     0.275 HD
ENDBRANCH  43  44
BRANCH  43  48
HETATM   48  C20 UNL     1      42.523  -4.833  10.505  1.00  0.00     0.025 C
HETATM   49  C21 UNL     1      41.686  -5.340  11.630  1.00  0.00     0.007 C
HETATM   50  C22 UNL     1      41.096  -6.713  11.282  1.00  0.00     0.000 C
HETATM   51  C23 UNL     1      42.042  -7.548  10.461  1.00  0.00     0.000 C
HETATM   52  C24 UNL     1      42.430  -6.884   9.176  1.00  0.00     0.000 C
HETATM   53  C25 UNL     1      42.025  -5.426   9.209  1.00  0.00     0.007 C
ENDBRANCH  43  48
ENDBRANCH  41  43
ENDBRANCH  33  36
ENDBRANCH   1  32
TORSDOF 17
ENDMDL