MODEL 5
REMARK VINA RESULT: -8.778619724      7.739     12.198
REMARK  18 active torsions:
REMARK  status: ('A' for Active; 'I' for Inactive)
REMARK    1  A    between atoms: C2_2  and  C3_3
REMARK    2  A    between atoms: C3_3  and  N1_4
REMARK    3  A    between atoms: C3_3  and  C11_14
REMARK       I    between atoms: N1_4  and  C4_6
REMARK    4  A    between atoms: C4_6  and  C5_8
REMARK    5  A    between atoms: C11_14  and  O2_15
REMARK    6  A    between atoms: C11_14  and  N2_17
REMARK    7  A    between atoms: C15_21  and  C16_22
REMARK       I    between atoms: C16_22  and  N3_24
REMARK    8  A    between atoms: N3_24  and  C17_26
REMARK    9  A    between atoms: C17_26  and  C18_27
REMARK   10  A    between atoms: C17_26  and  C25_36
REMARK   11  A    between atoms: C18_27  and  C19_28
REMARK   12  A    between atoms: C19_28  and  C20_29
REMARK   13  A    between atoms: C20_29  and  C21_30
REMARK   14  A    between atoms: C21_30  and  C22_31
REMARK   15  A    between atoms: C22_31  and  C23_32
REMARK   16  A    between atoms: C23_32  and  C24_33
REMARK       I    between atoms: C25_36  and  N5_38
REMARK   17  A    between atoms: N5_38  and  C26_40
REMARK   18  A    between atoms: C26_40  and  C27_41
REMARK       I    between atoms: N6_45  and  C31_46
ROOT
HETATM    1  C16 UNL     1      47.738  -2.158  12.693  1.00  0.00     0.241 C
HETATM    2  O3  UNL     1      47.199  -1.358  13.494  1.00  0.00    -0.271 OA
HETATM    3  N3  UNL     1      47.117  -2.417  11.448  1.00  0.00    -0.346 N
ATOM      4  H3  UNL     1      47.553  -3.070  10.796  1.00  0.00     0.163 HD
ENDROOT
BRANCH   1   5
HETATM    5  C15 UNL     1      49.013  -2.808  13.083  1.00  0.00     0.183 C
HETATM    6  N2  UNL     1      50.062  -2.471  12.104  1.00  0.00    -0.346 N
HETATM    7  C12 UNL     1      51.048  -1.673  12.868  1.00  0.00     0.132 C
HETATM    8  C13 UNL     1      50.994  -2.561  14.100  1.00  0.00     0.019 A
HETATM    9  C14 UNL     1      49.496  -2.176  14.316  1.00  0.00     0.032 A
HETATM   10  C33 UNL     1      50.389  -2.484  15.352  1.00  0.00    -0.036 A
HETATM   11  C34 UNL     1      50.131  -3.746  16.160  1.00  0.00     0.016 C
HETATM   12  C35 UNL     1      50.906  -1.382  16.288  1.00  0.00     0.016 C
BRANCH   6  13
HETATM   13  C11 UNL     1      50.034  -2.882  10.767  1.00  0.00     0.162 C
BRANCH  13  14
HETATM   14  C3  UNL     1      50.651  -2.285   9.570  1.00  0.00     0.062 C
BRANCH  14  15
HETATM   15  C2  UNL     1      49.767  -2.144   8.400  1.00  0.00     0.057 C
HETATM   16  C1  UNL     1      49.902  -3.224   7.329  1.00  0.00     0.011 C
ENDBRANCH  14  15
BRANCH  14  17
HETATM   17  N1  UNL     1      51.682  -1.372   9.855  1.00  0.00    -0.327 N
HETATM   18  C4  UNL     1      53.046  -1.252   9.694  1.00  0.00     0.226 C
HETATM   19  O1  UNL     1      53.746  -2.119   9.124  1.00  0.00    -0.273 OA
ATOM     20  H1  UNL     1      51.306  -0.547  10.323  1.00  0.00     0.168 HD
BRANCH  18  21
HETATM   21  C5  UNL     1      53.822  -0.068  10.198  1.00  0.00     0.078 C
HETATM   22  C6  UNL     1      54.419   0.638   9.004  1.00  0.00     0.014 C
HETATM   23  C7  UNL     1      55.373   1.732   9.434  1.00  0.00     0.001 C
HETATM   24  C8  UNL     1      55.007   2.165  10.821  1.00  0.00     0.000 C
HETATM   25  C9  UNL     1      53.490   2.279  10.925  1.00  0.00     0.001 C
HETATM   26  C10 UNL     1      52.856   0.893  10.872  1.00  0.00     0.014 C
ENDBRANCH  18  21
ENDBRANCH  14  17
ENDBRANCH  13  14
BRANCH  13  27
HETATM   27  O2  UNL     1      49.352  -3.988  10.550  1.00  0.00    -0.345 OA
ATOM     28  H2  UNL     1      48.596  -3.891   9.983  1.00  0.00     0.219 HD
ENDBRANCH  13  27
ENDBRANCH   6  13
ENDBRANCH   1   5
BRANCH   3  29
HETATM   29  C17 UNL     1      45.844  -1.754  11.074  1.00  0.00     0.177 C
BRANCH  29  30
HETATM   30  C18 UNL     1      46.258  -0.440  10.541  1.00  0.00     0.035 C
BRANCH  30  31
HETATM   31  C19 UNL     1      45.340   0.706  10.552  1.00  0.00     0.002 C
BRANCH  31  32
HETATM   32  C20 UNL     1      44.910   1.183  11.909  1.00  0.00     0.000 C
BRANCH  32  33
HETATM   33  C21 UNL     1      45.583   2.520  12.208  1.00  0.00     0.000 C
BRANCH  33  34
HETATM   34  C22 UNL     1      47.075   2.409  12.271  1.00  0.00     0.009 C
BRANCH  34  35
HETATM   35  C23 UNL     1      47.530   1.706  13.544  1.00  0.00     0.099 C
BRANCH  35  36
HETATM   36  C24 UNL     1      49.012   1.810  13.631  1.00  0.00     0.231 C
HETATM   37  N4  UNL     1      49.866   2.219  12.606  1.00  0.00    -0.062 NA
HETATM   38  O4  UNL     1      49.574   1.493  14.743  1.00  0.00    -0.277 OA
ENDBRANCH  35  36
ENDBRANCH  34  35
ENDBRANCH  33  34
ENDBRANCH  32  33
ENDBRANCH  31  32
ENDBRANCH  30  31
ENDBRANCH  29  30
BRANCH  29  39
HETATM   39  C25 UNL     1      45.153  -2.648  10.092  1.00  0.00     0.244 C
HETATM   40  O5  UNL     1      45.887  -3.246   9.283  1.00  0.00    -0.271 OA
HETATM   41  N5  UNL     1      43.769  -2.821  10.069  1.00  0.00    -0.339 N
ATOM     42  H5  UNL     1      43.270  -2.285  10.781  1.00  0.00     0.167 HD
BRANCH  41  43
HETATM   43  C26 UNL     1      42.926  -3.604   9.239  1.00  0.00     0.070 C
BRANCH  43  44
HETATM   44  C27 UNL     1      42.435  -4.921   9.649  1.00  0.00     0.042 C
HETATM   45  C28 UNL     1      41.823  -5.846   8.682  1.00  0.00     0.013 C
HETATM   46  C29 UNL     1      41.961  -7.274   9.257  1.00  0.00     0.021 C
HETATM   47  C30 UNL     1      41.888  -7.232  10.741  1.00  0.00     0.127 C
HETATM   48  N6  UNL     1      41.081  -6.136  11.200  1.00  0.00    -0.336 N
HETATM   49  C31 UNL     1      39.929  -6.351  12.014  1.00  0.00     0.330 C
HETATM   50  C32 UNL     1      41.436  -4.789  10.833  1.00  0.00     0.137 C
HETATM   51  N7  UNL     1      39.151  -5.256  12.463  1.00  0.00    -0.040 NA
HETATM   52  O6  UNL     1      39.640  -7.538  12.307  1.00  0.00    -0.251 OA
ENDBRANCH  43  44
ENDBRANCH  41  43
ENDBRANCH  29  39
ENDBRANCH   3  29
TORSDOF 18
ENDMDL