MODEL 5
REMARK VINA RESULT: -8.111354037      0.946      1.151
REMARK  18 active torsions:
REMARK  status: ('A' for Active; 'I' for Inactive)
REMARK    1  A    between atoms: C2_2  and  C3_3
REMARK    2  A    between atoms: C3_3  and  C4_4
REMARK    3  A    between atoms: C4_4  and  C5_5
REMARK    4  A    between atoms: C5_5  and  N1_6
REMARK    5  A    between atoms: C5_5  and  C27_39
REMARK       I    between atoms: N1_6  and  C6_8
REMARK    6  A    between atoms: C6_8  and  C7_10
REMARK    7  A    between atoms: C7_10  and  C8_11
REMARK    8  A    between atoms: C7_10  and  N2_18
REMARK    9  A    between atoms: C8_11  and  C9_12
REMARK   10  A    between atoms: N2_18  and  C15_20
REMARK   11  A    between atoms: C15_20  and  O2_21
REMARK   12  A    between atoms: C15_20  and  C16_23
REMARK   13  A    between atoms: C21_28  and  C22_29
REMARK   14  A    between atoms: C21_28  and  C23_32
REMARK   15  A    between atoms: C23_32  and  O5_33
REMARK   16  A    between atoms: N3_35  and  C25_37
REMARK       I    between atoms: C27_39  and  N4_41
REMARK   17  A    between atoms: C29_43  and  C30_44
REMARK   18  A    between atoms: C30_44  and  C31_45
REMARK       I    between atoms: N5_48  and  C34_49
ROOT
HETATM    1  C7  UNL     1      48.634  -2.870  11.366  1.00  0.00     0.175 C
ENDROOT
BRANCH   1   2
HETATM    2  C6  UNL     1      47.385  -2.379  10.647  1.00  0.00     0.241 C
HETATM    3  N1  UNL     1      46.098  -2.857  10.892  1.00  0.00    -0.346 N
ATOM      4  H1  UNL     1      45.972  -3.586  11.594  1.00  0.00     0.163 HD
HETATM    5  O1  UNL     1      47.539  -1.489   9.777  1.00  0.00    -0.271 OA
BRANCH   3   6
HETATM    6  C5  UNL     1      44.921  -2.351  10.179  1.00  0.00     0.176 C
BRANCH   6   7
HETATM    7  C4  UNL     1      44.095  -1.478  11.057  1.00  0.00     0.035 C
BRANCH   7   8
HETATM    8  C3  UNL     1      44.487  -0.003  10.932  1.00  0.00     0.002 C
BRANCH   8   9
HETATM    9  C2  UNL     1      43.628   0.770  11.936  1.00  0.00    -0.004 C
HETATM   10  C1  UNL     1      44.477   1.849  12.602  1.00  0.00     0.005 C
ENDBRANCH   8   9
ENDBRANCH   7   8
ENDBRANCH   6   7
BRANCH   6  11
HETATM   11  C27 UNL     1      44.128  -3.500   9.647  1.00  0.00     0.243 C
HETATM   12  O6  UNL     1      44.326  -3.797   8.419  1.00  0.00    -0.271 OA
HETATM   13  N4  UNL     1      43.195  -4.255  10.394  1.00  0.00    -0.334 N
HETATM   14  C28 UNL     1      42.527  -5.364   9.737  1.00  0.00     0.134 C
HETATM   15  C35 UNL     1      42.889  -3.925  11.765  1.00  0.00     0.256 C
HETATM   16  C29 UNL     1      41.083  -5.492  10.140  1.00  0.00     0.022 C
HETATM   17  C33 UNL     1      40.889  -5.391  11.622  1.00  0.00     0.135 C
HETATM   18  N5  UNL     1      41.489  -4.137  12.045  1.00  0.00    -0.320 N
HETATM   19  C34 UNL     1      40.739  -3.139  12.722  1.00  0.00     0.332 C
HETATM   20  N6  UNL     1      39.365  -3.319  13.027  1.00  0.00    -0.040 NA
HETATM   21  O7  UNL     1      41.306  -2.068  13.062  1.00  0.00    -0.251 OA
BRANCH  16  22
HETATM   22  C30 UNL     1      40.453  -6.718   9.567  1.00  0.00     0.007 C
BRANCH  22  23
HETATM   23  C31 UNL     1      40.833  -7.930  10.404  1.00  0.00    -0.004 C
HETATM   24  C32 UNL     1      39.673  -8.855  10.650  1.00  0.00     0.005 C
ENDBRANCH  22  23
ENDBRANCH  16  22
ENDBRANCH   6  11
ENDBRANCH   3   6
ENDBRANCH   1   2
BRANCH   1  25
HETATM   25  C8  UNL     1      49.809  -2.227  10.811  1.00  0.00     0.039 C
BRANCH  25  26
HETATM   26  C9  UNL     1      50.758  -2.902   9.919  1.00  0.00    -0.012 C
HETATM   27  C10 UNL     1      50.866  -2.434   8.522  1.00  0.00     0.005 C
HETATM   28  C11 UNL     1      49.705  -3.017   7.701  1.00  0.00     0.000 C
HETATM   29  C12 UNL     1      50.029  -4.477   7.414  1.00  0.00     0.000 C
HETATM   30  C13 UNL     1      50.831  -4.997   8.590  1.00  0.00     0.000 C
HETATM   31  C14 UNL     1      50.328  -4.390   9.853  1.00  0.00     0.005 C
ENDBRANCH  25  26
ENDBRANCH   1  25
BRANCH   1  32
HETATM   32  N2  UNL     1      48.365  -2.884  12.778  1.00  0.00    -0.361 N
ATOM     33  H2  UNL     1      48.378  -3.781  13.261  1.00  0.00     0.162 HD
BRANCH  32  34
HETATM   34  C15 UNL     1      48.083  -1.731  13.531  1.00  0.00     0.117 C
BRANCH  34  35
HETATM   35  O2  UNL     1      47.170  -0.993  12.947  1.00  0.00    -0.349 OA
ATOM     36  H2  UNL     1      47.423  -0.077  12.937  1.00  0.00     0.219 HD
ENDBRANCH  34  35
BRANCH  34  37
HETATM   37  C16 UNL     1      48.630  -1.254  14.800  1.00  0.00     0.087 C
HETATM   38  C17 UNL     1      49.695  -2.224  15.276  1.00  0.00     0.014 C
HETATM   39  C18 UNL     1      50.523  -1.885  16.408  1.00  0.00     0.001 C
HETATM   40  C19 UNL     1      50.586  -0.460  16.837  1.00  0.00     0.002 C
HETATM   41  C20 UNL     1      49.437   0.357  16.395  1.00  0.00     0.030 C
HETATM   42  C21 UNL     1      49.037   0.165  14.933  1.00  0.00     0.123 C
BRANCH  42  43
HETATM   43  C22 UNL     1      47.803   1.023  14.776  1.00  0.00     0.191 C
HETATM   44  O3  UNL     1      47.727   1.940  13.958  1.00  0.00    -0.647 OA
HETATM   45  O4  UNL     1      46.739   0.738  15.604  1.00  0.00    -0.647 OA
ENDBRANCH  42  43
BRANCH  42  46
HETATM   46  C23 UNL     1      50.123   0.592  14.066  1.00  0.00     0.133 C
HETATM   47  N3  UNL     1      51.141   1.498  14.132  1.00  0.00    -0.369 N
HETATM   48  C24 UNL     1      52.003   1.685  12.935  1.00  0.00     0.151 C
BRANCH  46  49
HETATM   49  O5  UNL     1      50.125  -0.058  12.910  1.00  0.00    -0.348 OA
ATOM     50  H5  UNL     1      50.966  -0.458  12.726  1.00  0.00     0.219 HD
ENDBRANCH  46  49
BRANCH  47  51
HETATM   51  C25 UNL     1      51.562   2.299  15.232  1.00  0.00     0.119 C
HETATM   52  C26 UNL     1      50.839   3.654  15.309  1.00  0.00     0.026 C
ENDBRANCH  47  51
ENDBRANCH  42  46
ENDBRANCH  34  37
ENDBRANCH  32  34
ENDBRANCH   1  32
TORSDOF 18
ENDMDL