MODEL 5
REMARK VINA RESULT: -8.147501258      3.587      8.529
REMARK  16 active torsions:
REMARK  status: ('A' for Active; 'I' for Inactive)
REMARK    1  A    between atoms: C2_2  and  C3_3
REMARK       I    between atoms: N1_8  and  C8_9
REMARK    2  A    between atoms: C8_9  and  C9_11
REMARK    3  A    between atoms: C9_11  and  C10_12
REMARK    4  A    between atoms: C9_11  and  N2_16
REMARK    5  A    between atoms: C10_12  and  C11_13
REMARK    6  A    between atoms: C11_13  and  C12_14
REMARK    7  A    between atoms: N2_16  and  S1_18
REMARK    8  A    between atoms: S1_18  and  C14_21
REMARK    9  A    between atoms: C14_21  and  C15_22
REMARK       I    between atoms: N3_26  and  C19_27
REMARK   10  A    between atoms: C19_27  and  C20_29
REMARK   11  A    between atoms: C20_29  and  C21_30
REMARK   12  A    between atoms: C20_29  and  N7_40
REMARK   13  A    between atoms: C21_30  and  C22_31
REMARK   14  A    between atoms: C22_31  and  C23_32
REMARK   15  A    between atoms: C23_32  and  N4_33
REMARK       I    between atoms: N4_33  and  C24_35
REMARK       I    between atoms: N7_40  and  C25_42
REMARK   16  A    between atoms: C25_42  and  C26_44
ROOT
HETATM    1  C15 UNL     1      49.760   0.123  13.823  1.00  0.00     0.102 C
HETATM    2  C16 UNL     1      50.994   0.714  13.245  1.00  0.00     0.028 C
HETATM    3  C17 UNL     1      50.899   2.217  13.440  1.00  0.00     0.022 C
HETATM    4  C18 UNL     1      49.560   2.357  14.158  1.00  0.00     0.126 C
HETATM    5  N3  UNL     1      48.810   1.198  13.619  1.00  0.00    -0.345 N
HETATM    6  C19 UNL     1      47.546   1.276  13.006  1.00  0.00     0.243 C
HETATM    7  O4  UNL     1      46.961   2.427  13.073  1.00  0.00    -0.271 OA
ENDROOT
BRANCH   1   8
HETATM    8  C14 UNL     1      49.757  -0.324  15.221  1.00  0.00     0.188 C
BRANCH   8   9
HETATM    9  S1  UNL     1      49.159  -1.891  15.650  1.00  0.00     0.229 S
HETATM   10  O2  UNL     1      49.496  -2.857  14.476  1.00  0.00    -0.206 OA
HETATM   11  O3  UNL     1      47.612  -1.799  15.479  1.00  0.00    -0.206 OA
BRANCH   9  12
HETATM   12  N2  UNL     1      49.558  -2.588  17.094  1.00  0.00    -0.306 N
ATOM     13  H2  UNL     1      49.888  -2.028  17.880  1.00  0.00     0.173 HD
BRANCH  12  14
HETATM   14  C9  UNL     1      49.415  -4.060  17.200  1.00  0.00     0.184 C
BRANCH  14  15
HETATM   15  C8  UNL     1      48.539  -4.392  18.305  1.00  0.00     0.243 C
HETATM   16  N1  UNL     1      47.873  -5.667  18.455  1.00  0.00    -0.342 N
HETATM   17  C3  UNL     1      46.968  -6.046  19.521  1.00  0.00     0.113 C
HETATM   18  C7  UNL     1      47.984  -6.791  17.565  1.00  0.00     0.131 C
HETATM   19  C4  UNL     1      46.698  -7.511  19.413  1.00  0.00     0.018 A
HETATM   20  C5  UNL     1      45.884  -8.088  18.295  1.00  0.00     0.014 A
HETATM   21  C6  UNL     1      47.364  -7.989  18.201  1.00  0.00     0.010 A
HETATM   22  O1  UNL     1      48.271  -3.568  19.246  1.00  0.00    -0.271 OA
BRANCH  17  23
HETATM   23  C2  UNL     1      47.581  -5.743  20.824  1.00  0.00    -0.012 C
HETATM   24  C1  UNL     1      47.701  -6.627  21.791  1.00  0.00     0.009 C
ENDBRANCH  17  23
ENDBRANCH  14  15
BRANCH  14  25
HETATM   25  C10 UNL     1      50.827  -4.594  17.247  1.00  0.00     0.035 C
BRANCH  25  26
HETATM   26  C11 UNL     1      51.411  -5.207  18.429  1.00  0.00     0.002 C
BRANCH  26  27
HETATM   27  C12 UNL     1      51.618  -6.667  18.516  1.00  0.00    -0.004 C
HETATM   28  C13 UNL     1      50.910  -7.308  19.694  1.00  0.00     0.005 C
ENDBRANCH  26  27
ENDBRANCH  25  26
ENDBRANCH  14  25
ENDBRANCH  12  14
ENDBRANCH   9  12
ENDBRANCH   8   9
ENDBRANCH   1   8
BRANCH   6  29
HETATM   29  C20 UNL     1      46.823   0.218  12.296  1.00  0.00     0.176 C
BRANCH  29  30
HETATM   30  C21 UNL     1      45.783   0.729  11.365  1.00  0.00     0.036 C
BRANCH  30  31
HETATM   31  C22 UNL     1      44.424   0.183  11.448  1.00  0.00     0.022 C
BRANCH  31  32
HETATM   32  C23 UNL     1      44.376  -1.095  10.600  1.00  0.00     0.122 C
BRANCH  32  33
HETATM   33  N4  UNL     1      44.146  -2.250  11.445  1.00  0.00    -0.365 N
HETATM   34  C24 UNL     1      42.901  -2.948  11.426  1.00  0.00     0.181 C
HETATM   35  N5  UNL     1      42.203  -2.852  10.344  1.00  0.00    -0.374 N
HETATM   36  N6  UNL     1      42.510  -3.682  12.562  1.00  0.00    -0.064 NA
ATOM     37  H52 UNL     1      42.487  -2.321   9.521  1.00  0.00     0.158 HD
ATOM     38  H51 UNL     1      41.313  -3.350  10.330  1.00  0.00     0.158 HD
ATOM     39  H4  UNL     1      44.889  -2.571  12.066  1.00  0.00     0.162 HD
ENDBRANCH  32  33
ENDBRANCH  31  32
ENDBRANCH  30  31
ENDBRANCH  29  30
BRANCH  29  40
HETATM   40  N7  UNL     1      47.768  -0.490  11.374  1.00  0.00    -0.347 N
HETATM   41  C25 UNL     1      47.858  -1.904  11.396  1.00  0.00     0.227 C
HETATM   42  O5  UNL     1      47.140  -2.534  12.207  1.00  0.00    -0.273 OA
ATOM     43  H7  UNL     1      48.348   0.047  10.728  1.00  0.00     0.163 HD
BRANCH  41  44
HETATM   44  C26 UNL     1      48.753  -2.666  10.509  1.00  0.00     0.042 C
HETATM   45  C27 UNL     1      50.188  -2.532  10.890  1.00  0.00     0.024 C
HETATM   46  C28 UNL     1      51.091  -3.241   9.919  1.00  0.00    -0.013 C
HETATM   47  C29 UNL     1      50.821  -2.845   8.467  1.00  0.00     0.010 C
HETATM   48  C33 UNL     1      50.643  -4.709   9.852  1.00  0.00     0.010 C
HETATM   49  C30 UNL     1      49.362  -3.308   8.348  1.00  0.00    -0.009 C
HETATM   50  C31 UNL     1      48.572  -2.221   9.046  1.00  0.00     0.024 C
HETATM   51  C32 UNL     1      49.265  -4.531   9.223  1.00  0.00    -0.009 C
HETATM   52  C34 UNL     1      48.344  -4.116  10.380  1.00  0.00     0.024 C
ENDBRANCH  41  44
ENDBRANCH  29  40
ENDBRANCH   6  29
TORSDOF 16
ENDMDL