MODEL 1
REMARK VINA RESULT: -9.534766009      0.000      0.000
REMARK  16 active torsions:
REMARK  status: ('A' for Active; 'I' for Inactive)
REMARK    1  A    between atoms: C2_2  and  C4_4
REMARK    2  A    between atoms: C4_4  and  N1_5
REMARK    3  A    between atoms: C4_4  and  C15_19
REMARK       I    between atoms: N1_5  and  C5_7
REMARK    4  A    between atoms: C5_7  and  C6_9
REMARK    5  A    between atoms: C6_9  and  C7_10
REMARK    6  A    between atoms: C6_9  and  C8_12
REMARK       I    between atoms: C15_19  and  N2_21
REMARK       I    between atoms: N3_26  and  C20_27
REMARK    7  A    between atoms: C20_27  and  C21_29
REMARK    8  A    between atoms: C22_30  and  C23_31
REMARK    9  A    between atoms: C23_31  and  C24_32
REMARK   10  A    between atoms: C24_32  and  C25_33
REMARK       I    between atoms: C25_33  and  N4_35
REMARK   11  A    between atoms: N4_35  and  C26_37
REMARK   12  A    between atoms: C26_37  and  C27_38
REMARK   13  A    between atoms: C26_37  and  C31_46
REMARK   14  A    between atoms: C27_38  and  C28_39
REMARK   15  A    between atoms: C28_39  and  C29_40
REMARK   16  A    between atoms: C29_40  and  N5_41
ROOT
HETATM    1  C15 UNL     1      44.062  -3.154   9.923  1.00  0.00     0.243 C
HETATM    2  O2  UNL     1      44.519  -3.465   8.761  1.00  0.00    -0.271 OA
HETATM    3  N2  UNL     1      42.850  -3.656  10.393  1.00  0.00    -0.348 N
HETATM    4  C16 UNL     1      42.190  -3.436  11.650  1.00  0.00     0.132 C
HETATM    5  C17 UNL     1      41.840  -4.888  12.048  1.00  0.00     0.030 C
HETATM    6  C18 UNL     1      40.427  -5.051  12.485  1.00  0.00     0.028 C
HETATM    7  C19 UNL     1      40.171  -6.519  12.077  1.00  0.00     0.127 C
HETATM    8  N3  UNL     1      40.737  -6.490  10.717  1.00  0.00    -0.342 N
HETATM    9  C20 UNL     1      40.248  -7.192   9.564  1.00  0.00     0.243 C
HETATM   10  O3  UNL     1      40.828  -6.962   8.495  1.00  0.00    -0.268 OA
HETATM   11  C32 UNL     1      41.898  -5.677  10.751  1.00  0.00     0.111 C
HETATM   12  C33 UNL     1      41.963  -4.583   9.703  1.00  0.00     0.151 C
ENDROOT
BRANCH   9  13
HETATM   13  C21 UNL     1      39.147  -8.092   9.726  1.00  0.00     0.070 C
HETATM   14  C22 UNL     1      37.904  -7.773   9.832  1.00  0.00    -0.021 C
BRANCH  14  15
HETATM   15  C23 UNL     1      37.266  -6.450   9.825  1.00  0.00     0.036 C
BRANCH  15  16
HETATM   16  C24 UNL     1      35.863  -6.555  10.407  1.00  0.00     0.106 C
BRANCH  16  17
HETATM   17  C25 UNL     1      35.901  -6.379  11.861  1.00  0.00     0.218 C
HETATM   18  O4  UNL     1      36.843  -5.809  12.429  1.00  0.00    -0.274 OA
HETATM   19  N4  UNL     1      34.800  -6.886  12.652  1.00  0.00    -0.348 N
ATOM     20  H4  UNL     1      34.035  -7.348  12.163  1.00  0.00     0.163 HD
BRANCH  19  21
HETATM   21  C26 UNL     1      34.717  -6.779  14.082  1.00  0.00     0.173 C
BRANCH  21  22
HETATM   22  C27 UNL     1      33.974  -5.530  14.415  1.00  0.00     0.036 C
BRANCH  22  23
HETATM   23  C28 UNL     1      34.310  -4.846  15.689  1.00  0.00     0.022 C
BRANCH  23  24
HETATM   24  C29 UNL     1      34.936  -3.498  15.528  1.00  0.00     0.122 C
BRANCH  24  25
HETATM   25  N5  UNL     1      36.128  -3.695  14.697  1.00  0.00    -0.367 N
HETATM   26  C30 UNL     1      36.694  -2.664  14.213  1.00  0.00     0.196 C
HETATM   27  N6  UNL     1      37.861  -2.776  13.391  1.00  0.00    -0.067 NA
HETATM   28  N7  UNL     1      36.200  -1.335  14.464  1.00  0.00    -0.067 NA
ATOM     29  H5  UNL     1      36.492  -4.629  14.513  1.00  0.00     0.161 HD
ENDBRANCH  24  25
ENDBRANCH  23  24
ENDBRANCH  22  23
ENDBRANCH  21  22
BRANCH  21  30
HETATM   30  C31 UNL     1      34.324  -7.986  14.784  1.00  0.00     0.254 C
HETATM   31  N8  UNL     1      33.182  -8.759  14.501  1.00  0.00    -0.060 NA
HETATM   32  O5  UNL     1      35.077  -8.382  15.745  1.00  0.00    -0.275 OA
ENDBRANCH  21  30
ENDBRANCH  19  21
ENDBRANCH  16  17
ENDBRANCH  15  16
ENDBRANCH  14  15
ENDBRANCH   9  13
BRANCH   1  33
HETATM   33  C4  UNL     1      44.880  -2.235  10.767  1.00  0.00     0.180 C
BRANCH  33  34
HETATM   34  C2  UNL     1      44.734  -0.822  10.316  1.00  0.00     0.009 C
HETATM   35  C1  UNL     1      44.120   0.044  11.358  1.00  0.00     0.012 C
HETATM   36  C3  UNL     1      46.060  -0.203   9.890  1.00  0.00     0.012 C
ENDBRANCH  33  34
BRANCH  33  37
HETATM   37  N1  UNL     1      46.292  -2.599  10.731  1.00  0.00    -0.347 N
HETATM   38  C5  UNL     1      47.138  -2.357  11.845  1.00  0.00     0.223 C
HETATM   39  O1  UNL     1      46.615  -1.821  12.868  1.00  0.00    -0.273 OA
ATOM     40  H1  UNL     1      46.678  -3.033   9.893  1.00  0.00     0.163 HD
BRANCH  38  41
HETATM   41  C6  UNL     1      48.574  -2.684  11.886  1.00  0.00     0.092 C
BRANCH  41  42
HETATM   42  C7  UNL     1      49.309  -1.611  12.724  1.00  0.00     0.100 C
HETATM   43  S1  UNL     1      49.879  -2.324  14.279  1.00  0.00    -0.097 SA
ENDBRANCH  41  42
BRANCH  41  44
HETATM   44  C8  UNL     1      49.208  -2.757  10.511  1.00  0.00    -0.001 C
HETATM   45  C9  UNL     1      50.625  -2.317  10.601  1.00  0.00     0.005 C
HETATM   46  C10 UNL     1      51.362  -2.419   9.279  1.00  0.00     0.000 C
HETATM   47  C11 UNL     1      50.516  -2.064   8.098  1.00  0.00     0.000 C
HETATM   48  C12 UNL     1      49.454  -3.075   7.778  1.00  0.00     0.000 C
HETATM   49  C13 UNL     1      49.545  -4.342   8.583  1.00  0.00     0.000 C
HETATM   50  C14 UNL     1      49.040  -4.155   9.997  1.00  0.00     0.005 C
ENDBRANCH  41  44
ENDBRANCH  38  41
ENDBRANCH  33  37
ENDBRANCH   1  33
TORSDOF 16
ENDMDL