MODEL 4
REMARK VINA RESULT: -8.228888362      4.433      8.949
REMARK  19 active torsions:
REMARK  status: ('A' for Active; 'I' for Inactive)
REMARK    1  A    between atoms: C2_2  and  C3_3
REMARK    2  A    between atoms: C3_3  and  N1_4
REMARK    3  A    between atoms: C3_3  and  C4_8
REMARK       I    between atoms: C4_8  and  N2_10
REMARK       I    between atoms: N3_13  and  C7_14
REMARK       I    between atoms: C7_14  and  N4_16
REMARK    4  A    between atoms: N4_16  and  C8_18
REMARK    5  A    between atoms: C8_18  and  C9_19
REMARK    6  A    between atoms: C8_18  and  C13_27
REMARK    7  A    between atoms: C9_19  and  C10_20
REMARK    8  A    between atoms: C10_20  and  C11_21
REMARK    9  A    between atoms: C11_21  and  N5_22
REMARK       I    between atoms: N5_22  and  C12_24
REMARK       I    between atoms: C13_27  and  N8_29
REMARK   10  A    between atoms: N8_29  and  C14_31
REMARK   11  A    between atoms: C14_31  and  C15_32
REMARK   12  A    between atoms: C14_31  and  C17_34
REMARK   13  A    between atoms: C17_34  and  O4_35
REMARK   14  A    between atoms: C17_34  and  N9_37
REMARK   15  A    between atoms: N9_37  and  C19_39
REMARK   16  A    between atoms: C19_39  and  C20_40
REMARK   17  A    between atoms: C19_39  and  C26_46
REMARK   18  A    between atoms: C26_46  and  C27_47
REMARK   19  A    between atoms: C27_47  and  C28_48
ROOT
HETATM    1  C8  UNL     1      39.311  -5.897  11.987  1.00  0.00     0.178 C
ENDROOT
BRANCH   1   2
HETATM    2  N4  UNL     1      39.166  -4.833  12.940  1.00  0.00    -0.330 N
HETATM    3  C7  UNL     1      38.052  -3.933  13.015  1.00  0.00     0.319 C
HETATM    4  N3  UNL     1      38.007  -2.916  13.993  1.00  0.00    -0.331 N
HETATM    5  O2  UNL     1      37.093  -4.019  12.223  1.00  0.00    -0.247 OA
HETATM    6  C6  UNL     1      36.867  -2.032  14.058  1.00  0.00     0.147 C
HETATM    7  C34 UNL     1      39.081  -2.707  14.959  1.00  0.00     0.147 C
HETATM    8  C5  UNL     1      36.461  -1.720  15.466  1.00  0.00     0.145 C
HETATM    9  N2  UNL     1      37.635  -1.158  16.157  1.00  0.00    -0.347 N
HETATM   10  C4  UNL     1      37.450  -0.508  17.389  1.00  0.00     0.250 C
HETATM   11  C35 UNL     1      38.938  -1.314  15.578  1.00  0.00     0.145 C
HETATM   12  O1  UNL     1      36.267  -0.482  17.852  1.00  0.00    -0.271 OA
ATOM     13  H4  UNL     1      39.916  -4.707  13.619  1.00  0.00     0.165 HD
BRANCH  10  14
HETATM   14  C3  UNL     1      38.485   0.139  18.192  1.00  0.00     0.274 C
BRANCH  14  15
HETATM   15  C2  UNL     1      37.946   0.923  19.383  1.00  0.00     0.038 C
HETATM   16  C1  UNL     1      38.591   0.586  20.681  1.00  0.00     0.007 C
ENDBRANCH  14  15
BRANCH  14  17
HETATM   17  N1  UNL     1      39.278  -0.936  18.848  1.00  0.00    -0.067 N
ATOM     18  H13 UNL     1      39.996  -0.606  19.493  1.00  0.00     0.275 HD
ATOM     19  H12 UNL     1      38.767  -1.485  19.541  1.00  0.00     0.275 HD
ATOM     20  H11 UNL     1      39.628  -1.469  18.052  1.00  0.00     0.275 HD
ENDBRANCH  14  17
ENDBRANCH  10  14
ENDBRANCH   1   2
BRANCH   1  21
HETATM   21  C9  UNL     1      38.345  -5.923  10.868  1.00  0.00     0.036 C
BRANCH  21  22
HETATM   22  C10 UNL     1      37.540  -7.179  10.812  1.00  0.00     0.022 C
BRANCH  22  23
HETATM   23  C11 UNL     1      36.138  -6.848  10.353  1.00  0.00     0.122 C
BRANCH  23  24
HETATM   24  N5  UNL     1      36.115  -5.628   9.564  1.00  0.00    -0.367 N
HETATM   25  C12 UNL     1      35.039  -5.017   9.229  1.00  0.00     0.196 C
HETATM   26  N6  UNL     1      33.730  -5.448   9.583  1.00  0.00    -0.067 NA
HETATM   27  N7  UNL     1      35.156  -3.834   8.452  1.00  0.00    -0.067 NA
ATOM     28  H5  UNL     1      37.005  -5.235   9.259  1.00  0.00     0.161 HD
ENDBRANCH  23  24
ENDBRANCH  22  23
ENDBRANCH  21  22
ENDBRANCH   1  21
BRANCH   1  29
HETATM   29  C13 UNL     1      40.716  -5.908  11.431  1.00  0.00     0.241 C
HETATM   30  O3  UNL     1      41.478  -6.856  11.736  1.00  0.00    -0.271 OA
HETATM   31  N8  UNL     1      41.189  -4.889  10.585  1.00  0.00    -0.347 N
ATOM     32  H8  UNL     1      40.578  -4.112  10.337  1.00  0.00     0.163 HD
BRANCH  31  33
HETATM   33  C14 UNL     1      42.582  -4.938  10.047  1.00  0.00     0.159 C
BRANCH  33  34
HETATM   34  C15 UNL     1      42.588  -5.809   8.844  1.00  0.00     0.029 C
HETATM   35  C16 UNL     1      41.230  -6.162   8.314  1.00  0.00     0.007 C
ENDBRANCH  33  34
BRANCH  33  36
HETATM   36  C17 UNL     1      43.038  -3.569   9.800  1.00  0.00     0.141 C
BRANCH  36  37
HETATM   37  O4  UNL     1      42.806  -3.131   8.550  1.00  0.00    -0.348 OA
ATOM     38  H4  UNL     1      43.590  -3.041   8.021  1.00  0.00     0.219 HD
ENDBRANCH  36  37
BRANCH  36  39
HETATM   39  N9  UNL     1      43.650  -2.605  10.574  1.00  0.00    -0.338 N
HETATM   40  C18 UNL     1      42.868  -2.332  11.861  1.00  0.00     0.158 C
BRANCH  39  41
HETATM   41  C19 UNL     1      44.809  -1.776  10.481  1.00  0.00     0.013 C
BRANCH  41  42
HETATM   42  C20 UNL     1      44.617  -0.477  11.082  1.00  0.00     0.028 C
HETATM   43  C21 UNL     1      45.363   0.349  11.747  1.00  0.00    -0.078 C
HETATM   44  C22 UNL     1      44.845   1.692  12.262  1.00  0.00     0.034 C
HETATM   45  C25 UNL     1      46.760   0.382  12.240  1.00  0.00     0.034 C
HETATM   46  C23 UNL     1      45.934   2.610  11.773  1.00  0.00     0.005 C
HETATM   47  C24 UNL     1      47.215   1.775  11.787  1.00  0.00     0.005 C
ENDBRANCH  41  42
BRANCH  41  48
HETATM   48  C26 UNL     1      46.062  -2.532  10.673  1.00  0.00     0.057 C
BRANCH  48  49
HETATM   49  C27 UNL     1      46.837  -2.899   9.449  1.00  0.00     0.010 C
BRANCH  49  50
HETATM   50  C28 UNL     1      48.317  -2.849   9.599  1.00  0.00    -0.014 C
HETATM   51  C29 UNL     1      49.039  -2.434   8.364  1.00  0.00     0.004 C
HETATM   52  C30 UNL     1      50.504  -2.167   8.686  1.00  0.00     0.000 C
HETATM   53  C31 UNL     1      51.030  -3.213   9.660  1.00  0.00     0.000 C
HETATM   54  C32 UNL     1      50.215  -4.472   9.437  1.00  0.00     0.000 C
HETATM   55  C33 UNL     1      48.797  -4.269   9.924  1.00  0.00     0.004 C
ENDBRANCH  49  50
ENDBRANCH  48  49
ENDBRANCH  41  48
ENDBRANCH  39  41
ENDBRANCH  36  39
ENDBRANCH  33  36
ENDBRANCH  31  33
ENDBRANCH   1  29
TORSDOF 19
ENDMDL