MODEL 3
REMARK VINA RESULT: -6.508754605     10.464     15.599
REMARK  17 active torsions:
REMARK  status: ('A' for Active; 'I' for Inactive)
REMARK    1  A    between atoms: C2_2  and  C3_3
REMARK    2  A    between atoms: C3_3  and  C4_4
REMARK    3  A    between atoms: C4_4  and  C5_5
REMARK    4  A    between atoms: C5_5  and  C6_6
REMARK    5  A    between atoms: C6_6  and  C7_7
REMARK    6  A    between atoms: C8_8  and  N1_9
REMARK    7  A    between atoms: N1_9  and  C9_10
REMARK    8  A    between atoms: C12_15  and  N3_16
REMARK       I    between atoms: N3_16  and  C13_18
REMARK    9  A    between atoms: C13_18  and  C14_20
REMARK   10  A    between atoms: C14_20  and  N4_22
REMARK       I    between atoms: N4_22  and  C16_24
REMARK   11  A    between atoms: C16_24  and  C17_26
REMARK   12  A    between atoms: C19_28  and  C20_29
REMARK       I    between atoms: C20_29  and  N5_31
REMARK   13  A    between atoms: N5_31  and  C21_32
REMARK   14  A    between atoms: N5_31  and  C23_34
REMARK       I    between atoms: N6_38  and  C27_39
REMARK   15  A    between atoms: C27_39  and  C28_41
REMARK   16  A    between atoms: C28_41  and  N7_42
REMARK   17  A    between atoms: C28_41  and  C30_47
REMARK       I    between atoms: N7_42  and  C29_44
ROOT
HETATM    1  C17 UNL     1      49.414  -1.161  13.735  1.00  0.00     0.180 C
HETATM    2  C18 UNL     1      50.818  -1.248  13.134  1.00  0.00     0.049 C
HETATM    3  C19 UNL     1      51.655  -0.166  13.741  1.00  0.00     0.082 C
HETATM    4  C25 UNL     1      51.154   0.551  14.931  1.00  0.00     0.034 C
HETATM    5  C26 UNL     1      50.097  -0.084  15.785  1.00  0.00     0.127 C
HETATM    6  N6  UNL     1      49.614  -1.322  15.130  1.00  0.00    -0.337 N
HETATM    7  C27 UNL     1      49.445  -2.477  15.872  1.00  0.00     0.243 C
HETATM    8  O4  UNL     1      49.093  -3.612  15.398  1.00  0.00    -0.271 OA
ENDROOT
BRANCH   1   9
HETATM    9  C16 UNL     1      48.393  -1.880  13.017  1.00  0.00     0.241 C
HETATM   10  N4  UNL     1      48.746  -2.542  11.774  1.00  0.00    -0.346 N
ATOM     11  H4  UNL     1      49.708  -2.463  11.447  1.00  0.00     0.163 HD
HETATM   12  O2  UNL     1      47.215  -1.997  13.350  1.00  0.00    -0.271 OA
BRANCH  10  13
HETATM   13  C14 UNL     1      47.829  -3.295  10.984  1.00  0.00     0.172 C
HETATM   14  C15 UNL     1      48.430  -3.612   9.641  1.00  0.00     0.042 C
BRANCH  13  15
HETATM   15  C13 UNL     1      46.562  -2.514  10.728  1.00  0.00     0.240 C
HETATM   16  N3  UNL     1      45.267  -3.037  10.925  1.00  0.00    -0.352 N
ATOM     17  H3  UNL     1      45.141  -3.998  11.244  1.00  0.00     0.163 HD
HETATM   18  O1  UNL     1      46.748  -1.316  10.310  1.00  0.00    -0.271 OA
BRANCH  16  19
HETATM   19  C12 UNL     1      44.115  -2.192  10.669  1.00  0.00     0.114 C
HETATM   20  C7  UNL     1      42.820  -2.956  10.802  1.00  0.00     0.092 C
HETATM   21  C8  UNL     1      42.958  -3.858   9.600  1.00  0.00     0.156 C
HETATM   22  N2  UNL     1      43.352  -2.868   8.579  1.00  0.00    -0.366 N
HETATM   23  C11 UNL     1      44.135  -1.834   9.200  1.00  0.00     0.147 C
ATOM     24  H2  UNL     1      43.108  -2.909   7.589  1.00  0.00     0.161 HD
BRANCH  20  25
HETATM   25  C6  UNL     1      42.652  -3.631  12.092  1.00  0.00     0.015 C
BRANCH  25  26
HETATM   26  C5  UNL     1      41.319  -4.268  12.392  1.00  0.00     0.001 C
BRANCH  26  27
HETATM   27  C4  UNL     1      40.208  -3.313  12.501  1.00  0.00     0.000 C
BRANCH  27  28
HETATM   28  C3  UNL     1      39.997  -2.589  13.775  1.00  0.00    -0.000 C
BRANCH  28  29
HETATM   29  C2  UNL     1      38.659  -2.660  14.424  1.00  0.00    -0.005 C
HETATM   30  C1  UNL     1      37.569  -3.344  13.693  1.00  0.00     0.005 C
ENDBRANCH  28  29
ENDBRANCH  27  28
ENDBRANCH  26  27
ENDBRANCH  25  26
ENDBRANCH  20  25
BRANCH  21  31
HETATM   31  N1  UNL     1      42.841  -5.013   9.363  1.00  0.00    -0.409 NA
BRANCH  31  32
HETATM   32  C9  UNL     1      42.601  -6.315   9.104  1.00  0.00     0.152 C
HETATM   33  C10 UNL     1      41.946  -7.114  10.228  1.00  0.00     0.070 C
ENDBRANCH  31  32
ENDBRANCH  21  31
ENDBRANCH  16  19
ENDBRANCH  13  15
ENDBRANCH  10  13
ENDBRANCH   1   9
BRANCH   3  34
HETATM   34  C20 UNL     1      51.813   0.872  12.643  1.00  0.00     0.224 C
HETATM   35  O3  UNL     1      50.869   1.698  12.469  1.00  0.00    -0.273 OA
HETATM   36  N5  UNL     1      52.948   0.960  11.821  1.00  0.00    -0.353 N
BRANCH  36  37
HETATM   37  C21 UNL     1      53.017   2.037  10.817  1.00  0.00     0.121 C
HETATM   38  C22 UNL     1      53.483   1.548   9.488  1.00  0.00     0.026 C
ENDBRANCH  36  37
BRANCH  36  39
HETATM   39  C23 UNL     1      54.010   0.003  11.911  1.00  0.00     0.121 C
HETATM   40  C24 UNL     1      55.169   0.544  12.732  1.00  0.00     0.026 C
ENDBRANCH  36  39
ENDBRANCH   3  34
BRANCH   7  41
HETATM   41  C28 UNL     1      49.660  -2.515  17.354  1.00  0.00     0.182 C
BRANCH  41  42
HETATM   42  N7  UNL     1      48.277  -2.502  17.854  1.00  0.00    -0.332 N
HETATM   43  C29 UNL     1      47.345  -1.539  18.100  1.00  0.00     0.329 C
HETATM   44  N8  UNL     1      46.033  -2.000  18.586  1.00  0.00    -0.040 NA
HETATM   45  O5  UNL     1      47.418  -0.312  17.981  1.00  0.00    -0.251 OA
ATOM     46  H7  UNL     1      47.934  -3.439  18.068  1.00  0.00     0.164 HD
ENDBRANCH  41  42
BRANCH  41  47
HETATM   47  C30 UNL     1      50.288  -3.861  17.749  1.00  0.00     0.018 C
HETATM   48  C31 UNL     1      51.786  -3.852  17.645  1.00  0.00     0.007 C
HETATM   49  C32 UNL     1      52.523  -3.535  18.893  1.00  0.00     0.000 C
HETATM   50  C33 UNL     1      52.315  -4.576  19.965  1.00  0.00     0.000 C
HETATM   51  C34 UNL     1      50.863  -5.017  19.904  1.00  0.00     0.000 C
HETATM   52  C35 UNL     1      50.047  -3.920  19.277  1.00  0.00     0.007 C
ENDBRANCH  41  47
ENDBRANCH   7  41
TORSDOF 17
ENDMDL