MODEL 4
REMARK VINA RESULT: -9.107226693      3.543     12.211
REMARK  16 active torsions:
REMARK  status: ('A' for Active; 'I' for Inactive)
REMARK    1  A    between atoms: C2_2  and  C3_3
REMARK    2  A    between atoms: C3_3  and  C4_4
REMARK    3  A    between atoms: C4_4  and  N1_5
REMARK       I    between atoms: N1_5  and  C5_7
REMARK    4  A    between atoms: C5_7  and  C6_9
REMARK       I    between atoms: N2_13  and  C10_14
REMARK    5  A    between atoms: C10_14  and  C11_16
REMARK    6  A    between atoms: C11_16  and  C12_18
REMARK    7  A    between atoms: C12_18  and  C13_19
REMARK    8  A    between atoms: C12_18  and  N3_26
REMARK    9  A    between atoms: C13_19  and  C14_20
REMARK       I    between atoms: N3_26  and  C20_28
REMARK   10  A    between atoms: C20_28  and  C21_30
REMARK   11  A    between atoms: C21_30  and  C22_31
REMARK   12  A    between atoms: C21_30  and  N4_36
REMARK   13  A    between atoms: C22_31  and  C23_32
REMARK       I    between atoms: N4_36  and  C27_38
REMARK   14  A    between atoms: C27_38  and  C28_40
REMARK   15  A    between atoms: C28_40  and  C29_41
REMARK   16  A    between atoms: C28_40  and  N5_43
REMARK       I    between atoms: N5_43  and  C31_45
REMARK       I    between atoms: C31_45  and  N6_47
ROOT
HETATM    1  N3  UNL     1      46.948  -1.956  12.000  1.00  0.00    -0.344 N
ATOM      2  H3  UNL     1      46.786  -1.345  12.801  1.00  0.00     0.163 HD
HETATM    3  C20 UNL     1      45.931  -2.064  10.982  1.00  0.00     0.264 C
HETATM    4  O4  UNL     1      46.214  -2.844  10.017  1.00  0.00    -0.266 OA
ENDROOT
BRANCH   1   5
HETATM    5  C12 UNL     1      48.190  -2.690  11.917  1.00  0.00     0.165 C
BRANCH   5   6
HETATM    6  C11 UNL     1      48.867  -2.304  13.283  1.00  0.00     0.239 C
HETATM    7  O3  UNL     1      48.107  -2.145  14.238  1.00  0.00    -0.285 OA
BRANCH   6   8
HETATM    8  C10 UNL     1      50.294  -2.162  13.353  1.00  0.00     0.292 C
HETATM    9  N2  UNL     1      50.913  -0.887  13.418  1.00  0.00    -0.332 N
HETATM   10  C6  UNL     1      50.306   0.414  13.423  1.00  0.00     0.179 C
HETATM   11  C9  UNL     1      52.367  -0.751  13.503  1.00  0.00     0.127 C
HETATM   12  C7  UNL     1      51.401   1.297  12.854  1.00  0.00     0.037 C
HETATM   13  C8  UNL     1      52.640   0.707  13.445  1.00  0.00     0.022 C
HETATM   14  O2  UNL     1      51.027  -3.186  13.358  1.00  0.00    -0.264 OA
BRANCH  10  15
HETATM   15  C5  UNL     1      49.950   0.860  14.798  1.00  0.00     0.240 C
HETATM   16  N1  UNL     1      49.767  -0.120  15.798  1.00  0.00    -0.359 N
ATOM     17  H1  UNL     1      49.878  -1.107  15.567  1.00  0.00     0.162 HD
HETATM   18  O1  UNL     1      49.815   2.067  15.079  1.00  0.00    -0.271 OA
BRANCH  16  19
HETATM   19  C4  UNL     1      49.421   0.270  17.157  1.00  0.00     0.122 C
BRANCH  19  20
HETATM   20  C3  UNL     1      48.283  -0.635  17.629  1.00  0.00     0.019 C
BRANCH  20  21
HETATM   21  C2  UNL     1      47.022  -0.164  16.938  1.00  0.00    -0.003 C
HETATM   22  C1  UNL     1      46.002   0.201  17.995  1.00  0.00     0.005 C
ENDBRANCH  20  21
ENDBRANCH  19  20
ENDBRANCH  16  19
ENDBRANCH  10  15
ENDBRANCH   6   8
ENDBRANCH   5   6
BRANCH   5  23
HETATM   23  C13 UNL     1      49.102  -2.206  10.890  1.00  0.00     0.038 C
BRANCH  23  24
HETATM   24  C14 UNL     1      49.615  -2.988   9.774  1.00  0.00    -0.012 C
HETATM   25  C15 UNL     1      50.942  -3.627   9.818  1.00  0.00     0.005 C
HETATM   26  C16 UNL     1      50.888  -4.839   8.873  1.00  0.00     0.000 C
HETATM   27  C17 UNL     1      49.942  -4.589   7.733  1.00  0.00     0.000 C
HETATM   28  C18 UNL     1      49.843  -3.147   7.348  1.00  0.00     0.000 C
HETATM   29  C19 UNL     1      49.554  -2.195   8.447  1.00  0.00     0.005 C
ENDBRANCH  23  24
ENDBRANCH   5  23
ENDBRANCH   1   5
BRANCH   3  30
HETATM   30  C21 UNL     1      44.666  -1.400  10.995  1.00  0.00     0.080 C
BRANCH  30  31
HETATM   31  C22 UNL     1      44.595   0.065  10.958  1.00  0.00     0.067 C
BRANCH  31  32
HETATM   32  C23 UNL     1      45.247   0.761  12.075  1.00  0.00    -0.009 C
HETATM   33  C24 UNL     1      46.438   1.573  11.542  1.00  0.00     0.005 C
HETATM   34  C25 UNL     1      45.740   2.811  12.078  1.00  0.00     0.001 C
HETATM   35  C26 UNL     1      44.783   1.885  12.854  1.00  0.00     0.005 C
ENDBRANCH  31  32
ENDBRANCH  30  31
BRANCH  30  36
HETATM   36  N4  UNL     1      43.536  -2.087  11.566  1.00  0.00    -0.324 N
HETATM   37  C27 UNL     1      42.717  -2.972  10.833  1.00  0.00     0.244 C
HETATM   38  O5  UNL     1      43.039  -3.128   9.601  1.00  0.00    -0.271 OA
ATOM     39  H4  UNL     1      43.318  -1.925  12.549  1.00  0.00     0.169 HD
BRANCH  37  40
HETATM   40  C28 UNL     1      41.559  -3.707  11.350  1.00  0.00     0.178 C
BRANCH  40  41
HETATM   41  C29 UNL     1      41.884  -5.069  11.905  1.00  0.00     0.030 C
HETATM   42  C30 UNL     1      41.758  -6.137  10.819  1.00  0.00     0.007 C
ENDBRANCH  40  41
BRANCH  40  43
HETATM   43  N5  UNL     1      40.957  -2.929  12.414  1.00  0.00    -0.330 N
HETATM   44  C31 UNL     1      39.636  -3.061  12.877  1.00  0.00     0.319 C
HETATM   45  O6  UNL     1      38.911  -3.927  12.320  1.00  0.00    -0.247 OA
HETATM   46  N6  UNL     1      39.069  -2.290  13.918  1.00  0.00    -0.330 N
HETATM   47  C32 UNL     1      39.755  -1.256  14.662  1.00  0.00     0.153 C
HETATM   48  C35 UNL     1      37.667  -2.505  14.336  1.00  0.00     0.153 C
HETATM   49  C33 UNL     1      39.941  -1.812  16.076  1.00  0.00     0.187 C
HETATM   50  O7  UNL     1      38.847  -2.602  16.433  1.00  0.00    -0.388 OA
HETATM   51  C34 UNL     1      37.664  -2.163  15.825  1.00  0.00     0.187 C
ATOM     52  H5  UNL     1      41.541  -2.226  12.866  1.00  0.00     0.165 HD
ENDBRANCH  40  43
ENDBRANCH  37  40
ENDBRANCH  30  36
ENDBRANCH   3  30
TORSDOF 16
ENDMDL