MODEL 5
REMARK VINA RESULT: -9.246939179      1.240      1.721
REMARK  19 active torsions:
REMARK  status: ('A' for Active; 'I' for Inactive)
REMARK    1  A    between atoms: C2_2  and  C3_3
REMARK    2  A    between atoms: C3_3  and  C4_4
REMARK    3  A    between atoms: C4_4  and  C5_5
REMARK    4  A    between atoms: C5_5  and  C6_6
REMARK    5  A    between atoms: C6_6  and  C7_7
REMARK    6  A    between atoms: C7_7  and  N1_8
REMARK    7  A    between atoms: N1_8  and  C8_10
REMARK    8  A    between atoms: C8_10  and  O1_11
REMARK    9  A    between atoms: C8_10  and  C9_13
REMARK   10  A    between atoms: C9_13  and  C10_14
REMARK   11  A    between atoms: C10_14  and  C11_15
REMARK   12  A    between atoms: C11_15  and  C12_16
REMARK   13  A    between atoms: N2_28  and  C23_29
REMARK   14  A    between atoms: C23_29  and  C24_30
REMARK   15  A    between atoms: C24_30  and  N3_31
REMARK       I    between atoms: N3_31  and  C25_33
REMARK   16  A    between atoms: C25_33  and  C26_35
REMARK   17  A    between atoms: C29_38  and  S1_39
REMARK   18  A    between atoms: N5_44  and  C31_45
REMARK   19  A    between atoms: C31_45  and  C32_46
ROOT
HETATM    1  C3  UNL     1      39.944  -7.747  10.510  1.00  0.00     0.125 C
HETATM    2  C22 UNL     1      39.414  -6.714  11.477  1.00  0.00     0.256 C
HETATM    3  O2  UNL     1      40.040  -6.018  12.312  1.00  0.00    -0.270 OA
HETATM    4  N2  UNL     1      38.007  -6.641  11.291  1.00  0.00    -0.253 N
HETATM    5  N5  UNL     1      37.707  -7.190  10.018  1.00  0.00    -0.245 N
HETATM    6  C33 UNL     1      38.952  -7.603   9.425  1.00  0.00     0.257 C
HETATM    7  O7  UNL     1      39.112  -7.792   8.191  1.00  0.00    -0.270 OA
ENDROOT
BRANCH   1   8
HETATM    8  C2  UNL     1      39.779  -9.069  11.216  1.00  0.00     0.025 C
HETATM    9  C1  UNL     1      40.331  -9.062  12.616  1.00  0.00     0.007 C
ENDBRANCH   1   8
BRANCH   1  10
HETATM   10  C4  UNL     1      41.348  -7.430  10.140  1.00  0.00     0.029 C
BRANCH  10  11
HETATM   11  C5  UNL     1      41.456  -6.278   9.205  1.00  0.00     0.003 C
BRANCH  11  12
HETATM   12  C6  UNL     1      42.613  -5.344   9.588  1.00  0.00     0.020 C
BRANCH  12  13
HETATM   13  C7  UNL     1      42.256  -3.963   9.070  1.00  0.00     0.121 C
BRANCH  13  14
HETATM   14  N1  UNL     1      42.346  -2.962  10.170  1.00  0.00    -0.371 N
ATOM     15  H1  UNL     1      41.526  -2.457  10.505  1.00  0.00     0.161 HD
BRANCH  14  16
HETATM   16  C8  UNL     1      43.617  -2.754  10.719  1.00  0.00     0.135 C
BRANCH  16  17
HETATM   17  O1  UNL     1      43.719  -2.832  12.016  1.00  0.00    -0.346 OA
ATOM     18  H1  UNL     1      44.579  -3.029  12.368  1.00  0.00     0.219 HD
ENDBRANCH  16  17
BRANCH  16  19
HETATM   19  C9  UNL     1      44.833  -2.463  10.040  1.00  0.00     0.051 C
BRANCH  19  20
HETATM   20  C10 UNL     1      46.048  -2.872  10.133  1.00  0.00    -0.022 C
BRANCH  20  21
HETATM   21  C11 UNL     1      47.234  -2.360  10.823  1.00  0.00     0.036 C
BRANCH  21  22
HETATM   22  C12 UNL     1      48.469  -2.846  10.076  1.00  0.00    -0.036 C
HETATM   23  C13 UNL     1      48.433  -4.335   9.906  1.00  0.00     0.014 C
HETATM   24  C14 UNL     1      49.699  -4.752   9.185  1.00  0.00    -0.013 C
HETATM   25  C15 UNL     1      50.916  -4.437  10.014  1.00  0.00     0.009 C
HETATM   26  C19 UNL     1      49.852  -4.034   7.865  1.00  0.00     0.009 C
HETATM   27  C16 UNL     1      50.953  -2.959  10.283  1.00  0.00    -0.013 C
HETATM   28  C17 UNL     1      51.112  -2.235   8.962  1.00  0.00     0.009 C
HETATM   29  C21 UNL     1      49.677  -2.476  10.931  1.00  0.00     0.014 C
HETATM   30  C18 UNL     1      49.916  -2.535   8.106  1.00  0.00    -0.013 C
HETATM   31  C20 UNL     1      48.612  -2.141   8.769  1.00  0.00     0.014 C
ENDBRANCH  21  22
ENDBRANCH  20  21
ENDBRANCH  19  20
ENDBRANCH  16  19
ENDBRANCH  14  16
ENDBRANCH  13  14
ENDBRANCH  12  13
ENDBRANCH  11  12
ENDBRANCH  10  11
ENDBRANCH   1  10
BRANCH   4  32
HETATM   32  C23 UNL     1      37.017  -6.125  12.176  1.00  0.00     0.172 C
BRANCH  32  33
HETATM   33  C24 UNL     1      37.141  -4.611  12.375  1.00  0.00     0.145 C
BRANCH  33  34
HETATM   34  N3  UNL     1      36.582  -4.311  13.675  1.00  0.00    -0.354 N
HETATM   35  C25 UNL     1      36.757  -3.034  14.296  1.00  0.00     0.268 C
HETATM   36  O3  UNL     1      37.414  -2.148  13.691  1.00  0.00    -0.266 OA
ATOM     37  H3  UNL     1      36.048  -5.030  14.163  1.00  0.00     0.162 HD
BRANCH  35  38
HETATM   38  C26 UNL     1      36.192  -2.741  15.610  1.00  0.00     0.101 A
HETATM   39  C27 UNL     1      34.920  -2.335  15.874  1.00  0.00     0.038 A
HETATM   40  C28 UNL     1      34.823  -2.172  17.235  1.00  0.00     0.041 A
HETATM   41  C29 UNL     1      36.028  -2.476  17.807  1.00  0.00     0.100 A
HETATM   42  N4  UNL     1      36.845  -2.819  16.803  1.00  0.00    -0.344 N
ATOM     43  H4  UNL     1      37.819  -3.099  16.917  1.00  0.00     0.167 HD
BRANCH  41  44
HETATM   44  S1  UNL     1      36.455  -2.429  19.525  1.00  0.00     0.062 S
HETATM   45  C30 UNL     1      36.613  -0.715  20.036  1.00  0.00     0.134 C
HETATM   46  O4  UNL     1      35.281  -3.203  20.445  1.00  0.00    -0.252 OA
ENDBRANCH  41  44
ENDBRANCH  35  38
ENDBRANCH  33  34
ENDBRANCH  32  33
ENDBRANCH   4  32
BRANCH   5  47
HETATM   47  C31 UNL     1      36.447  -7.337   9.370  1.00  0.00     0.265 C
BRANCH  47  48
HETATM   48  C32 UNL     1      35.877  -6.097   8.856  1.00  0.00     0.193 C
HETATM   49  O5  UNL     1      36.212  -5.659   7.735  1.00  0.00    -0.647 OA
HETATM   50  O6  UNL     1      34.955  -5.385   9.598  1.00  0.00    -0.647 OA
ENDBRANCH  47  48
ENDBRANCH   5  47
TORSDOF 19
ENDMDL