MODEL 2
REMARK VINA RESULT: -6.092993957      1.302      2.297
REMARK  19 active torsions:
REMARK  status: ('A' for Active; 'I' for Inactive)
REMARK    1  A    between atoms: C2_2  and  C3_3
REMARK    2  A    between atoms: C3_3  and  C4_4
REMARK    3  A    between atoms: C4_4  and  C5_5
REMARK    4  A    between atoms: C5_5  and  C6_6
REMARK    5  A    between atoms: C6_6  and  C7_7
REMARK    6  A    between atoms: C8_10  and  O1_11
REMARK    7  A    between atoms: C11_15  and  C12_16
REMARK    8  A    between atoms: C12_16  and  N4_22
REMARK    9  A    between atoms: N2_17  and  N3_19
REMARK   10  A    between atoms: N4_22  and  C13_24
REMARK   11  A    between atoms: C13_24  and  C14_25
REMARK   12  A    between atoms: C13_24  and  C18_29
REMARK   13  A    between atoms: C14_25  and  C15_26
REMARK   14  A    between atoms: C22_38  and  C23_39
REMARK   15  A    between atoms: C23_39  and  C24_40
REMARK   16  A    between atoms: C24_40  and  C25_41
REMARK   17  A    between atoms: C25_41  and  C26_42
REMARK   18  A    between atoms: C26_42  and  C27_43
REMARK   19  A    between atoms: C35_54  and  O5_55
ROOT
HETATM    1  C7  UNL     1      46.418   0.172  18.924  1.00  0.00     0.062 C
HETATM    2  N1  UNL     1      46.360  -0.203  17.531  1.00  0.00    -0.339 N
ATOM      3  H1  UNL     1      45.443  -0.580  17.293  1.00  0.00     0.167 HD
HETATM    4  C8  UNL     1      47.183  -0.195  16.439  1.00  0.00     0.139 C
HETATM    5  C9  UNL     1      48.311  -0.962  15.894  1.00  0.00     0.162 C
HETATM    6  C10 UNL     1      47.896  -1.534  14.528  1.00  0.00     0.047 C
HETATM    7  C11 UNL     1      48.574  -0.948  13.348  1.00  0.00     0.069 C
HETATM    8  C19 UNL     1      48.898  -2.078  12.400  1.00  0.00     0.085 C
HETATM    9  C20 UNL     1      48.832  -1.697  10.939  1.00  0.00     0.020 C
HETATM   10  C21 UNL     1      50.194  -2.746  12.653  1.00  0.00     0.223 C
HETATM   11  O3  UNL     1      50.981  -2.969  11.652  1.00  0.00    -0.273 OA
HETATM   12  N6  UNL     1      50.695  -3.189  13.892  1.00  0.00    -0.347 N
ATOM     13  H6  UNL     1      50.896  -4.187  13.954  1.00  0.00     0.163 HD
HETATM   14  C22 UNL     1      50.962  -2.429  15.080  1.00  0.00     0.176 C
HETATM   15  C29 UNL     1      49.910  -2.792  16.074  1.00  0.00     0.243 C
HETATM   16  O4  UNL     1      49.932  -4.034  16.416  1.00  0.00    -0.271 OA
HETATM   17  N7  UNL     1      48.941  -1.953  16.653  1.00  0.00    -0.336 N
HETATM   18  C30 UNL     1      48.692  -2.202  18.097  1.00  0.00     0.152 C
HETATM   19  C31 UNL     1      49.473  -1.174  18.794  1.00  0.00     0.104 C
HETATM   20  C32 UNL     1      50.596  -1.900  19.565  1.00  0.00     0.028 C
HETATM   21  C33 UNL     1      50.932  -0.782  20.563  1.00  0.00     0.022 C
HETATM   22  C34 UNL     1      49.531  -0.541  21.055  1.00  0.00     0.125 C
HETATM   23  N8  UNL     1      48.805  -0.361  19.771  1.00  0.00    -0.354 N
HETATM   24  C35 UNL     1      47.678   0.467  19.538  1.00  0.00     0.161 C
ENDROOT
BRANCH   7  25
HETATM   25  C12 UNL     1      47.707   0.055  12.630  1.00  0.00     0.097 C
HETATM   26  N2  UNL     1      48.175   1.232  12.464  1.00  0.00    -0.295 N
ATOM     27  H2  UNL     1      47.617   1.937  11.981  1.00  0.00     0.187 HD
BRANCH  26  28
HETATM   28  N3  UNL     1      49.438   1.556  12.934  1.00  0.00    -0.344 N
ATOM     29  H32 UNL     1      49.928   2.350  12.523  1.00  0.00     0.176 HD
ATOM     30  H31 UNL     1      49.866   1.007  13.680  1.00  0.00     0.176 HD
ENDBRANCH  26  28
BRANCH  25  31
HETATM   31  N4  UNL     1      46.428  -0.324  12.151  1.00  0.00    -0.365 N
ATOM     32  H4  UNL     1      46.068  -1.221  12.475  1.00  0.00     0.161 HD
BRANCH  31  33
HETATM   33  C13 UNL     1      45.587   0.419  11.261  1.00  0.00     0.172 C
BRANCH  33  34
HETATM   34  C14 UNL     1      44.951  -0.421  10.189  1.00  0.00     0.039 C
BRANCH  34  35
HETATM   35  C15 UNL     1      45.097  -1.884  10.528  1.00  0.00    -0.012 A
HETATM   36  C16 UNL     1      43.934  -2.643  11.054  1.00  0.00     0.005 A
HETATM   37  C17 UNL     1      44.327  -2.816   9.583  1.00  0.00     0.005 A
ENDBRANCH  34  35
ENDBRANCH  33  34
BRANCH  33  38
HETATM   38  C18 UNL     1      44.521   1.135  12.010  1.00  0.00     0.253 C
HETATM   39  N5  UNL     1      44.612   1.691  13.293  1.00  0.00    -0.060 NA
HETATM   40  O2  UNL     1      43.385   1.267  11.434  1.00  0.00    -0.275 OA
ENDBRANCH  33  38
ENDBRANCH  31  33
ENDBRANCH  25  31
ENDBRANCH   7  25
BRANCH   4  41
HETATM   41  O1  UNL     1      46.938   0.765  15.577  1.00  0.00    -0.348 OA
ATOM     42  H1  UNL     1      46.731   0.464  14.700  1.00  0.00     0.219 HD
ENDBRANCH   4  41
BRANCH  14  43
HETATM   43  C23 UNL     1      52.264  -2.926  15.749  1.00  0.00     0.035 C
BRANCH  43  44
HETATM   44  C24 UNL     1      52.868  -1.828  16.632  1.00  0.00     0.002 C
BRANCH  44  45
HETATM   45  C25 UNL     1      52.546  -0.470  16.121  1.00  0.00     0.000 C
BRANCH  45  46
HETATM   46  C26 UNL     1      52.363   0.543  17.186  1.00  0.00    -0.000 C
BRANCH  46  47
HETATM   47  C27 UNL     1      51.224   1.478  17.150  1.00  0.00    -0.005 C
HETATM   48  C28 UNL     1      50.918   2.305  18.335  1.00  0.00     0.005 C
ENDBRANCH  46  47
ENDBRANCH  45  46
ENDBRANCH  44  45
ENDBRANCH  43  44
ENDBRANCH  14  43
BRANCH   1  49
HETATM   49  C6  UNL     1      45.489  -0.724  19.770  1.00  0.00     0.062 C
BRANCH  49  50
HETATM   50  C5  UNL     1      45.421  -2.121  19.292  1.00  0.00     0.006 C
BRANCH  50  51
HETATM   51  C4  UNL     1      45.904  -3.025  20.409  1.00  0.00     0.000 C
BRANCH  51  52
HETATM   52  C3  UNL     1      46.047  -4.458  20.040  1.00  0.00    -0.000 C
BRANCH  52  53
HETATM   53  C2  UNL     1      47.501  -4.831  20.380  1.00  0.00    -0.005 C
HETATM   54  C1  UNL     1      47.971  -3.872  21.482  1.00  0.00     0.005 C
ENDBRANCH  52  53
ENDBRANCH  51  52
ENDBRANCH  50  51
ENDBRANCH  49  50
ENDBRANCH   1  49
BRANCH  24  55
HETATM   55  O5  UNL     1      47.864   1.685  19.973  1.00  0.00    -0.345 OA
ATOM     56  H5  UNL     1      48.749   2.028  19.945  1.00  0.00     0.219 HD
ENDBRANCH  24  55
TORSDOF 19
ENDMDL