MODEL 5
REMARK VINA RESULT: -6.767023378      2.459      3.223
REMARK  5 active torsions:
REMARK  status: ('A' for Active; 'I' for Inactive)
REMARK    1  A    between atoms: C4_5  and  N1_6
REMARK    2  A    between atoms: N1_6  and  C5_8
REMARK    3  A    between atoms: C5_8  and  C6_9
REMARK    4  A    between atoms: C5_8  and  C7_11
REMARK    5  A    between atoms: C7_11  and  C8_12
ROOT
HETATM    1  C1  UNL     1      -6.609  -9.877 -18.850  1.00  0.00     0.051 C
HETATM    2  C2  UNL     1      -7.485  -9.878 -17.652  1.00  0.00    -0.015 A
HETATM    3  C3  UNL     1      -7.206  -9.068 -16.571  1.00  0.00     0.062 A
HETATM    4 BR1  UNL     1      -5.638  -7.959 -16.713  1.00  0.00    -0.046 Br
HETATM    5  C4  UNL     1      -7.993  -9.038 -15.439  1.00  0.00     0.122 A
HETATM    6  N2  UNL     1      -9.063  -9.845 -15.428  1.00  0.00    -0.307 N
ATOM      7  H2  UNL     1      -9.669  -9.851 -14.608  1.00  0.00     0.170 HD
HETATM    8  C11 UNL     1      -9.368 -10.659 -16.482  1.00  0.00     0.268 A
HETATM    9  O1  UNL     1     -10.385 -11.418 -16.461  1.00  0.00    -0.266 OA
HETATM   10  C12 UNL     1      -8.597 -10.700 -17.615  1.00  0.00     0.119 A
HETATM   11  C13 UNL     1      -8.898 -11.550 -18.739  1.00  0.00     0.105 C
HETATM   12  N3  UNL     1      -9.142 -12.234 -19.637  1.00  0.00    -0.191 NA
ENDROOT
BRANCH   5  13
HETATM   13  N1  UNL     1      -7.641  -8.219 -14.374  1.00  0.00    -0.369 N
ATOM     14  H1  UNL     1      -7.057  -8.628 -13.645  1.00  0.00     0.161 HD
BRANCH  13  15
HETATM   15  C5  UNL     1      -8.037  -6.809 -14.203  1.00  0.00     0.097 C
BRANCH  15  16
HETATM   16  C6  UNL     1      -8.932  -6.840 -12.987  1.00  0.00     0.139 C
HETATM   17 CL1  UNL     1      -8.279  -5.733 -11.738  1.00  0.00    -0.128 Cl
ENDBRANCH  15  16
BRANCH  15  18
HETATM   18  C7  UNL     1      -8.630  -6.264 -15.431  1.00  0.00     0.030 C
BRANCH  18  19
HETATM   19  C8  UNL     1      -8.156  -4.992 -15.998  1.00  0.00    -0.021 C
HETATM   20  C9  UNL     1      -9.162  -3.897 -15.579  1.00  0.00     0.009 C
HETATM   21  C10 UNL     1      -6.824  -4.461 -15.646  1.00  0.00     0.009 C
ENDBRANCH  18  19
ENDBRANCH  15  18
ENDBRANCH  13  15
ENDBRANCH   5  13
TORSDOF 5
ENDMDL