MODEL 3
REMARK VINA RESULT: -8.017986766      3.039      7.098
REMARK  5 active torsions:
REMARK  status: ('A' for Active; 'I' for Inactive)
REMARK    1  A    between atoms: C2_2  and  C3_3
REMARK    2  A    between atoms: C3_3  and  N1_5
REMARK    3  A    between atoms: N1_5  and  C5_7
REMARK    4  A    between atoms: C7_11  and  S1_12
REMARK    5  A    between atoms: S1_12  and  C8_13
ROOT
HETATM    1  C5  UNL     1      -8.184  -9.134 -15.504  1.00  0.00     0.141 A
HETATM    2  N2  UNL     1      -7.442  -8.772 -16.560  1.00  0.00    -0.349 N
ATOM      3  H2  UNL     1      -7.130  -9.494 -17.211  1.00  0.00     0.167 HD
HETATM    4  C6  UNL     1      -7.094  -7.497 -16.795  1.00  0.00     0.109 A
HETATM    5  C7  UNL     1      -7.477  -6.455 -15.960  1.00  0.00     0.031 A
HETATM    6  C15 UNL     1      -8.230  -6.780 -14.880  1.00  0.00    -0.001 A
HETATM    7  C16 UNL     1      -8.712  -5.747 -13.943  1.00  0.00     0.053 C
HETATM    8  C17 UNL     1      -8.584  -8.100 -14.646  1.00  0.00     0.167 A
HETATM    9  F2  UNL     1      -9.343  -8.399 -13.549  1.00  0.00    -0.202 F
ENDROOT
BRANCH   5  10
HETATM   10  S1  UNL     1      -6.971  -4.778 -16.392  1.00  0.00    -0.067 SA
BRANCH  10  11
HETATM   11  C8  UNL     1      -5.705  -4.772 -17.623  1.00  0.00     0.120 A
HETATM   12  N3  UNL     1      -5.997  -4.545 -18.939  1.00  0.00    -0.328 N
HETATM   13  C9  UNL     1      -5.078  -4.511 -19.888  1.00  0.00     0.162 A
ATOM     14  H3  UNL     1      -6.970  -4.393 -19.200  1.00  0.00     0.168 HD
HETATM   15  O1  UNL     1      -5.128  -4.314 -21.185  1.00  0.00    -0.305 OA
HETATM   16  C12 UNL     1      -3.749  -4.717 -19.545  1.00  0.00     0.070 A
HETATM   17  C10 UNL     1      -3.925  -4.378 -21.699  1.00  0.00     0.145 A
HETATM   18  C11 UNL     1      -3.002  -4.633 -20.706  1.00  0.00     0.044 A
HETATM   19  C13 UNL     1      -3.409  -4.948 -18.248  1.00  0.00     0.227 A
HETATM   20  O2  UNL     1      -2.222  -5.139 -17.896  1.00  0.00    -0.284 OA
HETATM   21  C14 UNL     1      -4.397  -4.976 -17.277  1.00  0.00     0.201 A
HETATM   22  F1  UNL     1      -4.005  -5.186 -16.013  1.00  0.00    -0.199 F
ENDBRANCH  10  11
ENDBRANCH   5  10
BRANCH   1  23
HETATM   23  N1  UNL     1      -8.520 -10.347 -15.272  1.00  0.00    -0.369 N
ATOM     24  H1  UNL     1      -8.013 -10.864 -14.554  1.00  0.00     0.161 HD
BRANCH  23  25
HETATM   25  C3  UNL     1      -9.570 -11.006 -15.971  1.00  0.00     0.078 C
HETATM   26  C4  UNL     1     -10.886 -10.679 -15.252  1.00  0.00     0.032 C
BRANCH  25  27
HETATM   27  C2  UNL     1      -9.659 -10.585 -17.426  1.00  0.00     0.020 C
HETATM   28  C1  UNL     1      -8.960 -11.647 -18.249  1.00  0.00     0.007 C
ENDBRANCH  25  27
ENDBRANCH  23  25
ENDBRANCH   1  23
TORSDOF 5
ENDMDL