MODEL 2
REMARK VINA RESULT: -8.376290130      1.291      1.726
REMARK  4 active torsions:
REMARK  status: ('A' for Active; 'I' for Inactive)
REMARK    1  A    between atoms: C9_9  and  N1_10
REMARK    2  A    between atoms: C11_14  and  C12_15
REMARK    3  A    between atoms: C12_15  and  C13_17
REMARK    4  A    between atoms: C13_17  and  C14_18
ROOT
HETATM    1  N1  UNL     1      -4.467  -4.818 -16.954  1.00  0.00    -0.271 N
HETATM    2  N2  UNL     1      -3.834  -5.761 -16.282  1.00  0.00    -0.307 N
ATOM      3  H2  UNL     1      -2.986  -6.236 -16.592  1.00  0.00     0.186 HD
HETATM    4  C10 UNL     1      -4.478  -6.000 -15.123  1.00  0.00     0.126 A
HETATM    5  C11 UNL     1      -5.563  -5.186 -15.041  1.00  0.00     0.071 A
HETATM    6  C19 UNL     1      -5.542  -4.427 -16.239  1.00  0.00     0.131 A
HETATM    7  N3  UNL     1      -6.419  -3.589 -16.514  1.00  0.00    -0.383 N
ATOM      8  H31 UNL     1      -7.232  -3.294 -15.973  1.00  0.00     0.157 HD
ATOM      9  H32 UNL     1      -6.404  -3.044 -17.375  1.00  0.00     0.157 HD
ENDROOT
BRANCH   5  10
HETATM   10  C12 UNL     1      -6.547  -5.056 -13.973  1.00  0.00     0.165 C
HETATM   11  O1  UNL     1      -6.241  -4.458 -12.924  1.00  0.00    -0.292 OA
BRANCH  10  12
HETATM   12  C13 UNL     1      -7.885  -5.634 -14.150  1.00  0.00     0.089 C
BRANCH  12  13
HETATM   13  C14 UNL     1      -7.955  -7.081 -14.434  1.00  0.00    -0.001 C
HETATM   14  C15 UNL     1      -9.067  -7.777 -13.636  1.00  0.00     0.011 C
HETATM   15  C16 UNL     1      -8.967  -9.181 -14.191  1.00  0.00     0.079 C
HETATM   16  C17 UNL     1      -8.399  -9.041 -15.610  1.00  0.00     0.244 C
HETATM   17  F1  UNL     1      -9.215  -9.611 -16.547  1.00  0.00    -0.206 F
HETATM   18  F2  UNL     1      -7.118  -9.531 -15.648  1.00  0.00    -0.206 F
HETATM   19  C18 UNL     1      -8.292  -7.512 -15.814  1.00  0.00     0.084 C
ENDBRANCH  12  13
ENDBRANCH  10  12
ENDBRANCH   5  10
BRANCH   1  20
HETATM   20  C9  UNL     1      -3.983  -4.347 -18.243  1.00  0.00     0.118 C
HETATM   21  C2  UNL     1      -4.407  -5.259 -19.358  1.00  0.00    -0.021 C
HETATM   22  C1  UNL     1      -5.777  -4.857 -19.905  1.00  0.00     0.017 C
HETATM   23  C3  UNL     1      -4.431  -6.683 -18.861  1.00  0.00     0.017 C
HETATM   24  C4  UNL     1      -3.476  -5.154 -20.554  1.00  0.00    -0.004 C
HETATM   25  C5  UNL     1      -3.070  -3.697 -20.707  1.00  0.00     0.010 C
HETATM   26  C7  UNL     1      -2.046  -5.440 -20.175  1.00  0.00     0.010 C
HETATM   27  C6  UNL     1      -2.012  -3.973 -19.701  1.00  0.00    -0.012 C
HETATM   28  C8  UNL     1      -2.530  -4.061 -18.267  1.00  0.00     0.033 C
ENDBRANCH   1  20
TORSDOF 4
ENDMDL