MODEL 1
REMARK VINA RESULT: -7.885230113      0.000      0.000
REMARK  7 active torsions:
REMARK  status: ('A' for Active; 'I' for Inactive)
REMARK    1  A    between atoms: C2_2  and  C3_3
REMARK    2  A    between atoms: C3_3  and  C4_4
REMARK       I    between atoms: C4_4  and  N1_6
REMARK    3  A    between atoms: N1_6  and  C5_8
REMARK    4  A    between atoms: C6_11  and  C7_12
REMARK    5  A    between atoms: C7_12  and  C10_15
REMARK    6  A    between atoms: C11_19  and  N3_20
REMARK       I    between atoms: N3_20  and  C12_22
REMARK    7  A    between atoms: C12_22  and  C13_24
ROOT
HETATM    1  C5  UNL     1      -8.306  -9.284 -15.270  1.00  0.00     0.153 A
HETATM    2  N2  UNL     1      -8.788  -8.322 -14.477  1.00  0.00    -0.337 N
ATOM      3  H2  UNL     1      -9.619  -8.484 -13.908  1.00  0.00     0.168 HD
HETATM    4  C6  UNL     1      -8.169  -7.165 -14.445  1.00  0.00     0.062 A
HETATM    5  C11 UNL     1      -7.055  -7.037 -15.248  1.00  0.00     0.103 A
HETATM    6  S1  UNL     1      -6.952  -8.553 -15.993  1.00  0.00    -0.034 SA
ENDROOT
BRANCH   1   7
HETATM    7  N1  UNL     1      -8.772 -10.507 -15.448  1.00  0.00    -0.307 N
HETATM    8  C4  UNL     1      -9.953 -10.763 -16.147  1.00  0.00     0.223 C
HETATM    9  O1  UNL     1     -11.024 -10.899 -15.496  1.00  0.00    -0.273 OA
ATOM     10  H1  UNL     1      -8.249 -11.292 -15.061  1.00  0.00     0.171 HD
BRANCH   8  11
HETATM   11  C3  UNL     1     -10.032 -10.889 -17.624  1.00  0.00     0.103 C
BRANCH  11  12
HETATM   12  C2  UNL     1      -8.925 -11.766 -18.164  1.00  0.00     0.005 C
HETATM   13  C1  UNL     1      -7.960 -10.892 -18.930  1.00  0.00     0.005 C
ENDBRANCH  11  12
ENDBRANCH   8  11
ENDBRANCH   1   7
BRANCH   4  14
HETATM   14  C7  UNL     1      -8.644  -6.013 -13.578  1.00  0.00     0.095 C
HETATM   15  C8  UNL     1     -10.024  -6.234 -13.078  1.00  0.00     0.031 C
HETATM   16  C9  UNL     1      -8.672  -4.720 -14.405  1.00  0.00     0.031 C
BRANCH  14  17
HETATM   17  C10 UNL     1      -7.722  -5.736 -12.433  1.00  0.00     0.400 C
HETATM   18  F1  UNL     1      -6.787  -4.753 -12.710  1.00  0.00    -0.170 F
HETATM   19  F2  UNL     1      -8.455  -5.215 -11.346  1.00  0.00    -0.170 F
HETATM   20  F3  UNL     1      -7.187  -6.903 -11.952  1.00  0.00    -0.170 F
ENDBRANCH  14  17
ENDBRANCH   4  14
BRANCH   5  21
HETATM   21  N3  UNL     1      -6.188  -5.930 -15.434  1.00  0.00    -0.319 N
HETATM   22  C12 UNL     1      -6.239  -5.166 -16.627  1.00  0.00     0.226 C
HETATM   23  O2  UNL     1      -7.066  -5.489 -17.514  1.00  0.00    -0.273 OA
ATOM     24  H3  UNL     1      -5.522  -5.681 -14.704  1.00  0.00     0.169 HD
BRANCH  22  25
HETATM   25  C13 UNL     1      -5.356  -4.004 -16.868  1.00  0.00     0.070 C
HETATM   26  C14 UNL     1      -4.047  -4.533 -17.414  1.00  0.00     0.019 C
HETATM   27  C15 UNL     1      -5.157  -3.298 -15.541  1.00  0.00     0.019 C
ENDBRANCH  22  25
ENDBRANCH   5  21
TORSDOF 7
ENDMDL