MODEL 5
REMARK VINA RESULT: -7.694965385      1.782      2.113
REMARK  5 active torsions:
REMARK  status: ('A' for Active; 'I' for Inactive)
REMARK    1  A    between atoms: C2_2  and  C3_3
REMARK    2  A    between atoms: C3_3  and  N1_5
REMARK    3  A    between atoms: N1_5  and  C5_7
REMARK    4  A    between atoms: C8_10  and  C9_11
REMARK    5  A    between atoms: C16_23  and  C17_24
ROOT
HETATM    1  C5  UNL     1      -7.847  -9.042 -15.844  1.00  0.00     0.101 A
HETATM    2  C6  UNL     1      -6.979  -9.446 -16.828  1.00  0.00     0.049 A
HETATM    3  C7  UNL     1      -6.153  -8.504 -17.402  1.00  0.00     0.018 A
HETATM    4  C8  UNL     1      -6.196  -7.161 -16.992  1.00  0.00     0.000 A
HETATM    5  C16 UNL     1      -7.064  -6.798 -16.014  1.00  0.00     0.025 A
HETATM    6  N3  UNL     1      -7.866  -7.745 -15.468  1.00  0.00    -0.345 N
ATOM      7  H3  UNL     1      -8.516  -7.463 -14.735  1.00  0.00     0.167 HD
ENDROOT
BRANCH   4   8
HETATM    8  C9  UNL     1      -5.322  -6.278 -17.746  1.00  0.00     0.017 A
HETATM    9  C10 UNL     1      -4.016  -6.063 -17.388  1.00  0.00     0.054 A
HETATM   10  C11 UNL     1      -3.209  -5.166 -18.087  1.00  0.00     0.101 A
HETATM   11  C12 UNL     1      -3.707  -4.469 -19.157  1.00  0.00     0.068 A
HETATM   12  O1  UNL     1      -1.892  -4.792 -17.917  1.00  0.00    -0.296 OA
HETATM   13  C13 UNL     1      -5.033  -4.674 -19.534  1.00  0.00     0.075 A
HETATM   14  N2  UNL     1      -2.684  -3.624 -19.686  1.00  0.00    -0.336 N
HETATM   15  C14 UNL     1      -5.815  -5.574 -18.822  1.00  0.00     0.129 A
HETATM   16  F1  UNL     1      -7.112  -5.757 -19.213  1.00  0.00    -0.205 F
HETATM   17  C15 UNL     1      -1.576  -3.699 -18.760  1.00  0.00     0.421 C
ATOM     18  H2  UNL     1      -2.727  -3.078 -20.546  1.00  0.00     0.165 HD
HETATM   19  F2  UNL     1      -0.430  -3.958 -19.489  1.00  0.00    -0.195 F
ENDBRANCH   4   8
BRANCH   5  20
HETATM   20  C17 UNL     1      -7.098  -5.413 -15.494  1.00  0.00     0.028 C
HETATM   21  C18 UNL     1      -8.357  -4.693 -15.963  1.00  0.00     0.016 C
HETATM   22  C19 UNL     1      -7.196  -5.445 -13.954  1.00  0.00     0.016 C
ENDBRANCH   5  20
BRANCH   1  23
HETATM   23  N1  UNL     1      -8.623  -9.903 -15.297  1.00  0.00    -0.372 N
ATOM     24  H1  UNL     1      -8.352 -10.309 -14.401  1.00  0.00     0.161 HD
BRANCH  23  25
HETATM   25  C3  UNL     1      -9.851 -10.315 -15.895  1.00  0.00     0.078 C
HETATM   26  C4  UNL     1     -10.977 -10.416 -14.855  1.00  0.00     0.032 C
BRANCH  25  27
HETATM   27  C2  UNL     1      -9.589 -11.721 -16.453  1.00  0.00     0.020 C
HETATM   28  C1  UNL     1      -9.275 -11.712 -17.914  1.00  0.00     0.007 C
ENDBRANCH  25  27
ENDBRANCH  23  25
ENDBRANCH   1  23
TORSDOF 5
ENDMDL