MODEL 1
REMARK VINA RESULT: -7.934015180      0.000      0.000
REMARK  5 active torsions:
REMARK  status: ('A' for Active; 'I' for Inactive)
REMARK    1  A    between atoms: C2_2  and  C3_3
REMARK    2  A    between atoms: N1_4  and  C4_6
REMARK    3  A    between atoms: C8_13  and  N4_14
REMARK    4  A    between atoms: N5_17  and  C9_18
REMARK    5  A    between atoms: C9_18  and  C10_19
ROOT
HETATM    1  C4  UNL     1      -8.177  -6.874 -15.213  1.00  0.00     0.145 A
HETATM    2  C5  UNL     1      -8.810  -7.316 -14.080  1.00  0.00     0.105 A
HETATM    3  C6  UNL     1      -9.198  -6.446 -12.981  1.00  0.00     0.104 C
HETATM    4  N2  UNL     1      -9.509  -5.779 -12.095  1.00  0.00    -0.191 NA
HETATM    5  C7  UNL     1      -9.093  -8.667 -13.985  1.00  0.00     0.132 A
HETATM    6  N3  UNL     1      -8.774  -9.536 -14.942  1.00  0.00    -0.200 N
ATOM      7  H3  UNL     1      -9.001 -10.523 -14.829  1.00  0.00     0.183 HD
HETATM    8  C8  UNL     1      -8.137  -9.101 -16.084  1.00  0.00     0.679 A
HETATM    9  N5  UNL     1      -7.866  -7.817 -16.182  1.00  0.00    -0.163 N
ENDROOT
BRANCH   1  10
HETATM   10  N1  UNL     1      -7.852  -5.684 -15.360  1.00  0.00    -0.354 N
HETATM   11  C3  UNL     1      -7.473  -4.517 -14.784  1.00  0.00     0.062 C
ATOM     12  H1  UNL     1      -7.885  -5.505 -16.364  1.00  0.00     0.166 HD
BRANCH  11  13
HETATM   13  C2  UNL     1      -5.990  -4.344 -14.494  1.00  0.00     0.040 C
HETATM   14  C1  UNL     1      -5.390  -3.238 -15.324  1.00  0.00     0.010 C
ENDBRANCH  11  13
ENDBRANCH   1  10
BRANCH   9  15
HETATM   15  C9  UNL     1      -7.241  -7.265 -17.372  1.00  0.00     0.183 C
BRANCH  15  16
HETATM   16  C10 UNL     1      -5.833  -6.882 -17.223  1.00  0.00    -0.063 C
HETATM   17  C11 UNL     1      -4.983  -7.727 -16.298  1.00  0.00     0.045 C
HETATM   18  C12 UNL     1      -5.211  -5.866 -17.787  1.00  0.00    -0.075 C
HETATM   19  C13 UNL     1      -5.865  -4.910 -18.701  1.00  0.00     0.040 C
HETATM   20  C18 UNL     1      -3.749  -5.603 -17.535  1.00  0.00     0.044 C
HETATM   21  C14 UNL     1      -5.195  -5.025 -20.069  1.00  0.00     0.084 C
HETATM   22  C15 UNL     1      -3.716  -4.915 -19.917  1.00  0.00     0.247 C
HETATM   23  F1  UNL     1      -3.217  -3.935 -20.777  1.00  0.00    -0.206 F
HETATM   24  F2  UNL     1      -3.124  -6.100 -20.324  1.00  0.00    -0.206 F
HETATM   25  C16 UNL     1      -3.290  -4.550 -18.518  1.00  0.00     0.058 C
HETATM   26  C17 UNL     1      -1.765  -4.436 -18.498  1.00  0.00     0.016 C
ENDBRANCH  15  16
ENDBRANCH   9  15
BRANCH   8  27
HETATM   27  N4  UNL     1      -7.838 -10.001 -16.960  1.00  0.00    -0.234 N
ATOM     28  H42 UNL     1      -7.910 -11.010 -16.823  1.00  0.00     0.174 HD
ATOM     29  H41 UNL     1      -7.518  -9.668 -17.870  1.00  0.00     0.174 HD
ENDBRANCH   8  27
TORSDOF 5
ENDMDL