MODEL 2
REMARK VINA RESULT: -7.208461844      4.905      8.539
REMARK  7 active torsions:
REMARK  status: ('A' for Active; 'I' for Inactive)
REMARK    1  A    between atoms: N1_2  and  C2_4
REMARK    2  A    between atoms: C2_4  and  C3_5
REMARK    3  A    between atoms: C3_5  and  C6_8
REMARK    4  A    between atoms: C7_9  and  C8_10
REMARK    5  A    between atoms: C12_14  and  C13_15
REMARK    6  A    between atoms: C13_15  and  O1_16
REMARK    7  A    between atoms: C13_15  and  C14_18
ROOT
HETATM    1  C8  UNL     1      -8.289  -9.051 -16.446  1.00  0.00     0.059 A
HETATM    2  C9  UNL     1      -7.387  -9.119 -17.467  1.00  0.00     0.041 A
HETATM    3  C10 UNL     1      -7.544 -10.117 -18.369  1.00  0.00    -0.016 A
HETATM    4  C11 UNL     1      -6.728 -10.370 -19.491  1.00  0.00     0.025 A
HETATM    5  C12 UNL     1      -7.021 -11.430 -20.311  1.00  0.00     0.011 A
HETATM    6  C15 UNL     1      -8.080 -12.300 -20.128  1.00  0.00     0.126 A
HETATM    7  F1  UNL     1      -8.374 -13.332 -20.920  1.00  0.00    -0.205 F
HETATM    8  C16 UNL     1      -8.877 -12.040 -19.018  1.00  0.00     0.062 A
HETATM    9  C17 UNL     1      -8.592 -10.970 -18.179  1.00  0.00     0.019 A
HETATM   10  S1  UNL     1      -9.326 -10.370 -16.765  1.00  0.00    -0.080 SA
ENDROOT
BRANCH   1  11
HETATM   11  C7  UNL     1      -8.339  -8.080 -15.354  1.00  0.00    -0.059 C
HETATM   12  C6  UNL     1      -8.392  -7.264 -14.469  1.00  0.00    -0.089 C
BRANCH  12  13
HETATM   13  C3  UNL     1      -8.471  -6.229 -13.400  1.00  0.00     0.032 C
HETATM   14  C4  UNL     1      -9.896  -6.161 -12.984  1.00  0.00     0.030 C
HETATM   15  C5  UNL     1      -7.632  -6.690 -12.199  1.00  0.00     0.030 C
BRANCH  13  16
HETATM   16  C2  UNL     1      -7.870  -5.004 -13.980  1.00  0.00     0.135 C
BRANCH  16  17
HETATM   17  N1  UNL     1      -6.519  -4.710 -13.698  1.00  0.00    -0.424 N
HETATM   18  C1  UNL     1      -5.608  -4.583 -14.792  1.00  0.00     0.139 C
ATOM     19  H1  UNL     1      -6.201  -4.592 -12.737  1.00  0.00     0.152 HD
ENDBRANCH  16  17
ENDBRANCH  13  16
ENDBRANCH  12  13
ENDBRANCH   1  11
BRANCH   5  20
HETATM   20  C13 UNL     1      -6.164 -11.723 -21.511  1.00  0.00     0.168 C
BRANCH  20  21
HETATM   21  O1  UNL     1      -4.849 -11.822 -21.057  1.00  0.00    -0.390 OA
ATOM     22  H1  UNL     1      -4.326 -11.239 -21.595  1.00  0.00     0.210 HD
ENDBRANCH  20  21
BRANCH  20  23
HETATM   23  C14 UNL     1      -6.212 -10.577 -22.504  1.00  0.00     0.151 C
HETATM   24 CL1  UNL     1      -7.753 -10.712 -23.385  1.00  0.00    -0.128 Cl
ENDBRANCH  20  23
ENDBRANCH   5  20
TORSDOF 7
ENDMDL