MODEL 1
REMARK VINA RESULT: -8.049216516      0.000      0.000
REMARK  5 active torsions:
REMARK  status: ('A' for Active; 'I' for Inactive)
REMARK    1  A    between atoms: C3_3  and  C4_4
REMARK    2  A    between atoms: C4_4  and  C5_5
REMARK    3  A    between atoms: C5_5  and  C6_6
REMARK       I    between atoms: N1_7  and  C7_9
REMARK    4  A    between atoms: C7_9  and  C8_11
REMARK    5  A    between atoms: N2_19  and  O2_20
ROOT
HETATM    1  C1  UNL     1      -8.596 -12.920 -20.653  1.00  0.00     0.012 C
HETATM    2  C2  UNL     1      -8.571 -12.279 -19.629  1.00  0.00    -0.117 C
HETATM    3  C3  UNL     1      -8.533 -11.518 -18.382  1.00  0.00     0.093 C
ENDROOT
BRANCH   3   4
HETATM    4  C4  UNL     1      -9.873 -11.531 -17.676  1.00  0.00     0.017 C
BRANCH   4   5
HETATM    5  C5  UNL     1      -9.656 -11.568 -16.158  1.00  0.00     0.045 C
BRANCH   5   6
HETATM    6  C6  UNL     1     -10.340 -10.448 -15.503  1.00  0.00     0.064 C
HETATM    7  N1  UNL     1      -9.817  -9.325 -15.220  1.00  0.00    -0.340 N
HETATM    8  C7  UNL     1      -8.490  -8.945 -15.479  1.00  0.00     0.233 C
ATOM      9  H1  UNL     1     -10.416  -8.637 -14.763  1.00  0.00     0.167 HD
HETATM   10  O1  UNL     1      -7.598  -9.806 -15.554  1.00  0.00    -0.272 OA
BRANCH   8  11
HETATM   11  C8  UNL     1      -8.159  -7.526 -15.661  1.00  0.00     0.153 C
HETATM   12  C9  UNL     1      -7.793  -6.907 -14.336  1.00  0.00     0.047 C
HETATM   13 CL1  UNL     1      -7.984  -7.774 -12.846  1.00  0.00    -0.086 Cl
HETATM   14  C10 UNL     1      -7.323  -5.670 -14.394  1.00  0.00     0.060 C
HETATM   15 CL2  UNL     1      -6.859  -4.837 -12.905  1.00  0.00    -0.085 Cl
HETATM   16  C11 UNL     1      -7.206  -5.023 -15.721  1.00  0.00     0.087 C
HETATM   17  C12 UNL     1      -6.157  -3.912 -15.534  1.00  0.00     0.046 C
HETATM   18  C13 UNL     1      -8.521  -4.279 -15.941  1.00  0.00     0.046 C
HETATM   19  N2  UNL     1      -6.867  -5.878 -16.799  1.00  0.00    -0.272 N
HETATM   20  C14 UNL     1      -7.023  -7.277 -16.605  1.00  0.00     0.065 C
HETATM   21  C15 UNL     1      -7.364  -7.991 -17.913  1.00  0.00     0.041 C
HETATM   22  C16 UNL     1      -5.719  -7.864 -16.126  1.00  0.00     0.041 C
BRANCH  19  23
HETATM   23  O2  UNL     1      -7.288  -5.441 -18.002  1.00  0.00    -0.290 OA
ATOM     24  H2  UNL     1      -6.989  -5.969 -18.734  1.00  0.00     0.244 HD
ENDBRANCH  19  23
ENDBRANCH   8  11
ENDBRANCH   5   6
ENDBRANCH   4   5
ENDBRANCH   3   4
TORSDOF 5
ENDMDL