MODEL 3
REMARK VINA RESULT: -6.618215610      2.709      5.064
REMARK  7 active torsions:
REMARK  status: ('A' for Active; 'I' for Inactive)
REMARK    1  A    between atoms: C2_2  and  C3_3
REMARK    2  A    between atoms: C4_4  and  O1_5
REMARK    3  A    between atoms: C7_13  and  N2_14
REMARK       I    between atoms: N2_14  and  C8_16
REMARK    4  A    between atoms: C8_16  and  C9_18
REMARK    5  A    between atoms: C9_18  and  C10_19
REMARK    6  A    between atoms: C10_19  and  S1_20
REMARK    7  A    between atoms: S1_20  and  C11_21
ROOT
HETATM    1  C3  UNL     1      -7.165  -8.815 -18.735  1.00  0.00     0.021 A
HETATM    2  C4  UNL     1      -6.603  -8.421 -19.957  1.00  0.00     0.149 A
HETATM    3  N1  UNL     1      -6.567  -9.191 -21.043  1.00  0.00    -0.326 N
ATOM      4  H1  UNL     1      -6.145  -8.851 -21.908  1.00  0.00     0.169 HD
HETATM    5  C5  UNL     1      -7.097 -10.421 -20.977  1.00  0.00     0.129 A
HETATM    6 CL1  UNL     1      -7.078 -11.489 -22.393  1.00  0.00    -0.062 Cl
HETATM    7  C6  UNL     1      -7.662 -10.881 -19.829  1.00  0.00     0.100 A
HETATM    8 CL2  UNL     1      -8.370 -12.483 -19.689  1.00  0.00    -0.079 Cl
HETATM    9  C7  UNL     1      -7.708 -10.057 -18.648  1.00  0.00     0.070 A
ENDROOT
BRANCH   9  10
HETATM   10  N2  UNL     1      -8.250 -10.557 -17.673  1.00  0.00    -0.325 N
HETATM   11  C8  UNL     1      -9.080 -10.334 -16.649  1.00  0.00     0.222 C
HETATM   12  O2  UNL     1     -10.363 -10.296 -16.821  1.00  0.00    -0.273 OA
ATOM     13  H2  UNL     1      -7.949 -11.530 -17.619  1.00  0.00     0.169 HD
BRANCH  11  14
HETATM   14  C9  UNL     1      -8.683 -10.106 -15.219  1.00  0.00     0.113 C
BRANCH  14  15
HETATM   15  C10 UNL     1      -9.256  -8.809 -14.703  1.00  0.00     0.084 C
BRANCH  15  16
HETATM   16  S1  UNL     1      -8.120  -7.848 -13.707  1.00  0.00    -0.160 SA
BRANCH  16  17
HETATM   17  C11 UNL     1      -8.660  -6.167 -13.424  1.00  0.00    -0.003 C
HETATM   18  C12 UNL     1      -8.929  -5.370 -14.672  1.00  0.00     0.026 C
HETATM   19  C13 UNL     1      -7.651  -5.367 -12.616  1.00  0.00     0.026 C
HETATM   20  C14 UNL     1      -9.939  -6.167 -12.575  1.00  0.00     0.026 C
ENDBRANCH  16  17
ENDBRANCH  15  16
ENDBRANCH  14  15
ENDBRANCH  11  14
ENDBRANCH   9  10
BRANCH   1  21
HETATM   21  C2  UNL     1      -7.134  -7.855 -17.622  1.00  0.00     0.041 C
HETATM   22  C1  UNL     1      -5.867  -8.154 -16.805  1.00  0.00     0.010 C
ENDBRANCH   1  21
BRANCH   2  23
HETATM   23  O1  UNL     1      -6.053  -7.161 -20.046  1.00  0.00    -0.346 OA
ATOM     24  H1  UNL     1      -6.631  -6.431 -20.235  1.00  0.00     0.219 HD
ENDBRANCH   2  23
TORSDOF 7
ENDMDL