MODEL 3
REMARK VINA RESULT: -8.200570229      0.938      1.349
REMARK  6 active torsions:
REMARK  status: ('A' for Active; 'I' for Inactive)
REMARK    1  A    between atoms: C6_8  and  N2_9
REMARK    2  A    between atoms: N2_9  and  C7_11
REMARK    3  A    between atoms: C7_11  and  C8_12
REMARK    4  A    between atoms: C8_12  and  C9_13
REMARK    5  A    between atoms: C9_13  and  O1_15
REMARK    6  A    between atoms: C9_13  and  C11_17
ROOT
HETATM    1  C7  UNL     1      -6.239  -6.728 -19.349  1.00  0.00     0.124 C
ENDROOT
BRANCH   1   2
HETATM    2  N2  UNL     1      -6.703  -5.563 -18.599  1.00  0.00    -0.376 N
ATOM      3  H2  UNL     1      -6.972  -4.721 -19.107  1.00  0.00     0.161 HD
BRANCH   2   4
HETATM    4  C6  UNL     1      -6.783  -5.570 -17.327  1.00  0.00     0.102 A
HETATM    5  N1  UNL     1      -5.654  -5.540 -16.606  1.00  0.00    -0.352 N
HETATM    6  C5  UNL     1      -5.585  -5.543 -15.280  1.00  0.00     0.102 A
ATOM      7  H1  UNL     1      -4.773  -5.513 -17.118  1.00  0.00     0.166 HD
HETATM    8  C4  UNL     1      -6.750  -5.579 -14.495  1.00  0.00    -0.003 A
HETATM    9  C3  UNL     1      -6.836  -5.586 -13.156  1.00  0.00     0.028 A
HETATM   10  C18 UNL     1      -7.927  -5.609 -15.195  1.00  0.00     0.020 A
HETATM   11  C2  UNL     1      -8.087  -5.623 -12.597  1.00  0.00    -0.020 A
HETATM   12  C1  UNL     1      -8.439  -5.639 -11.129  1.00  0.00     0.056 C
HETATM   13  S1  UNL     1      -9.108  -5.647 -13.963  1.00  0.00    -0.094 SA
HETATM   14  C17 UNL     1      -7.950  -5.606 -16.598  1.00  0.00     0.068 A
ENDBRANCH   2   4
ENDBRANCH   1   2
BRANCH   1  15
HETATM   15  C8  UNL     1      -7.244  -7.841 -19.242  1.00  0.00     0.062 C
BRANCH  15  16
HETATM   16  C9  UNL     1      -6.809  -8.973 -18.367  1.00  0.00     0.086 C
HETATM   17  C10 UNL     1      -6.477 -10.159 -19.240  1.00  0.00     0.051 C
BRANCH  16  18
HETATM   18  O1  UNL     1      -5.636  -8.561 -17.695  1.00  0.00    -0.385 OA
ATOM     19  H1  UNL     1      -5.455  -9.204 -17.019  1.00  0.00     0.211 HD
ENDBRANCH  16  18
BRANCH  16  20
HETATM   20  C11 UNL     1      -7.822  -9.377 -17.364  1.00  0.00     0.014 A
HETATM   21  C12 UNL     1      -7.610  -9.159 -16.027  1.00  0.00     0.016 A
HETATM   22  C13 UNL     1      -8.548  -9.531 -15.058  1.00  0.00     0.043 A
HETATM   23  C14 UNL     1      -9.718 -10.131 -15.432  1.00  0.00     0.119 A
HETATM   24  F1  UNL     1     -10.630 -10.493 -14.491  1.00  0.00    -0.206 F
HETATM   25  C15 UNL     1      -9.961 -10.364 -16.763  1.00  0.00     0.085 A
HETATM   26  C16 UNL     1      -9.011  -9.984 -17.719  1.00  0.00     0.128 A
HETATM   27  F2  UNL     1      -9.305 -10.236 -19.005  1.00  0.00    -0.205 F
ENDBRANCH  16  20
ENDBRANCH  15  16
ENDBRANCH   1  15
TORSDOF 6
ENDMDL