MODEL 5
REMARK VINA RESULT: -8.007623212      0.851      1.347
REMARK  6 active torsions:
REMARK  status: ('A' for Active; 'I' for Inactive)
REMARK    1  A    between atoms: C2_2  and  C4_5
REMARK    2  A    between atoms: N3_10  and  C5_11
REMARK    3  A    between atoms: C5_11  and  C6_12
REMARK    4  A    between atoms: C9_16  and  O1_17
REMARK    5  A    between atoms: O1_17  and  C10_18
REMARK       I    between atoms: C10_18  and  N4_20
REMARK    6  A    between atoms: N4_20  and  C11_22
ROOT
HETATM    1  C5  UNL     1      -7.475  -5.527 -13.799  1.00  0.00     0.085 C
HETATM    2  C7  UNL     1      -8.831  -5.246 -13.186  1.00  0.00     0.038 C
HETATM    3  C8  UNL     1      -9.473  -6.625 -12.962  1.00  0.00     0.035 C
HETATM    4  C9  UNL     1      -8.974  -7.331 -14.225  1.00  0.00     0.136 C
HETATM    5  C17 UNL     1      -7.551  -6.954 -14.192  1.00  0.00     0.068 C
ENDROOT
BRANCH   1   6
HETATM    6  N3  UNL     1      -7.239  -4.664 -14.941  1.00  0.00    -0.250 N
HETATM    7  C4  UNL     1      -6.452  -4.526 -16.000  1.00  0.00     0.139 A
HETATM    8  N1  UNL     1      -7.119  -3.403 -16.348  1.00  0.00    -0.271 N
HETATM    9  N2  UNL     1      -7.873  -3.561 -15.310  1.00  0.00    -0.237 N
ATOM     10  H1  UNL     1      -7.054  -2.723 -17.106  1.00  0.00     0.190 HD
ATOM     11  H2  UNL     1      -8.657  -3.036 -14.922  1.00  0.00     0.208 HD
BRANCH   7  12
HETATM   12  C2  UNL     1      -5.334  -5.225 -16.620  1.00  0.00     0.091 C
HETATM   13  C1  UNL     1      -4.352  -5.832 -15.634  1.00  0.00     0.041 C
HETATM   14  C3  UNL     1      -5.749  -6.235 -17.670  1.00  0.00     0.041 C
HETATM   15 CL1  UNL     1      -4.348  -4.021 -17.546  1.00  0.00    -0.112 Cl
ENDBRANCH   7  12
ENDBRANCH   1   6
BRANCH   1  16
HETATM   16  C6  UNL     1      -6.532  -5.237 -12.645  1.00  0.00     0.255 C
HETATM   17  F1  UNL     1      -5.781  -4.108 -13.041  1.00  0.00    -0.253 F
ENDBRANCH   1  16
BRANCH   4  18
HETATM   18  O1  UNL     1      -9.289  -8.671 -14.309  1.00  0.00    -0.299 OA
BRANCH  18  19
HETATM   19  C10 UNL     1      -8.816  -9.486 -15.282  1.00  0.00     0.361 C
HETATM   20  O2  UNL     1      -8.470 -10.665 -14.945  1.00  0.00    -0.238 OA
HETATM   21  N4  UNL     1      -8.703  -9.049 -16.637  1.00  0.00    -0.332 N
ATOM     22  H4  UNL     1      -9.001  -8.111 -16.906  1.00  0.00     0.165 HD
BRANCH  21  23
HETATM   23  C11 UNL     1      -8.156  -9.962 -17.623  1.00  0.00     0.086 C
HETATM   24  C12 UNL     1      -9.274 -10.814 -18.255  1.00  0.00     0.025 C
HETATM   25  C13 UNL     1      -8.542 -11.963 -18.917  1.00  0.00     0.002 C
HETATM   26  C14 UNL     1      -7.574 -11.478 -19.962  1.00  0.00     0.000 C
HETATM   27  C15 UNL     1      -6.752 -10.292 -19.587  1.00  0.00     0.002 C
HETATM   28  C16 UNL     1      -7.478  -9.265 -18.726  1.00  0.00     0.025 C
ENDBRANCH  21  23
ENDBRANCH  18  19
ENDBRANCH   4  18
TORSDOF 6
ENDMDL