MODEL 3
REMARK VINA RESULT: -8.050421110      2.111      3.258
REMARK  5 active torsions:
REMARK  status: ('A' for Active; 'I' for Inactive)
REMARK    1  A    between atoms: C5_5  and  O1_6
REMARK    2  A    between atoms: O1_6  and  C6_7
REMARK    3  A    between atoms: C6_7  and  C7_8
REMARK    4  A    between atoms: C7_8  and  C8_9
REMARK    5  A    between atoms: C10_15  and  O4_16
ROOT
HETATM    1  O1  UNL     1      -6.302  -6.804 -17.093  1.00  0.00    -0.348 OA
ENDROOT
BRANCH   1   2
HETATM    2  C5  UNL     1      -7.115  -7.858 -16.877  1.00  0.00     0.097 A
HETATM    3  C3  UNL     1      -7.854  -7.957 -15.718  1.00  0.00    -0.020 A
HETATM    4  C2  UNL     1      -8.706  -9.023 -15.451  1.00  0.00    -0.035 A
HETATM    5  C4  UNL     1      -7.744  -6.871 -14.693  1.00  0.00     0.052 C
HETATM    6  C1  UNL     1      -9.489  -9.117 -14.212  1.00  0.00     0.050 C
HETATM    7  C14 UNL     1      -8.798 -10.018 -16.411  1.00  0.00     0.025 A
HETATM    8  C12 UNL     1      -8.087  -9.958 -17.564  1.00  0.00    -0.019 A
HETATM    9 BR1  UNL     1      -9.959 -11.528 -16.113  1.00  0.00    -0.050 Br
HETATM   10  C11 UNL     1      -7.240  -8.868 -17.796  1.00  0.00     0.075 A
HETATM   11  C13 UNL     1      -8.199 -11.028 -18.574  1.00  0.00     0.051 C
HETATM   12 CL1  UNL     1      -6.377  -8.879 -19.320  1.00  0.00    -0.081 Cl
ENDBRANCH   1   2
BRANCH   1  13
HETATM   13  C6  UNL     1      -4.937  -6.669 -17.074  1.00  0.00     0.182 C
BRANCH  13  14
HETATM   14  C7  UNL     1      -4.341  -5.321 -16.936  1.00  0.00     0.096 C
BRANCH  14  15
HETATM   15  C8  UNL     1      -4.983  -4.678 -15.745  1.00  0.00     0.111 A
HETATM   16  O2  UNL     1      -5.018  -5.061 -14.502  1.00  0.00    -0.261 OA
HETATM   17  C9  UNL     1      -5.689  -4.214 -13.751  1.00  0.00     0.371 A
HETATM   18  O3  UNL     1      -5.842  -4.394 -12.529  1.00  0.00    -0.238 OA
HETATM   19  N1  UNL     1      -6.131  -3.218 -14.507  1.00  0.00    -0.281 N
HETATM   20  C10 UNL     1      -5.707  -3.478 -15.754  1.00  0.00     0.175 A
ATOM     21  H1  UNL     1      -6.681  -2.415 -14.203  1.00  0.00     0.173 HD
BRANCH  20  22
HETATM   22  O4  UNL     1      -5.930  -2.714 -16.883  1.00  0.00    -0.344 OA
ATOM     23  H4  UNL     1      -5.484  -1.897 -17.071  1.00  0.00     0.219 HD
ENDBRANCH  20  22
ENDBRANCH  14  15
ENDBRANCH  13  14
ENDBRANCH   1  13
TORSDOF 5
ENDMDL