MODEL 3
REMARK VINA RESULT: -8.634049926      1.610      1.962
REMARK  6 active torsions:
REMARK  status: ('A' for Active; 'I' for Inactive)
REMARK    1  A    between atoms: C2_2  and  C5_5
REMARK    2  A    between atoms: C5_5  and  C6_6
REMARK    3  A    between atoms: C6_6  and  N1_7
REMARK    4  A    between atoms: C10_15  and  C11_16
REMARK    5  A    between atoms: C11_16  and  O1_17
REMARK    6  A    between atoms: C17_26  and  C18_27
ROOT
HETATM    1  N1  UNL     1      -8.396  -8.218 -15.701  1.00  0.00    -0.368 N
ATOM      2  H1  UNL     1      -8.999  -9.037 -15.780  1.00  0.00     0.165 HD
HETATM    3  C7  UNL     1      -7.571  -8.205 -16.624  1.00  0.00     0.064 A
HETATM    4  C8  UNL     1      -6.622  -7.221 -16.785  1.00  0.00     0.050 A
HETATM    5  C9  UNL     1      -5.757  -7.313 -17.839  1.00  0.00     0.110 A
HETATM    6  N2  UNL     1      -5.826  -8.333 -18.696  1.00  0.00    -0.303 N
ATOM      7  H2  UNL     1      -5.164  -8.370 -19.471  1.00  0.00     0.186 HD
HETATM    8  N3  UNL     1      -6.734  -9.310 -18.577  1.00  0.00    -0.237 N
HETATM    9  C10 UNL     1      -6.965 -10.400 -19.322  1.00  0.00     0.139 A
HETATM   10  N4  UNL     1      -8.005 -11.023 -18.730  1.00  0.00    -0.336 N
ATOM     11  H4  UNL     1      -8.416 -11.893 -19.069  1.00  0.00     0.167 HD
HETATM   12  C17 UNL     1      -8.435 -10.364 -17.640  1.00  0.00     0.149 A
HETATM   13  C19 UNL     1      -7.604  -9.253 -17.549  1.00  0.00     0.116 A
ENDROOT
BRANCH   1  14
HETATM   14  C6  UNL     1      -8.755  -7.465 -14.597  1.00  0.00     0.062 C
BRANCH  14  15
HETATM   15  C5  UNL     1      -7.746  -7.137 -13.557  1.00  0.00     0.052 C
BRANCH  15  16
HETATM   16  C2  UNL     1      -7.812  -5.672 -13.180  1.00  0.00    -0.047 C
HETATM   17  C1  UNL     1      -8.577  -4.855 -14.205  1.00  0.00     0.015 C
HETATM   18  C3  UNL     1      -8.503  -5.585 -11.826  1.00  0.00     0.015 C
HETATM   19  C4  UNL     1      -6.449  -5.046 -13.050  1.00  0.00     0.015 C
ENDBRANCH  15  16
ENDBRANCH  14  15
ENDBRANCH   1  14
BRANCH  12  20
HETATM   20  C18 UNL     1      -9.567 -10.759 -16.737  1.00  0.00     0.435 C
HETATM   21  F1  UNL     1     -10.005 -12.015 -17.207  1.00  0.00    -0.165 F
HETATM   22  F2  UNL     1      -9.174 -11.014 -15.454  1.00  0.00    -0.165 F
HETATM   23  F3  UNL     1     -10.668  -9.957 -16.866  1.00  0.00    -0.165 F
ENDBRANCH  12  20
BRANCH   9  24
HETATM   24  C11 UNL     1      -6.263 -10.873 -20.552  1.00  0.00     0.118 C
HETATM   25  C12 UNL     1      -6.658 -12.286 -20.906  1.00  0.00     0.046 C
HETATM   26  C13 UNL     1      -6.166 -12.621 -22.281  1.00  0.00     0.003 C
HETATM   27  C14 UNL     1      -6.865 -11.827 -23.360  1.00  0.00     0.000 C
HETATM   28  C15 UNL     1      -7.567 -10.674 -22.701  1.00  0.00     0.003 C
HETATM   29  C16 UNL     1      -6.637  -9.993 -21.748  1.00  0.00     0.046 C
BRANCH  24  30
HETATM   30  O1  UNL     1      -4.891 -10.804 -20.443  1.00  0.00    -0.382 OA
ATOM     31  H1  UNL     1      -4.444 -11.138 -21.211  1.00  0.00     0.211 HD
ENDBRANCH  24  30
ENDBRANCH   9  24
TORSDOF 6
ENDMDL