MODEL 5
REMARK VINA RESULT: -7.542623013      2.648      3.112
REMARK  4 active torsions:
REMARK  status: ('A' for Active; 'I' for Inactive)
REMARK    1  A    between atoms: O1_1  and  C1_3
REMARK    2  A    between atoms: C6_12  and  C7_13
REMARK    3  A    between atoms: C7_13  and  C8_14
REMARK    4  A    between atoms: C8_14  and  N2_15
ROOT
HETATM    1  C1  UNL     1      -7.301 -10.719 -19.511  1.00  0.00     0.122 A
HETATM    2  C2  UNL     1      -8.325 -11.613 -19.346  1.00  0.00     0.049 A
HETATM    3 BR1  UNL     1      -8.728 -12.920 -20.704  1.00  0.00    -0.048 Br
HETATM    4  C3  UNL     1      -9.071 -11.585 -18.209  1.00  0.00     0.052 A
HETATM    5  C4  UNL     1      -8.796 -10.656 -17.226  1.00  0.00     0.048 A
HETATM    6  N1  UNL     1      -9.364 -10.417 -16.029  1.00  0.00    -0.349 N
ATOM      7  H1  UNL     1     -10.155 -10.939 -15.651  1.00  0.00     0.166 HD
HETATM    8  C5  UNL     1      -8.752  -9.401 -15.401  1.00  0.00     0.088 A
HETATM    9  S1  UNL     1      -9.183  -8.763 -13.816  1.00  0.00    -0.032 SA
HETATM   10  C6  UNL     1      -7.740  -8.989 -16.273  1.00  0.00    -0.006 A
HETATM   11  C13 UNL     1      -7.748  -9.753 -17.413  1.00  0.00     0.041 A
HETATM   12  C14 UNL     1      -6.981  -9.765 -18.553  1.00  0.00     0.163 A
HETATM   13  F1  UNL     1      -5.974  -8.880 -18.699  1.00  0.00    -0.202 F
ENDROOT
BRANCH  10  14
HETATM   14  C7  UNL     1      -6.824  -7.871 -15.901  1.00  0.00     0.072 C
BRANCH  14  15
HETATM   15  C8  UNL     1      -7.385  -6.641 -16.561  1.00  0.00     0.277 C
BRANCH  15  16
HETATM   16  N2  UNL     1      -7.295  -5.432 -15.859  1.00  0.00     0.092 N
HETATM   17  C9  UNL     1      -6.525  -4.370 -16.373  1.00  0.00     0.298 C
HETATM   18  C10 UNL     1      -5.144  -4.204 -15.835  1.00  0.00     0.198 C
HETATM   19  O2  UNL     1      -4.882  -4.834 -14.646  1.00  0.00    -0.388 OA
HETATM   20  C11 UNL     1      -6.020  -4.751 -13.854  1.00  0.00     0.198 C
HETATM   21  C12 UNL     1      -7.046  -5.659 -14.461  1.00  0.00     0.298 C
ENDBRANCH  15  16
ENDBRANCH  14  15
ENDBRANCH  10  14
BRANCH   1  22
HETATM   22  O1  UNL     1      -6.551 -10.754 -20.664  1.00  0.00    -0.356 OA
ATOM     23  H1  UNL     1      -6.633 -10.050 -21.297  1.00  0.00     0.218 HD
ENDBRANCH   1  22
TORSDOF 4
ENDMDL