MODEL 1
REMARK VINA RESULT: -8.236946227      0.000      0.000
REMARK  4 active torsions:
REMARK  status: ('A' for Active; 'I' for Inactive)
REMARK    1  A    between atoms: C2_2  and  N1_3
REMARK    2  A    between atoms: N1_3  and  C3_5
REMARK    3  A    between atoms: N5_22  and  C14_23
REMARK    4  A    between atoms: C14_23  and  C15_24
ROOT
HETATM    1  C3  UNL     1      -5.098  -4.234 -16.553  1.00  0.00     0.132 A
HETATM    2  N2  UNL     1      -5.384  -2.995 -16.080  1.00  0.00    -0.285 N
ATOM      3  H2  UNL     1      -4.694  -2.287 -15.829  1.00  0.00     0.188 HD
HETATM    4  N3  UNL     1      -6.692  -2.847 -15.993  1.00  0.00    -0.303 N
ATOM      5  H3  UNL     1      -7.183  -2.014 -15.668  1.00  0.00     0.186 HD
HETATM    6  C4  UNL     1      -7.264  -3.992 -16.410  1.00  0.00     0.039 A
HETATM    7  C5  UNL     1      -8.745  -4.168 -16.442  1.00  0.00     0.071 C
HETATM    8  C6  UNL     1      -6.292  -4.909 -16.778  1.00  0.00     0.077 A
HETATM    9  C7  UNL     1      -6.556  -6.226 -17.288  1.00  0.00     0.129 A
HETATM   10  N4  UNL     1      -6.771  -6.408 -18.621  1.00  0.00    -0.339 N
ATOM     11  H4  UNL     1      -6.765  -5.647 -19.300  1.00  0.00     0.167 HD
HETATM   12  C8  UNL     1      -6.989  -7.671 -18.942  1.00  0.00     0.061 A
HETATM   13  C9  UNL     1      -7.223  -8.355 -20.127  1.00  0.00     0.032 A
HETATM   14  C10 UNL     1      -7.371  -9.713 -20.085  1.00  0.00     0.002 A
HETATM   15  C11 UNL     1      -7.296 -10.431 -18.903  1.00  0.00     0.002 A
HETATM   16  C12 UNL     1      -7.067  -9.751 -17.737  1.00  0.00     0.032 A
HETATM   17  C13 UNL     1      -6.915  -8.373 -17.761  1.00  0.00     0.067 A
HETATM   18  N5  UNL     1      -6.649  -7.446 -16.767  1.00  0.00    -0.304 N
ENDROOT
BRANCH  18  19
HETATM   19  C14 UNL     1      -6.399  -7.779 -15.422  1.00  0.00     0.116 C
BRANCH  19  20
HETATM   20  C15 UNL     1      -7.371  -7.269 -14.452  1.00  0.00     0.057 A
HETATM   21  C16 UNL     1      -7.251  -6.179 -13.662  1.00  0.00     0.131 A
HETATM   22  F1  UNL     1      -6.131  -5.436 -13.658  1.00  0.00    -0.205 F
HETATM   23  C17 UNL     1      -8.248  -5.746 -12.816  1.00  0.00     0.043 A
HETATM   24  C18 UNL     1      -9.427  -6.440 -12.758  1.00  0.00     0.006 A
HETATM   25  C19 UNL     1      -9.635  -7.563 -13.530  1.00  0.00     0.043 A
HETATM   26  C20 UNL     1      -8.602  -7.941 -14.353  1.00  0.00     0.131 A
HETATM   27  F2  UNL     1      -8.884  -9.040 -15.133  1.00  0.00    -0.205 F
ENDBRANCH  19  20
ENDBRANCH  18  19
BRANCH   1  28
HETATM   28  N1  UNL     1      -3.999  -4.795 -16.792  1.00  0.00    -0.375 N
ATOM     29  H1  UNL     1      -3.643  -5.368 -16.027  1.00  0.00     0.161 HD
BRANCH  28  30
HETATM   30  C2  UNL     1      -3.168  -4.772 -17.941  1.00  0.00     0.116 C
HETATM   31  C1  UNL     1      -3.681  -3.986 -19.104  1.00  0.00     0.026 C
ENDBRANCH  28  30
ENDBRANCH   1  28
TORSDOF 4
ENDMDL