MODEL 3
REMARK VINA RESULT: -9.126711888      0.982      1.898
REMARK  6 active torsions:
REMARK  status: ('A' for Active; 'I' for Inactive)
REMARK    1  A    between atoms: O1_2  and  C2_3
REMARK    2  A    between atoms: C8_11  and  N2_12
REMARK    3  A    between atoms: N2_12  and  C9_14
REMARK    4  A    between atoms: C9_14  and  C10_15
REMARK    5  A    between atoms: C13_19  and  O2_20
REMARK    6  A    between atoms: C19_28  and  O3_29
ROOT
HETATM    1  C2  UNL     1      -7.705 -11.850 -20.557  1.00  0.00     0.103 A
HETATM    2  C3  UNL     1      -8.649 -12.096 -19.574  1.00  0.00     0.070 A
HETATM    3  C4  UNL     1      -8.703 -11.354 -18.408  1.00  0.00     0.047 A
HETATM    4  N1  UNL     1      -9.638 -11.606 -17.459  1.00  0.00    -0.359 N
ATOM      5  H1  UNL     1     -10.314 -12.357 -17.600  1.00  0.00     0.166 HD
HETATM    6  C5  UNL     1      -9.679 -10.869 -16.328  1.00  0.00     0.007 A
HETATM    7  C6  UNL     1     -10.692 -11.133 -15.309  1.00  0.00     0.068 C
HETATM    8  C7  UNL     1      -8.766  -9.827 -16.094  1.00  0.00     0.054 A
HETATM    9  C8  UNL     1      -7.831  -9.587 -17.062  1.00  0.00     0.042 A
HETATM   10  C17 UNL     1      -7.777 -10.349 -18.248  1.00  0.00     0.020 A
HETATM   11  C18 UNL     1      -6.822 -10.089 -19.225  1.00  0.00     0.055 A
HETATM   12  C19 UNL     1      -6.767 -10.825 -20.386  1.00  0.00     0.102 A
ENDROOT
BRANCH   9  13
HETATM   13  N2  UNL     1      -6.932  -8.669 -16.968  1.00  0.00    -0.385 N
ATOM     14  H2  UNL     1      -6.477  -8.316 -17.810  1.00  0.00     0.160 HD
BRANCH  13  15
HETATM   15  C9  UNL     1      -6.565  -8.135 -15.679  1.00  0.00     0.162 C
BRANCH  15  16
HETATM   16  C10 UNL     1      -7.073  -6.760 -15.456  1.00  0.00     0.007 A
HETATM   17  C11 UNL     1      -8.243  -6.596 -14.685  1.00  0.00     0.127 A
HETATM   18  F1  UNL     1      -8.808  -7.693 -14.141  1.00  0.00    -0.205 F
HETATM   19  C12 UNL     1      -8.719  -5.336 -14.535  1.00  0.00     0.082 A
HETATM   20  C13 UNL     1      -8.126  -4.182 -15.099  1.00  0.00     0.107 A
HETATM   21  C14 UNL     1      -6.954  -4.373 -15.868  1.00  0.00     0.156 A
HETATM   22  F2  UNL     1      -6.364  -3.318 -16.430  1.00  0.00    -0.203 F
HETATM   23  C15 UNL     1      -6.473  -5.684 -16.015  1.00  0.00    -0.010 A
HETATM   24  C16 UNL     1      -5.239  -5.769 -16.884  1.00  0.00     0.052 C
BRANCH  20  25
HETATM   25  O2  UNL     1      -8.620  -2.982 -14.932  1.00  0.00    -0.357 OA
ATOM     26  H2  UNL     1      -8.090  -2.243 -14.658  1.00  0.00     0.217 HD
ENDBRANCH  20  25
ENDBRANCH  15  16
ENDBRANCH  13  15
ENDBRANCH   9  13
BRANCH  12  27
HETATM   27  O3  UNL     1      -5.831 -10.603 -21.386  1.00  0.00    -0.353 OA
HETATM   28  C20 UNL     1      -4.516 -11.114 -21.313  1.00  0.00     0.210 C
ENDBRANCH  12  27
BRANCH   1  29
HETATM   29  O1  UNL     1      -7.636 -12.570 -21.707  1.00  0.00    -0.353 OA
HETATM   30  C1  UNL     1      -8.708 -12.731 -22.606  1.00  0.00     0.210 C
ENDBRANCH   1  29
TORSDOF 6
ENDMDL