MODEL 5
REMARK VINA RESULT: -6.661137882      2.777      6.435
REMARK  3 active torsions:
REMARK  status: ('A' for Active; 'I' for Inactive)
REMARK    1  A    between atoms: C2_2  and  C3_3
REMARK    2  A    between atoms: C4_6  and  S1_7
REMARK    3  A    between atoms: S1_7  and  C5_8
ROOT
HETATM    1  C5  UNL     1      -8.189  -7.429 -14.544  1.00  0.00     0.078 A
HETATM    2  C6  UNL     1      -7.823  -6.741 -13.401  1.00  0.00     0.065 A
HETATM    3  C7  UNL     1      -7.048  -5.581 -13.469  1.00  0.00     0.069 A
HETATM    4  N2  UNL     1      -6.688  -4.896 -12.289  1.00  0.00    -0.101 NA
HETATM    5  C8  UNL     1      -6.638  -5.110 -14.695  1.00  0.00     0.069 A
HETATM    6 BR1  UNL     1      -5.581  -3.535 -14.850  1.00  0.00    -0.046 Br
HETATM    7  C9  UNL     1      -7.012  -5.808 -15.824  1.00  0.00     0.100 A
HETATM    8 BR2  UNL     1      -6.460  -5.183 -17.560  1.00  0.00    -0.030 Br
HETATM    9  N3  UNL     1      -7.757  -6.914 -15.699  1.00  0.00    -0.344 N
ATOM     10  H3  UNL     1      -8.015  -7.404 -16.556  1.00  0.00     0.167 HD
ENDROOT
BRANCH   1  11
HETATM   11  S1  UNL     1      -9.171  -8.888 -14.368  1.00  0.00    -0.053 SA
BRANCH  11  12
HETATM   12  C4  UNL     1      -9.423  -9.741 -15.899  1.00  0.00     0.093 A
HETATM   13  N1  UNL     1      -8.397 -10.110 -16.720  1.00  0.00    -0.336 N
HETATM   14  C3  UNL     1      -8.912 -10.732 -17.790  1.00  0.00     0.104 A
ATOM     15  H1  UNL     1      -7.405  -9.940 -16.549  1.00  0.00     0.168 HD
HETATM   16  N4  UNL     1     -10.232 -10.786 -17.703  1.00  0.00    -0.350 N
HETATM   17  C10 UNL     1     -10.563 -10.170 -16.526  1.00  0.00     0.127 A
ATOM     18  H4  UNL     1     -10.873 -11.203 -18.377  1.00  0.00     0.166 HD
BRANCH  14  19
HETATM   19  C2  UNL     1      -8.153 -11.289 -18.918  1.00  0.00     0.038 C
HETATM   20  C1  UNL     1      -8.627 -12.228 -19.692  1.00  0.00     0.015 C
ENDBRANCH  14  19
ENDBRANCH  11  12
ENDBRANCH   1  11
TORSDOF 3
ENDMDL