MODEL 4
REMARK VINA RESULT: -7.057456684      1.509      1.584
REMARK  5 active torsions:
REMARK  status: ('A' for Active; 'I' for Inactive)
REMARK    1  A    between atoms: C2_2  and  C3_3
REMARK    2  A    between atoms: C3_3  and  C4_4
REMARK    3  A    between atoms: C8_12  and  N3_13
REMARK    4  A    between atoms: N3_13  and  C9_15
REMARK    5  A    between atoms: C12_19  and  O1_20
ROOT
HETATM    1  C4  UNL     1      -8.618  -8.612 -14.703  1.00  0.00     0.095 A
HETATM    2  N1  UNL     1      -8.824  -8.007 -13.597  1.00  0.00    -0.353 N
ATOM      3  H1  UNL     1      -9.162  -8.566 -12.814  1.00  0.00     0.163 HD
HETATM    4  C5  UNL     1      -8.618  -6.599 -13.361  1.00  0.00     0.114 A
HETATM    5  C6  UNL     1      -7.552  -6.496 -12.264  1.00  0.00     0.063 C
HETATM    6  C7  UNL     1      -9.920  -6.032 -12.833  1.00  0.00     0.063 C
HETATM    7  N2  UNL     1      -8.138  -5.881 -14.521  1.00  0.00    -0.200 N
ATOM      8  H2  UNL     1      -7.970  -4.879 -14.426  1.00  0.00     0.180 HD
HETATM    9  C8  UNL     1      -7.912  -6.419 -15.653  1.00  0.00     0.682 A
HETATM   10  N4  UNL     1      -8.144  -7.814 -15.792  1.00  0.00    -0.181 N
ATOM     11  H4  UNL     1      -7.967  -8.259 -16.693  1.00  0.00     0.185 HD
ENDROOT
BRANCH   9  12
HETATM   12  N3  UNL     1      -7.442  -5.617 -16.725  1.00  0.00    -0.187 N
ATOM     13  H3  UNL     1      -8.138  -5.097 -17.257  1.00  0.00     0.184 HD
BRANCH  12  14
HETATM   14  C9  UNL     1      -6.104  -5.480 -17.113  1.00  0.00     0.105 A
HETATM   15  C10 UNL     1      -5.252  -4.591 -16.465  1.00  0.00     0.147 A
HETATM   16  F1  UNL     1      -5.771  -3.874 -15.451  1.00  0.00    -0.204 F
HETATM   17  C11 UNL     1      -3.937  -4.463 -16.860  1.00  0.00     0.081 A
HETATM   18  C12 UNL     1      -3.433  -5.211 -17.902  1.00  0.00     0.072 A
HETATM   19  C14 UNL     1      -4.259  -6.097 -18.557  1.00  0.00     0.058 A
HETATM   20  C15 UNL     1      -5.592  -6.219 -18.150  1.00  0.00     0.044 A
HETATM   21 BR1  UNL     1      -6.721  -7.443 -19.069  1.00  0.00    -0.049 Br
BRANCH  18  22
HETATM   22  O1  UNL     1      -2.102  -5.042 -18.256  1.00  0.00    -0.356 OA
HETATM   23  C13 UNL     1      -1.592  -3.821 -18.694  1.00  0.00     0.210 C
ENDBRANCH  18  22
ENDBRANCH  12  14
ENDBRANCH   9  12
BRANCH   1  24
HETATM   24  C3  UNL     1      -8.853 -10.083 -14.883  1.00  0.00     0.076 C
BRANCH  24  25
HETATM   25  C2  UNL     1     -10.269 -10.380 -15.245  1.00  0.00     0.003 C
HETATM   26  C1  UNL     1     -10.383 -10.420 -16.743  1.00  0.00     0.005 C
ENDBRANCH  24  25
ENDBRANCH   1  24
TORSDOF 5
ENDMDL