MODEL 1
REMARK VINA RESULT: -8.873897420      0.000      0.000
REMARK  6 active torsions:
REMARK  status: ('A' for Active; 'I' for Inactive)
REMARK    1  A    between atoms: O1_2  and  C2_3
REMARK    2  A    between atoms: C6_7  and  C7_8
REMARK    3  A    between atoms: C7_8  and  O2_9
REMARK    4  A    between atoms: C7_8  and  N1_11
REMARK    5  A    between atoms: N1_11  and  C8_13
REMARK    6  A    between atoms: C15_23  and  C16_24
ROOT
HETATM    1  C2  UNL     1      -8.342  -7.718 -14.106  1.00  0.00     0.080 A
HETATM    2  C3  UNL     1      -9.006  -8.937 -14.055  1.00  0.00     0.037 A
HETATM    3  C4  UNL     1      -9.033  -9.818 -15.117  1.00  0.00     0.003 A
HETATM    4  C5  UNL     1      -8.363  -9.441 -16.263  1.00  0.00     0.012 A
HETATM    5  C6  UNL     1      -7.696  -8.224 -16.324  1.00  0.00     0.004 A
HETATM    6  C15 UNL     1      -7.675  -7.353 -15.255  1.00  0.00     0.021 A
ENDROOT
BRANCH   5   7
HETATM    7  C7  UNL     1      -6.980  -7.834 -17.566  1.00  0.00     0.256 C
BRANCH   7   8
HETATM    8  O2  UNL     1      -5.814  -8.635 -17.605  1.00  0.00    -0.372 OA
ATOM      9  H2  UNL     1      -6.079  -9.457 -18.001  1.00  0.00     0.212 HD
ENDBRANCH   7   8
BRANCH   7  10
HETATM   10  N1  UNL     1      -7.793  -8.229 -18.684  1.00  0.00    -0.325 N
ATOM     11  H1  UNL     1      -8.735  -7.840 -18.742  1.00  0.00     0.166 HD
BRANCH  10  12
HETATM   12  C8  UNL     1      -7.428  -9.026 -19.606  1.00  0.00     0.227 A
HETATM   13  N2  UNL     1      -6.897  -8.749 -20.817  1.00  0.00    -0.320 N
HETATM   14  C9  UNL     1      -6.657  -9.913 -21.484  1.00  0.00     0.069 A
ATOM     15  H2  UNL     1      -6.706  -7.813 -21.176  1.00  0.00     0.169 HD
HETATM   16  C10 UNL     1      -6.136 -10.194 -22.722  1.00  0.00     0.032 A
HETATM   17  C14 UNL     1      -7.073 -10.897 -20.608  1.00  0.00     0.106 A
HETATM   18  C11 UNL     1      -6.041 -11.540 -23.067  1.00  0.00     0.002 A
HETATM   19  C12 UNL     1      -6.450 -12.540 -22.211  1.00  0.00     0.003 A
HETATM   20  C13 UNL     1      -6.972 -12.226 -20.964  1.00  0.00     0.040 A
HETATM   21  O3  UNL     1      -7.516 -10.332 -19.524  1.00  0.00    -0.277 OA
ENDBRANCH  10  12
ENDBRANCH   7  10
ENDBRANCH   5   7
BRANCH   6  22
HETATM   22  C16 UNL     1      -6.958  -6.092 -15.385  1.00  0.00     0.016 A
HETATM   23  C17 UNL     1      -5.598  -6.114 -15.152  1.00  0.00     0.018 A
HETATM   24  C18 UNL     1      -4.857  -4.959 -15.255  1.00  0.00     0.043 A
HETATM   25  C19 UNL     1      -5.480  -3.775 -15.595  1.00  0.00     0.119 A
HETATM   26  F1  UNL     1      -4.748  -2.622 -15.701  1.00  0.00    -0.206 F
HETATM   27  C20 UNL     1      -6.839  -3.760 -15.827  1.00  0.00     0.085 A
HETATM   28  C21 UNL     1      -7.593  -4.906 -15.727  1.00  0.00     0.130 A
HETATM   29  F2  UNL     1      -8.917  -4.955 -15.940  1.00  0.00    -0.205 F
ENDBRANCH   6  22
BRANCH   1  30
HETATM   30  O1  UNL     1      -8.317  -6.839 -13.037  1.00  0.00    -0.355 OA
HETATM   31  C1  UNL     1      -9.531  -6.168 -12.714  1.00  0.00     0.210 C
ENDBRANCH   1  30
TORSDOF 6
ENDMDL