MODEL 2
REMARK VINA RESULT: -9.557983602      0.130      1.445
REMARK  5 active torsions:
REMARK  status: ('A' for Active; 'I' for Inactive)
REMARK    1  A    between atoms: N1_1  and  C1_5
REMARK    2  A    between atoms: C1_5  and  C2_6
REMARK    3  A    between atoms: C1_5  and  C11_22
REMARK    4  A    between atoms: C5_9  and  O1_10
REMARK    5  A    between atoms: O1_10  and  C6_11
ROOT
HETATM    1  C2  UNL     1      -8.394  -8.852 -15.221  1.00  0.00    -0.024 A
HETATM    2  C3  UNL     1      -7.841  -8.809 -16.486  1.00  0.00     0.012 A
HETATM    3  C4  UNL     1      -8.115  -9.771 -17.441  1.00  0.00     0.041 A
HETATM    4  C5  UNL     1      -8.951 -10.821 -17.184  1.00  0.00     0.117 A
HETATM    5  C9  UNL     1      -9.517 -10.877 -15.909  1.00  0.00     0.150 A
HETATM    6  F2  UNL     1     -10.364 -11.903 -15.589  1.00  0.00    -0.203 F
HETATM    7  C10 UNL     1      -9.241  -9.915 -14.960  1.00  0.00     0.054 A
ENDROOT
BRANCH   1   8
HETATM    8  C1  UNL     1      -8.092  -7.820 -14.213  1.00  0.00     0.225 C
BRANCH   8   9
HETATM    9  N1  UNL     1      -9.260  -7.387 -13.478  1.00  0.00    -0.070 N
ATOM     10  H13 UNL     1     -10.057  -7.263 -14.102  1.00  0.00     0.275 HD
ATOM     11  H12 UNL     1      -9.621  -8.141 -12.894  1.00  0.00     0.275 HD
ATOM     12  H11 UNL     1      -9.095  -6.546 -12.926  1.00  0.00     0.275 HD
ENDBRANCH   8   9
BRANCH   8  13
HETATM   13  C11 UNL     1      -7.361  -6.625 -14.767  1.00  0.00    -0.007 C
HETATM   14  C12 UNL     1      -8.238  -5.855 -15.722  1.00  0.00     0.016 C
HETATM   15  C13 UNL     1      -7.580  -4.546 -16.114  1.00  0.00    -0.013 C
HETATM   16  C14 UNL     1      -6.273  -4.883 -16.836  1.00  0.00     0.009 C
HETATM   17  C18 UNL     1      -7.251  -3.678 -14.941  1.00  0.00     0.009 C
HETATM   18  C15 UNL     1      -5.425  -5.708 -15.917  1.00  0.00    -0.013 C
HETATM   19  C16 UNL     1      -5.056  -4.878 -14.693  1.00  0.00     0.009 C
HETATM   20  C20 UNL     1      -6.098  -6.982 -15.476  1.00  0.00     0.016 C
HETATM   21  C17 UNL     1      -6.342  -4.460 -14.018  1.00  0.00    -0.013 C
HETATM   22  C19 UNL     1      -7.068  -5.690 -13.590  1.00  0.00     0.016 C
ENDBRANCH   8  13
ENDBRANCH   1   8
BRANCH   4  23
HETATM   23  O1  UNL     1      -9.300 -11.834 -18.047  1.00  0.00    -0.277 OA
BRANCH  23  24
HETATM   24  C6  UNL     1      -8.811 -11.983 -19.330  1.00  0.00     0.222 C
HETATM   25  N2  UNL     1      -9.489 -12.675 -20.208  1.00  0.00    -0.352 N
HETATM   26  C7  UNL     1      -8.817 -12.717 -21.485  1.00  0.00     0.182 C
ATOM     27  H2  UNL     1     -10.383 -13.128 -20.014  1.00  0.00     0.163 HD
HETATM   28  C8  UNL     1      -7.490 -12.093 -21.201  1.00  0.00     0.289 C
HETATM   29  F1  UNL     1      -7.141 -11.172 -22.177  1.00  0.00    -0.225 F
HETATM   30  N3  UNL     1      -7.612 -11.479 -19.902  1.00  0.00    -0.324 N
ATOM     31  H3  UNL     1      -6.965 -10.814 -19.477  1.00  0.00     0.166 HD
ENDBRANCH  23  24
ENDBRANCH   4  23
TORSDOF 5
ENDMDL