MODEL 3
REMARK VINA RESULT: -8.251812524      4.385      8.351
REMARK  6 active torsions:
REMARK  status: ('A' for Active; 'I' for Inactive)
REMARK    1  A    between atoms: C2_2  and  C3_3
REMARK    2  A    between atoms: C3_3  and  C4_4
REMARK    3  A    between atoms: C5_7  and  N2_8
REMARK    4  A    between atoms: N2_8  and  C6_10
REMARK    5  A    between atoms: C6_10  and  C7_11
REMARK    6  A    between atoms: C17_25  and  C18_26
ROOT
HETATM    1  N2  UNL     1      -6.322  -9.031 -18.783  1.00  0.00    -0.372 N
ATOM      2  H2  UNL     1      -5.518  -9.265 -18.201  1.00  0.00     0.161 HD
ENDROOT
BRANCH   1   3
HETATM    3  C5  UNL     1      -7.225  -9.903 -18.844  1.00  0.00     0.104 A
HETATM    4  N1  UNL     1      -8.247  -9.799 -17.933  1.00  0.00    -0.332 N
HETATM    5  C4  UNL     1      -9.269 -10.633 -17.868  1.00  0.00     0.083 A
ATOM      6  H1  UNL     1      -8.215  -9.029 -17.264  1.00  0.00     0.168 HD
HETATM    7  N5  UNL     1      -9.274 -11.662 -18.780  1.00  0.00    -0.342 N
HETATM    8  C17 UNL     1      -8.318 -11.820 -19.685  1.00  0.00     0.121 A
ATOM      9  H5  UNL     1     -10.044 -12.330 -18.759  1.00  0.00     0.167 HD
HETATM   10  C16 UNL     1      -7.270 -10.938 -19.738  1.00  0.00     0.082 A
BRANCH   5  11
HETATM   11  C3  UNL     1     -10.441 -10.479 -17.010  1.00  0.00     0.076 C
BRANCH  11  12
HETATM   12  C2  UNL     1     -10.333 -10.700 -15.555  1.00  0.00     0.003 C
HETATM   13  C1  UNL     1      -9.576  -9.706 -14.743  1.00  0.00     0.005 C
ENDBRANCH  11  12
ENDBRANCH   5  11
BRANCH   8  14
HETATM   14  C18 UNL     1      -8.373 -12.976 -20.633  1.00  0.00     0.432 C
HETATM   15  F1  UNL     1      -7.595 -14.052 -20.217  1.00  0.00    -0.165 F
HETATM   16  F2  UNL     1      -9.653 -13.432 -20.704  1.00  0.00    -0.165 F
HETATM   17  F3  UNL     1      -7.865 -12.535 -21.827  1.00  0.00    -0.165 F
ENDBRANCH   8  14
ENDBRANCH   1   3
BRANCH   1  18
HETATM   18  C6  UNL     1      -6.275  -7.727 -19.436  1.00  0.00     0.162 C
BRANCH  18  19
HETATM   19  C7  UNL     1      -6.082  -6.746 -18.328  1.00  0.00    -0.016 A
HETATM   20  C8  UNL     1      -6.421  -7.063 -17.040  1.00  0.00     0.042 A
HETATM   21  C9  UNL     1      -6.160  -6.105 -16.054  1.00  0.00     0.060 A
HETATM   22  N3  UNL     1      -6.368  -6.077 -14.718  1.00  0.00    -0.363 N
HETATM   23  C13 UNL     1      -5.586  -4.913 -16.443  1.00  0.00     0.066 A
HETATM   24  C10 UNL     1      -5.944  -4.871 -14.234  1.00  0.00     0.097 A
ATOM     25  H3  UNL     1      -6.774  -6.831 -14.163  1.00  0.00     0.165 HD
HETATM   26  C11 UNL     1      -5.464  -4.151 -15.290  1.00  0.00    -0.018 A
HETATM   27  C12 UNL     1      -4.969  -2.722 -15.333  1.00  0.00     0.052 C
HETATM   28  N4  UNL     1      -5.260  -4.636 -17.719  1.00  0.00    -0.357 N
HETATM   29  C14 UNL     1      -5.502  -5.537 -18.666  1.00  0.00     0.013 A
ATOM     30  H4  UNL     1      -4.832  -3.742 -17.957  1.00  0.00     0.166 HD
HETATM   31  C15 UNL     1      -5.240  -5.302 -20.104  1.00  0.00     0.068 C
ENDBRANCH  18  19
ENDBRANCH   1  18
TORSDOF 6
ENDMDL