MODEL 5
REMARK VINA RESULT: -7.540138413      1.378      1.943
REMARK  9 active torsions:
REMARK  status: ('A' for Active; 'I' for Inactive)
REMARK    1  A    between atoms: C2_2  and  O1_3
REMARK    2  A    between atoms: N1_5  and  N2_7
REMARK    3  A    between atoms: N2_7  and  C3_9
REMARK    4  A    between atoms: C3_9  and  O2_10
REMARK    5  A    between atoms: C3_9  and  N3_12
REMARK    6  A    between atoms: N3_12  and  C4_13
REMARK    7  A    between atoms: N3_12  and  C15_27
REMARK    8  A    between atoms: C4_13  and  C5_14
REMARK    9  A    between atoms: C5_14  and  C6_15
ROOT
HETATM    1  N3  UNL     1      -6.969  -7.371 -18.834  1.00  0.00    -0.341 N
ENDROOT
BRANCH   1   2
HETATM    2  C3  UNL     1      -5.800  -7.090 -19.557  1.00  0.00     0.234 C
BRANCH   2   3
HETATM    3  N2  UNL     1      -5.541  -6.059 -20.466  1.00  0.00    -0.264 N
ATOM      4  H2  UNL     1      -6.293  -5.679 -21.040  1.00  0.00     0.190 HD
BRANCH   3   5
HETATM    5  N1  UNL     1      -4.209  -5.543 -20.583  1.00  0.00    -0.281 N
HETATM    6  C2  UNL     1      -3.944  -4.649 -21.473  1.00  0.00     0.126 C
HETATM    7  C1  UNL     1      -2.561  -4.094 -21.614  1.00  0.00     0.098 C
ATOM      8  H1  UNL     1      -3.473  -5.881 -19.963  1.00  0.00     0.189 HD
BRANCH   6   9
HETATM    9  O1  UNL     1      -4.956  -4.207 -22.298  1.00  0.00    -0.349 OA
ATOM     10  H1  UNL     1      -5.864  -4.360 -22.065  1.00  0.00     0.219 HD
ENDBRANCH   6   9
ENDBRANCH   3   5
ENDBRANCH   2   3
BRANCH   2  11
HETATM   11  O2  UNL     1      -4.764  -7.876 -19.397  1.00  0.00    -0.331 OA
ATOM     12  H2  UNL     1      -4.500  -8.288 -20.212  1.00  0.00     0.221 HD
ENDBRANCH   2  11
ENDBRANCH   1   2
BRANCH   1  13
HETATM   13  C4  UNL     1      -7.332  -6.405 -17.813  1.00  0.00     0.146 C
BRANCH  13  14
HETATM   14  C5  UNL     1      -6.770  -6.521 -16.433  1.00  0.00     0.085 C
HETATM   15  C7  UNL     1      -5.310  -6.196 -16.440  1.00  0.00     0.005 C
HETATM   16  C8  UNL     1      -4.636  -6.029 -15.109  1.00  0.00     0.006 C
HETATM   17  C14 UNL     1      -5.253  -4.768 -17.027  1.00  0.00     0.006 C
HETATM   18  C9  UNL     1      -5.322  -5.071 -14.180  1.00  0.00     0.001 C
HETATM   19  C10 UNL     1      -6.808  -5.011 -14.383  1.00  0.00     0.010 C
HETATM   20  C11 UNL     1      -7.275  -5.211 -15.764  1.00  0.00    -0.026 C
HETATM   21  C12 UNL     1      -8.727  -4.963 -15.922  1.00  0.00     0.016 C
HETATM   22  C13 UNL     1      -6.531  -4.172 -16.614  1.00  0.00     0.011 C
BRANCH  14  23
HETATM   23  C6  UNL     1      -7.174  -7.688 -15.639  1.00  0.00     0.398 C
HETATM   24  F1  UNL     1      -8.425  -8.205 -16.010  1.00  0.00    -0.170 F
HETATM   25  F2  UNL     1      -6.343  -8.830 -15.824  1.00  0.00    -0.170 F
HETATM   26  F3  UNL     1      -7.171  -7.611 -14.279  1.00  0.00    -0.170 F
ENDBRANCH  14  23
ENDBRANCH  13  14
ENDBRANCH   1  13
BRANCH   1  27
HETATM   27  C15 UNL     1      -7.735  -8.542 -19.057  1.00  0.00     0.088 A
HETATM   28  C16 UNL     1      -7.457  -9.625 -20.028  1.00  0.00     0.027 A
HETATM   29  C17 UNL     1      -7.358  -9.917 -18.610  1.00  0.00     0.027 A
ENDBRANCH   1  27
TORSDOF 9
ENDMDL