MODEL 1
REMARK VINA RESULT: -8.461164571      0.000      0.000
REMARK  7 active torsions:
REMARK  status: ('A' for Active; 'I' for Inactive)
REMARK    1  A    between atoms: O1_2  and  C2_3
REMARK    2  A    between atoms: C2_3  and  C3_4
REMARK    3  A    between atoms: C3_4  and  C4_5
REMARK    4  A    between atoms: C4_5  and  C5_6
REMARK    5  A    between atoms: C8_11  and  C9_12
REMARK    6  A    between atoms: C11_17  and  C12_18
REMARK    7  A    between atoms: C18_24  and  N2_25
ROOT
HETATM    1  N2  UNL     1      -5.179  -7.164 -17.546  1.00  0.00    -0.329 NA
HETATM    2  C19 UNL     1      -4.223  -6.618 -18.210  1.00  0.00     0.269 C
HETATM    3  N3  UNL     1      -3.359  -6.134 -18.736  1.00  0.00    -0.156 NA
ENDROOT
BRANCH   1   4
HETATM    4  C18 UNL     1      -6.095  -7.671 -16.937  1.00  0.00     0.141 A
HETATM    5  C5  UNL     1      -6.493  -7.123 -15.727  1.00  0.00    -0.000 A
HETATM    6  C6  UNL     1      -7.609  -7.685 -15.101  1.00  0.00     0.099 A
HETATM    7  N1  UNL     1      -8.245  -8.687 -15.668  1.00  0.00    -0.364 N
HETATM    8  C7  UNL     1      -7.891  -9.240 -16.845  1.00  0.00     0.060 A
ATOM      9  H1  UNL     1      -9.058  -9.070 -15.186  1.00  0.00     0.165 HD
HETATM   10  C8  UNL     1      -8.683 -10.220 -17.347  1.00  0.00     0.076 A
HETATM   11  C17 UNL     1      -6.792  -8.754 -17.522  1.00  0.00     0.034 A
HETATM   12  C10 UNL     1      -8.313 -10.763 -18.606  1.00  0.00     0.026 A
HETATM   13  C11 UNL     1      -7.194 -10.319 -19.286  1.00  0.00    -0.049 A
HETATM   14  C16 UNL     1      -6.432  -9.300 -18.745  1.00  0.00     0.025 A
BRANCH   5  15
HETATM   15  C4  UNL     1      -5.934  -5.936 -15.110  1.00  0.00     0.045 C
BRANCH  15  16
HETATM   16  C3  UNL     1      -6.883  -5.061 -14.270  1.00  0.00     0.031 C
BRANCH  16  17
HETATM   17  C2  UNL     1      -6.130  -4.996 -12.906  1.00  0.00     0.167 C
BRANCH  17  18
HETATM   18  O1  UNL     1      -7.038  -5.027 -11.879  1.00  0.00    -0.396 OA
HETATM   19  C1  UNL     1      -7.657  -6.239 -11.768  1.00  0.00     0.201 C
ENDBRANCH  17  18
ENDBRANCH  16  17
ENDBRANCH  15  16
ENDBRANCH   5  15
BRANCH  10  20
HETATM   20  C9  UNL     1      -9.913 -10.790 -16.741  1.00  0.00     0.419 C
HETATM   21  F1  UNL     1      -9.940 -10.747 -15.371  1.00  0.00    -0.166 F
HETATM   22  F2  UNL     1     -10.089 -12.101 -17.219  1.00  0.00    -0.166 F
HETATM   23  F3  UNL     1     -11.073 -10.142 -17.261  1.00  0.00    -0.166 F
ENDBRANCH  10  20
BRANCH  13  24
HETATM   24  C12 UNL     1      -6.709 -11.016 -20.491  1.00  0.00    -0.024 C
HETATM   25  C13 UNL     1      -7.020 -10.030 -21.631  1.00  0.00     0.019 C
HETATM   26  C14 UNL     1      -7.549 -12.291 -20.802  1.00  0.00     0.019 C
HETATM   27  C15 UNL     1      -5.308 -11.364 -20.562  1.00  0.00     0.019 C
ENDBRANCH  13  24
ENDBRANCH   1   4
TORSDOF 7
ENDMDL