MODEL 3
REMARK VINA RESULT: -8.541032953      2.729      4.507
REMARK  7 active torsions:
REMARK  status: ('A' for Active; 'I' for Inactive)
REMARK    1  A    between atoms: C2_2  and  C3_3
REMARK    2  A    between atoms: C3_3  and  C4_4
REMARK    3  A    between atoms: C3_3  and  N1_6
REMARK    4  A    between atoms: N1_6  and  C6_8
REMARK    5  A    between atoms: C8_14  and  N4_15
REMARK    6  A    between atoms: N4_15  and  C9_17
REMARK    7  A    between atoms: C11_19  and  C12_20
ROOT
HETATM    1  C6  UNL     1      -6.445  -4.461 -16.645  1.00  0.00     0.693 A
HETATM    2  N2  UNL     1      -7.479  -3.682 -16.293  1.00  0.00    -0.187 N
ATOM      3  H2  UNL     1      -7.514  -2.707 -16.591  1.00  0.00     0.185 HD
HETATM    4  C7  UNL     1      -8.470  -4.197 -15.542  1.00  0.00     0.215 A
HETATM    5  N3  UNL     1      -8.454  -5.476 -15.134  1.00  0.00    -0.187 N
ATOM      6  H3  UNL     1      -9.211  -5.855 -14.565  1.00  0.00     0.185 HD
HETATM    7  C8  UNL     1      -7.414  -6.240 -15.496  1.00  0.00     0.698 A
HETATM    8  N5  UNL     1      -6.417  -5.741 -16.244  1.00  0.00    -0.022 N
ATOM      9  H5  UNL     1      -5.634  -6.339 -16.508  1.00  0.00     0.203 HD
ENDROOT
BRANCH   7  10
HETATM   10  N4  UNL     1      -7.310  -7.480 -15.151  1.00  0.00    -0.191 N
ATOM     11  H4  UNL     1      -6.834  -7.698 -14.276  1.00  0.00     0.184 HD
BRANCH  10  12
HETATM   12  C9  UNL     1      -7.816  -8.549 -15.916  1.00  0.00     0.056 A
HETATM   13  C10 UNL     1      -7.322  -8.868 -17.161  1.00  0.00     0.047 A
HETATM   14  C11 UNL     1      -7.834  -9.937 -17.915  1.00  0.00     0.056 A
HETATM   15  C13 UNL     1      -8.862 -10.677 -17.379  1.00  0.00    -0.040 A
HETATM   16  C14 UNL     1      -9.444 -11.817 -18.141  1.00  0.00     0.049 C
HETATM   17  C15 UNL     1      -9.385 -10.373 -16.109  1.00  0.00    -0.047 A
HETATM   18  C16 UNL     1     -10.483 -11.177 -15.556  1.00  0.00     0.049 C
HETATM   19  C17 UNL     1      -8.843  -9.316 -15.418  1.00  0.00    -0.028 A
HETATM   20  C18 UNL     1      -9.383  -8.974 -14.067  1.00  0.00     0.051 C
BRANCH  14  21
HETATM   21  C12 UNL     1      -7.262 -10.233 -19.238  1.00  0.00     0.418 C
HETATM   22  F1  UNL     1      -5.900  -9.875 -19.205  1.00  0.00    -0.166 F
HETATM   23  F2  UNL     1      -7.236 -11.582 -19.550  1.00  0.00    -0.166 F
HETATM   24  F3  UNL     1      -7.785  -9.473 -20.265  1.00  0.00    -0.166 F
ENDBRANCH  14  21
ENDBRANCH  10  12
ENDBRANCH   7  10
BRANCH   1  25
HETATM   25  N1  UNL     1      -5.467  -3.983 -17.375  1.00  0.00    -0.221 N
ATOM     26  H1  UNL     1      -5.263  -2.984 -17.370  1.00  0.00     0.178 HD
BRANCH  25  27
HETATM   27  C3  UNL     1      -4.689  -4.873 -18.179  1.00  0.00     0.098 C
BRANCH  27  28
HETATM   28  C2  UNL     1      -3.250  -4.361 -18.314  1.00  0.00     0.021 C
HETATM   29  C1  UNL     1      -2.876  -4.298 -19.781  1.00  0.00     0.007 C
ENDBRANCH  27  28
BRANCH  27  30
HETATM   30  C4  UNL     1      -5.314  -5.077 -19.533  1.00  0.00     0.021 C
HETATM   31  C5  UNL     1      -5.731  -6.521 -19.634  1.00  0.00     0.007 C
ENDBRANCH  27  30
ENDBRANCH  25  27
ENDBRANCH   1  25
TORSDOF 7
ENDMDL