MODEL 4
REMARK VINA RESULT: -8.756672335      4.480      7.468
REMARK  5 active torsions:
REMARK  status: ('A' for Active; 'I' for Inactive)
REMARK    1  A    between atoms: C6_8  and  C7_9
REMARK    2  A    between atoms: C7_9  and  N1_10
REMARK    3  A    between atoms: N1_10  and  C8_13
REMARK    4  A    between atoms: C8_13  and  C9_14
REMARK    5  A    between atoms: C14_19  and  C15_20
ROOT
HETATM    1  C8  UNL     1      -8.170  -6.055 -14.937  1.00  0.00     0.237 C
ENDROOT
BRANCH   1   2
HETATM    2  N1  UNL     1      -8.739  -7.337 -14.789  1.00  0.00    -0.071 N
ATOM      3  H12 UNL     1      -9.602  -7.428 -15.326  1.00  0.00     0.277 HD
ATOM      4  H11 UNL     1      -9.122  -7.470 -13.853  1.00  0.00     0.277 HD
BRANCH   2   5
HETATM    5  C7  UNL     1      -7.800  -8.365 -15.125  1.00  0.00     0.272 C
BRANCH   5   6
HETATM    6  C6  UNL     1      -8.239  -9.316 -16.168  1.00  0.00    -0.013 A
HETATM    7  C4  UNL     1      -9.307 -10.191 -16.015  1.00  0.00     0.022 A
HETATM    8  C3  UNL     1      -9.594 -11.135 -17.001  1.00  0.00     0.294 A
HETATM    9  C5  UNL     1     -10.133 -10.065 -14.801  1.00  0.00     0.055 C
HETATM   10  O1  UNL     1      -8.880 -11.219 -18.062  1.00  0.00    -0.279 OA
HETATM   11  O2  UNL     1     -10.592 -11.934 -16.848  1.00  0.00    -0.259 OA
HETATM   12  C2  UNL     1      -7.867 -10.420 -18.245  1.00  0.00     0.059 A
HETATM   13  C1  UNL     1      -7.029 -10.532 -19.497  1.00  0.00     0.077 C
HETATM   14  C18 UNL     1      -7.500  -9.434 -17.315  1.00  0.00    -0.024 A
HETATM   15  C19 UNL     1      -6.319  -8.590 -17.644  1.00  0.00     0.051 C
ENDBRANCH   5   6
ENDBRANCH   2   5
ENDBRANCH   1   2
BRANCH   1  16
HETATM   16  C9  UNL     1      -6.864  -5.759 -15.511  1.00  0.00     0.017 C
HETATM   17  C10 UNL     1      -6.070  -4.644 -14.967  1.00  0.00     0.011 C
HETATM   18  C11 UNL     1      -4.777  -4.411 -15.736  1.00  0.00     0.041 C
HETATM   19  C12 UNL     1      -4.912  -4.643 -17.178  1.00  0.00    -0.033 A
HETATM   20  C13 UNL     1      -3.986  -4.501 -18.204  1.00  0.00     0.043 A
HETATM   21  C16 UNL     1      -6.071  -5.064 -17.775  1.00  0.00     0.016 A
HETATM   22  C14 UNL     1      -4.574  -4.825 -19.390  1.00  0.00     0.117 A
HETATM   23  N2  UNL     1      -5.836  -5.164 -19.113  1.00  0.00    -0.355 N
ATOM     24  H2  UNL     1      -6.527  -5.456 -19.806  1.00  0.00     0.166 HD
HETATM   25  C17 UNL     1      -7.264  -5.306 -16.974  1.00  0.00     0.064 C
BRANCH  22  26
HETATM   26  C15 UNL     1      -3.984  -4.815 -20.764  1.00  0.00     0.432 C
HETATM   27  F1  UNL     1      -3.419  -6.015 -21.069  1.00  0.00    -0.165 F
HETATM   28  F2  UNL     1      -2.981  -3.839 -20.802  1.00  0.00    -0.165 F
HETATM   29  F3  UNL     1      -4.923  -4.404 -21.692  1.00  0.00    -0.165 F
ENDBRANCH  22  26
ENDBRANCH   1  16
TORSDOF 5
ENDMDL