MODEL 2
REMARK VINA RESULT: -8.402086140      0.994      1.050
REMARK  5 active torsions:
REMARK  status: ('A' for Active; 'I' for Inactive)
REMARK    1  A    between atoms: C4_4  and  O1_5
REMARK    2  A    between atoms: C6_7  and  O2_8
REMARK    3  A    between atoms: C11_15  and  N2_16
REMARK    4  A    between atoms: C12_18  and  C13_19
REMARK    5  A    between atoms: C13_19  and  C14_20
ROOT
HETATM    1  C1  UNL     1      -7.596  -8.966 -19.478  1.00  0.00     0.018 C
HETATM    2  C2  UNL     1      -7.165  -8.071 -18.790  1.00  0.00    -0.072 C
HETATM    3  C3  UNL     1      -6.648  -7.019 -17.952  1.00  0.00     0.080 A
HETATM    4  C4  UNL     1      -5.804  -6.056 -18.459  1.00  0.00     0.122 A
HETATM    5  C6  UNL     1      -5.346  -5.078 -17.602  1.00  0.00     0.104 A
HETATM    6  C8  UNL     1      -5.710  -5.044 -16.268  1.00  0.00     0.055 A
HETATM    7  C9  UNL     1      -6.547  -5.994 -15.758  1.00  0.00     0.023 A
HETATM    8  C10 UNL     1      -7.012  -6.977 -16.600  1.00  0.00     0.068 A
HETATM    9  N1  UNL     1      -7.824  -7.904 -16.117  1.00  0.00    -0.340 N
ATOM     10  H1  UNL     1      -8.169  -8.632 -16.742  1.00  0.00     0.167 HD
HETATM   11  C11 UNL     1      -8.219  -7.916 -14.791  1.00  0.00     0.118 A
HETATM   12  C15 UNL     1      -7.746  -6.919 -13.942  1.00  0.00     0.037 A
HETATM   13  C16 UNL     1      -7.921  -6.618 -12.590  1.00  0.00     0.034 A
HETATM   14  C17 UNL     1      -7.185  -5.475 -12.278  1.00  0.00     0.089 A
HETATM   15  N3  UNL     1      -6.587  -5.104 -13.411  1.00  0.00    -0.364 N
ATOM     16  H3  UNL     1      -5.974  -4.294 -13.503  1.00  0.00     0.165 HD
HETATM   17  C18 UNL     1      -6.901  -5.945 -14.422  1.00  0.00     0.059 A
ENDROOT
BRANCH   4  18
HETATM   18  O1  UNL     1      -5.418  -6.068 -19.815  1.00  0.00    -0.352 OA
HETATM   19  C5  UNL     1      -4.258  -6.780 -20.218  1.00  0.00     0.210 C
ENDBRANCH   4  18
BRANCH   5  20
HETATM   20  O2  UNL     1      -4.495  -4.116 -18.131  1.00  0.00    -0.353 OA
HETATM   21  C7  UNL     1      -3.100  -4.253 -17.940  1.00  0.00     0.210 C
ENDBRANCH   5  20
BRANCH  11  22
HETATM   22  N2  UNL     1      -8.977  -8.799 -14.383  1.00  0.00    -0.355 N
HETATM   23  C12 UNL     1      -9.482 -10.051 -14.572  1.00  0.00     0.071 C
ATOM     24  H2  UNL     1      -9.415  -8.436 -13.537  1.00  0.00     0.166 HD
BRANCH  23  25
HETATM   25  C13 UNL     1     -10.627 -10.165 -15.575  1.00  0.00     0.162 C
BRANCH  25  26
HETATM   26  C14 UNL     1     -10.057 -10.779 -16.851  1.00  0.00     0.392 C
HETATM   27  F1  UNL     1     -10.339 -12.143 -16.841  1.00  0.00    -0.171 F
HETATM   28  F2  UNL     1      -8.696 -10.647 -16.926  1.00  0.00    -0.171 F
HETATM   29  F3  UNL     1     -10.707 -10.230 -17.944  1.00  0.00    -0.171 F
ENDBRANCH  25  26
ENDBRANCH  23  25
ENDBRANCH  11  22
TORSDOF 5
ENDMDL