MODEL 2
REMARK VINA RESULT: -8.932167064      2.753      4.699
REMARK  4 active torsions:
REMARK  status: ('A' for Active; 'I' for Inactive)
REMARK    1  A    between atoms: C2_2  and  C3_3
REMARK    2  A    between atoms: C3_3  and  C4_6
REMARK    3  A    between atoms: C7_10  and  O1_11
REMARK    4  A    between atoms: C8_13  and  C9_14
ROOT
HETATM    1  C4  UNL     1      -7.912  -8.655 -16.523  1.00  0.00     0.058 A
HETATM    2  C5  UNL     1      -8.456  -9.325 -15.420  1.00  0.00     0.131 A
HETATM    3  F3  UNL     1      -8.203  -8.923 -14.130  1.00  0.00    -0.205 F
HETATM    4  C6  UNL     1      -9.238 -10.433 -15.542  1.00  0.00     0.080 A
HETATM    5  C7  UNL     1      -9.506 -10.917 -16.804  1.00  0.00     0.079 A
HETATM    6  C8  UNL     1      -9.013 -10.317 -17.933  1.00  0.00     0.006 A
HETATM    7  C18 UNL     1      -8.222  -9.195 -17.760  1.00  0.00    -0.034 A
HETATM    8  C19 UNL     1      -7.607  -8.491 -18.919  1.00  0.00     0.050 C
ENDROOT
BRANCH   6   9
HETATM    9  C9  UNL     1      -9.404 -10.817 -19.231  1.00  0.00     0.046 C
HETATM   10  C10 UNL     1      -8.762 -11.833 -20.003  1.00  0.00     0.056 A
HETATM   11  N1  UNL     1      -9.584 -12.860 -20.435  1.00  0.00    -0.297 N
HETATM   12  C13 UNL     1      -7.497 -11.948 -20.496  1.00  0.00    -0.018 A
HETATM   13  N2  UNL     1      -9.291 -13.838 -21.200  1.00  0.00    -0.266 N
ATOM     14  H1  UNL     1     -10.547 -12.831 -20.099  1.00  0.00     0.187 HD
HETATM   15  C11 UNL     1      -8.059 -13.974 -21.699  1.00  0.00     0.266 A
ATOM     16  H2  UNL     1     -10.007 -14.525 -21.435  1.00  0.00     0.190 HD
HETATM   17  O2  UNL     1      -7.772 -14.941 -22.456  1.00  0.00    -0.266 OA
HETATM   18  C12 UNL     1      -7.150 -13.014 -21.341  1.00  0.00     0.020 A
HETATM   19  C17 UNL     1      -5.775 -13.189 -21.895  1.00  0.00     0.045 C
HETATM   20  C16 UNL     1      -4.783 -12.704 -20.862  1.00  0.00     0.005 C
HETATM   21  C15 UNL     1      -5.104 -11.257 -20.633  1.00  0.00     0.005 C
HETATM   22  C14 UNL     1      -6.476 -10.977 -20.114  1.00  0.00     0.042 C
ENDBRANCH   6   9
BRANCH   5  23
HETATM   23  O1  UNL     1     -10.313 -12.075 -16.795  1.00  0.00    -0.360 OA
ATOM     24  H1  UNL     1     -11.193 -11.916 -16.474  1.00  0.00     0.217 HD
ENDBRANCH   5  23
BRANCH   1  25
HETATM   25  C3  UNL     1      -7.139  -7.459 -16.218  1.00  0.00     0.274 C
HETATM   26  F1  UNL     1      -6.362  -6.917 -17.199  1.00  0.00    -0.201 F
HETATM   27  F2  UNL     1      -6.140  -7.854 -15.248  1.00  0.00    -0.201 F
BRANCH  25  28
HETATM   28  C2  UNL     1      -7.896  -6.386 -15.446  1.00  0.00     0.080 C
HETATM   29  C1  UNL     1      -8.184  -5.179 -16.300  1.00  0.00     0.011 C
ENDBRANCH  25  28
ENDBRANCH   1  25
TORSDOF 4
ENDMDL