MODEL 4
REMARK VINA RESULT: -7.832293164      2.703      3.806
REMARK  7 active torsions:
REMARK  status: ('A' for Active; 'I' for Inactive)
REMARK    1  A    between atoms: O1_1  and  C1_3
REMARK    2  A    between atoms: C1_3  and  C2_5
REMARK    3  A    between atoms: C1_3  and  C17_25
REMARK    4  A    between atoms: C2_5  and  C3_6
REMARK    5  A    between atoms: C3_6  and  N1_7
REMARK    6  A    between atoms: N1_7  and  C4_9
REMARK    7  A    between atoms: C5_12  and  C6_13
ROOT
HETATM    1  C4  UNL     1      -9.407  -9.400 -14.822  1.00  0.00     0.148 A
HETATM    2  N2  UNL     1      -8.541  -8.710 -15.583  1.00  0.00    -0.339 N
ATOM      3  H2  UNL     1      -8.458  -8.900 -16.582  1.00  0.00     0.168 HD
HETATM    4  C5  UNL     1      -7.816  -7.801 -15.023  1.00  0.00     0.026 A
HETATM    5  C16 UNL     1      -7.953  -7.580 -13.684  1.00  0.00     0.079 A
HETATM    6  S1  UNL     1      -9.169  -8.733 -13.275  1.00  0.00    -0.064 SA
ENDROOT
BRANCH   1   7
HETATM    7  N1  UNL     1     -10.200 -10.331 -15.235  1.00  0.00    -0.350 N
ATOM      8  H1  UNL     1     -11.080 -10.408 -14.726  1.00  0.00     0.167 HD
BRANCH   7   9
HETATM    9  C3  UNL     1     -10.033 -11.244 -16.272  1.00  0.00     0.069 C
BRANCH   9  10
HETATM   10  C2  UNL     1     -10.164 -10.739 -17.684  1.00  0.00     0.128 C
BRANCH  10  11
HETATM   11  C1  UNL     1      -9.157 -11.425 -18.599  1.00  0.00     0.305 C
HETATM   12  F1  UNL     1      -8.636 -12.471 -17.822  1.00  0.00    -0.201 F
BRANCH  11  13
HETATM   13  O1  UNL     1      -9.691 -11.967 -19.731  1.00  0.00    -0.355 OA
ATOM     14  H1  UNL     1     -10.631 -11.836 -19.703  1.00  0.00     0.213 HD
ENDBRANCH  11  13
BRANCH  11  15
HETATM   15  C17 UNL     1      -7.987 -10.500 -18.892  1.00  0.00     0.449 C
HETATM   16  F2  UNL     1      -7.225 -10.994 -19.932  1.00  0.00    -0.165 F
HETATM   17  F3  UNL     1      -8.518  -9.242 -19.259  1.00  0.00    -0.165 F
HETATM   18  F4  UNL     1      -7.183 -10.283 -17.809  1.00  0.00    -0.165 F
ENDBRANCH  11  15
ENDBRANCH  10  11
ENDBRANCH   9  10
ENDBRANCH   7   9
ENDBRANCH   1   7
BRANCH   4  19
HETATM   19  C6  UNL     1      -6.850  -6.929 -15.815  1.00  0.00     0.004 C
HETATM   20  C7  UNL     1      -6.338  -5.783 -15.004  1.00  0.00     0.020 C
HETATM   21  C8  UNL     1      -5.273  -5.095 -15.850  1.00  0.00    -0.013 C
HETATM   22  C9  UNL     1      -4.107  -6.013 -16.135  1.00  0.00     0.009 C
HETATM   23  C13 UNL     1      -5.827  -4.627 -17.168  1.00  0.00     0.009 C
HETATM   24  C10 UNL     1      -4.612  -7.230 -16.895  1.00  0.00    -0.013 C
HETATM   25  C11 UNL     1      -5.274  -6.814 -18.201  1.00  0.00     0.009 C
HETATM   26  C15 UNL     1      -5.656  -7.869 -16.057  1.00  0.00     0.020 C
HETATM   27  C12 UNL     1      -6.354  -5.812 -17.913  1.00  0.00    -0.013 C
HETATM   28  C14 UNL     1      -7.447  -6.460 -17.089  1.00  0.00     0.020 C
ENDBRANCH   4  19
TORSDOF 7
ENDMDL