MODEL 2
REMARK VINA RESULT: -8.051293656      0.864      1.398
REMARK  7 active torsions:
REMARK  status: ('A' for Active; 'I' for Inactive)
REMARK    1  A    between atoms: C4_4  and  C5_5
REMARK    2  A    between atoms: C5_5  and  C8_8
REMARK    3  A    between atoms: C9_14  and  N2_15
REMARK    4  A    between atoms: N2_15  and  C10_17
REMARK    5  A    between atoms: C10_17  and  C11_18
REMARK    6  A    between atoms: C10_17  and  C17_24
REMARK    7  A    between atoms: C11_18  and  C12_19
ROOT
HETATM    1  C1  UNL     1      -4.167  -4.899 -20.842  1.00  0.00     0.068 C
HETATM    2  C2  UNL     1      -5.086  -5.504 -19.817  1.00  0.00     0.024 A
HETATM    3  C3  UNL     1      -5.174  -4.968 -18.545  1.00  0.00     0.051 A
HETATM    4  C4  UNL     1      -6.007  -5.504 -17.593  1.00  0.00     0.045 A
HETATM    5  N1  UNL     1      -6.754  -6.575 -17.913  1.00  0.00    -0.195 N
ATOM      6  H1  UNL     1      -7.380  -6.991 -17.223  1.00  0.00     0.184 HD
HETATM    7  C9  UNL     1      -6.667  -7.097 -19.154  1.00  0.00     0.679 A
HETATM    8  N3  UNL     1      -5.852  -6.575 -20.089  1.00  0.00    -0.196 N
ATOM      9  H3  UNL     1      -5.814  -6.997 -21.016  1.00  0.00     0.184 HD
ENDROOT
BRANCH   7  10
HETATM   10  N2  UNL     1      -7.387  -8.112 -19.403  1.00  0.00    -0.211 N
ATOM     11  H2  UNL     1      -8.375  -7.942 -19.591  1.00  0.00     0.178 HD
BRANCH  10  12
HETATM   12  C10 UNL     1      -6.941  -9.492 -19.448  1.00  0.00     0.200 C
BRANCH  12  13
HETATM   13  C11 UNL     1      -7.473 -10.148 -18.213  1.00  0.00     0.041 C
BRANCH  13  14
HETATM   14  C12 UNL     1      -8.772  -9.648 -17.692  1.00  0.00    -0.012 C
HETATM   15  C13 UNL     1      -9.926 -10.558 -17.674  1.00  0.00     0.005 C
HETATM   16  C14 UNL     1     -10.465 -10.537 -16.222  1.00  0.00     0.000 C
HETATM   17  C15 UNL     1      -9.154 -10.287 -15.455  1.00  0.00     0.000 C
HETATM   18  C16 UNL     1      -8.579  -9.169 -16.274  1.00  0.00     0.005 C
ENDBRANCH  13  14
ENDBRANCH  12  13
BRANCH  12  19
HETATM   19  C17 UNL     1      -7.187 -10.185 -20.705  1.00  0.00     0.197 C
HETATM   20  O1  UNL     1      -7.271 -11.441 -20.826  1.00  0.00    -0.646 OA
HETATM   21  O2  UNL     1      -7.349  -9.438 -21.873  1.00  0.00    -0.646 OA
ENDBRANCH  12  19
ENDBRANCH  10  12
ENDBRANCH   7  10
BRANCH   4  22
HETATM   22  C5  UNL     1      -6.043  -4.891 -16.249  1.00  0.00     0.093 C
HETATM   23  C6  UNL     1      -7.462  -4.567 -15.827  1.00  0.00     0.031 C
HETATM   24  C7  UNL     1      -5.310  -3.542 -16.257  1.00  0.00     0.031 C
BRANCH  22  25
HETATM   25  C8  UNL     1      -5.423  -5.823 -15.237  1.00  0.00     0.400 C
HETATM   26  F1  UNL     1      -6.173  -6.963 -15.042  1.00  0.00    -0.170 F
HETATM   27  F2  UNL     1      -5.311  -5.112 -14.053  1.00  0.00    -0.170 F
HETATM   28  F3  UNL     1      -4.128  -6.171 -15.612  1.00  0.00    -0.170 F
ENDBRANCH  22  25
ENDBRANCH   4  22
TORSDOF 7
ENDMDL