MODEL 4
REMARK VINA RESULT: -9.108257391      3.139      4.855
REMARK  5 active torsions:
REMARK  status: ('A' for Active; 'I' for Inactive)
REMARK    1  A    between atoms: C3_3  and  C4_4
REMARK    2  A    between atoms: C7_10  and  O1_11
REMARK    3  A    between atoms: N2_20  and  C13_22
REMARK    4  A    between atoms: C13_22  and  C14_23
REMARK    5  A    between atoms: C14_23  and  N3_24
ROOT
HETATM    1  C1  UNL     1      -6.311  -5.957 -14.376  1.00  0.00     0.053 C
HETATM    2  C2  UNL     1      -6.945  -7.015 -15.135  1.00  0.00    -0.002 A
HETATM    3  C3  UNL     1      -7.980  -7.780 -14.607  1.00  0.00     0.070 A
HETATM    4  C5  UNL     1      -8.475  -8.774 -15.420  1.00  0.00     0.009 A
HETATM    5  C6  UNL     1      -9.493  -9.584 -14.996  1.00  0.00     0.051 A
HETATM    6  C7  UNL     1     -10.036 -10.604 -15.769  1.00  0.00     0.067 A
HETATM    7  C8  UNL     1      -9.510 -10.791 -17.020  1.00  0.00     0.045 A
HETATM    8  C9  UNL     1      -8.483 -10.006 -17.499  1.00  0.00    -0.032 A
HETATM    9  C10 UNL     1      -7.932 -10.236 -18.864  1.00  0.00     0.050 C
HETATM   10  C11 UNL     1      -7.976  -9.007 -16.697  1.00  0.00     0.051 A
HETATM   11  N1  UNL     1      -6.982  -8.253 -17.173  1.00  0.00    -0.341 N
ATOM     12  H1  UNL     1      -6.610  -8.416 -18.108  1.00  0.00     0.167 HD
HETATM   13  C12 UNL     1      -6.493  -7.296 -16.415  1.00  0.00     0.108 A
HETATM   14  N2  UNL     1      -5.519  -6.568 -16.895  1.00  0.00    -0.374 N
ATOM     15  H2  UNL     1      -5.127  -5.824 -16.318  1.00  0.00     0.161 HD
ENDROOT
BRANCH  14  16
HETATM   16  C13 UNL     1      -4.984  -6.786 -18.212  1.00  0.00     0.151 C
BRANCH  16  17
HETATM   17  C14 UNL     1      -5.440  -5.732 -19.195  1.00  0.00     0.292 C
BRANCH  17  18
HETATM   18  N3  UNL     1      -4.351  -4.972 -19.737  1.00  0.00     0.090 N
HETATM   19  C15 UNL     1      -3.527  -5.913 -20.508  1.00  0.00     0.272 C
HETATM   20  C16 UNL     1      -2.598  -5.051 -21.334  1.00  0.00     0.030 C
HETATM   21  C17 UNL     1      -1.818  -4.088 -20.523  1.00  0.00     0.003 C
HETATM   22  C18 UNL     1      -2.150  -4.064 -19.066  1.00  0.00     0.030 C
HETATM   23  C19 UNL     1      -3.523  -4.456 -18.695  1.00  0.00     0.272 C
ENDBRANCH  17  18
ENDBRANCH  16  17
ENDBRANCH  14  16
BRANCH   3  24
HETATM   24  C4  UNL     1      -8.447  -7.465 -13.325  1.00  0.00     0.419 C
HETATM   25  F1  UNL     1      -8.024  -6.709 -12.360  1.00  0.00    -0.166 F
HETATM   26  F2  UNL     1      -9.842  -7.207 -13.308  1.00  0.00    -0.166 F
HETATM   27  F3  UNL     1      -8.453  -8.760 -12.655  1.00  0.00    -0.166 F
ENDBRANCH   3  24
BRANCH   6  28
HETATM   28  O1  UNL     1     -11.055 -11.342 -15.222  1.00  0.00    -0.361 OA
ATOM     29  H1  UNL     1     -11.914 -10.939 -15.175  1.00  0.00     0.217 HD
ENDBRANCH   6  28
TORSDOF 5
ENDMDL