MODEL 1
REMARK VINA RESULT: -8.444658839      0.000      0.000
REMARK  7 active torsions:
REMARK  status: ('A' for Active; 'I' for Inactive)
REMARK    1  A    between atoms: N1_2  and  C3_4
REMARK    2  A    between atoms: C8_9  and  N2_10
REMARK    3  A    between atoms: N2_10  and  C9_12
REMARK    4  A    between atoms: C12_17  and  N4_18
REMARK    5  A    between atoms: N4_18  and  C13_20
REMARK    6  A    between atoms: C18_25  and  O1_26
REMARK    7  A    between atoms: O1_26  and  C19_27
ROOT
HETATM    1  C9  UNL     1      -6.075  -8.043 -18.530  1.00  0.00     0.122 A
HETATM    2  C10 UNL     1      -5.537  -7.142 -19.421  1.00  0.00     0.066 A
HETATM    3  C11 UNL     1      -5.786  -5.777 -19.267  1.00  0.00     0.110 A
HETATM    4  N3  UNL     1      -6.556  -5.381 -18.238  1.00  0.00    -0.202 N
ATOM      5  H3  UNL     1      -6.741  -4.385 -18.120  1.00  0.00     0.183 HD
HETATM    6  C12 UNL     1      -7.091  -6.247 -17.356  1.00  0.00     0.684 A
HETATM    7  N5  UNL     1      -6.837  -7.556 -17.526  1.00  0.00    -0.176 N
ATOM      8  H5  UNL     1      -7.240  -8.217 -16.861  1.00  0.00     0.186 HD
ENDROOT
BRANCH   6   9
HETATM    9  N4  UNL     1      -7.809  -5.799 -16.410  1.00  0.00    -0.189 N
ATOM     10  H4  UNL     1      -8.742  -5.469 -16.658  1.00  0.00     0.184 HD
BRANCH   9  11
HETATM   11  C13 UNL     1      -7.451  -5.709 -15.060  1.00  0.00     0.082 A
HETATM   12  C14 UNL     1      -6.473  -4.846 -14.654  1.00  0.00     0.033 A
HETATM   13  C15 UNL     1      -6.121  -4.758 -13.328  1.00  0.00     0.002 A
HETATM   14  C16 UNL     1      -6.759  -5.544 -12.406  1.00  0.00     0.003 A
HETATM   15  C17 UNL     1      -7.741  -6.418 -12.771  1.00  0.00     0.039 A
HETATM   16  C18 UNL     1      -8.078  -6.487 -14.125  1.00  0.00     0.105 A
BRANCH  16  17
HETATM   17  O1  UNL     1      -9.086  -7.396 -14.443  1.00  0.00    -0.253 OA
BRANCH  17  18
HETATM   18  C19 UNL     1      -8.772  -8.790 -14.476  1.00  0.00     0.530 C
HETATM   19  F1  UNL     1      -8.844  -9.359 -13.222  1.00  0.00    -0.144 F
HETATM   20  F2  UNL     1      -7.498  -9.013 -14.950  1.00  0.00    -0.144 F
HETATM   21  F3  UNL     1      -9.739  -9.394 -15.270  1.00  0.00    -0.144 F
ENDBRANCH  17  18
ENDBRANCH  16  17
ENDBRANCH   9  11
ENDBRANCH   6   9
BRANCH   1  22
HETATM   22  N2  UNL     1      -5.893  -9.323 -18.600  1.00  0.00    -0.340 N
ATOM     23  H2  UNL     1      -4.943  -9.676 -18.484  1.00  0.00     0.167 HD
BRANCH  22  24
HETATM   24  C8  UNL     1      -6.931 -10.267 -18.829  1.00  0.00     0.060 A
HETATM   25  C3  UNL     1      -6.902 -11.008 -19.984  1.00  0.00     0.056 A
HETATM   26  C4  UNL     1      -7.891 -11.947 -20.267  1.00  0.00     0.031 A
HETATM   27  C5  UNL     1      -8.901 -12.104 -19.343  1.00  0.00     0.002 A
HETATM   28  C6  UNL     1      -8.945 -11.370 -18.182  1.00  0.00     0.002 A
HETATM   29  C7  UNL     1      -7.954 -10.453 -17.933  1.00  0.00     0.032 A
BRANCH  25  30
HETATM   30  N1  UNL     1      -5.873 -10.871 -20.960  1.00  0.00    -0.388 N
HETATM   31  C1  UNL     1      -4.652 -11.604 -20.880  1.00  0.00     0.149 C
HETATM   32  C2  UNL     1      -6.136  -9.938 -22.047  1.00  0.00     0.149 C
ENDBRANCH  25  30
ENDBRANCH  22  24
ENDBRANCH   1  22
TORSDOF 7
ENDMDL