MODEL 5
REMARK VINA RESULT: -8.385220042      2.196      4.487
REMARK  6 active torsions:
REMARK  status: ('A' for Active; 'I' for Inactive)
REMARK    1  A    between atoms: C2_2  and  N1_3
REMARK    2  A    between atoms: N1_3  and  C3_5
REMARK    3  A    between atoms: C4_8  and  N3_9
REMARK    4  A    between atoms: C10_17  and  N5_18
REMARK    5  A    between atoms: N5_18  and  C11_20
REMARK    6  A    between atoms: C15_24  and  C16_25
ROOT
HETATM    1  C3  UNL     1      -4.504  -2.568 -17.026  1.00  0.00     0.707 A
HETATM    2  N2  UNL     1      -3.384  -3.173 -17.510  1.00  0.00    -0.021 N
ATOM      3  H2  UNL     1      -2.505  -2.663 -17.422  1.00  0.00     0.203 HD
HETATM    4  C4  UNL     1      -3.334  -4.370 -18.088  1.00  0.00     0.713 A
HETATM    5  N4  UNL     1      -4.499  -5.032 -18.201  1.00  0.00    -0.021 N
ATOM      6  H4  UNL     1      -4.505  -5.954 -18.638  1.00  0.00     0.203 HD
HETATM    7  C10 UNL     1      -5.667  -4.508 -17.746  1.00  0.00     0.711 A
HETATM    8  N6  UNL     1      -5.644  -3.287 -17.169  1.00  0.00    -0.021 N
ATOM      9  H6  UNL     1      -6.520  -2.891 -16.828  1.00  0.00     0.203 HD
ENDROOT
BRANCH   7  10
HETATM   10  N5  UNL     1      -6.702  -5.211 -17.943  1.00  0.00    -0.190 N
ATOM     11  H5  UNL     1      -7.194  -5.088 -18.827  1.00  0.00     0.184 HD
BRANCH  10  12
HETATM   12  C11 UNL     1      -7.228  -6.152 -17.030  1.00  0.00     0.061 A
HETATM   13  C12 UNL     1      -8.002  -5.789 -15.954  1.00  0.00    -0.033 A
HETATM   14  C13 UNL     1      -8.310  -4.335 -15.705  1.00  0.00     0.050 C
HETATM   15  C14 UNL     1      -8.506  -6.760 -15.099  1.00  0.00     0.025 A
HETATM   16  C15 UNL     1      -8.268  -8.100 -15.270  1.00  0.00     0.049 A
HETATM   17  C17 UNL     1      -7.476  -8.434 -16.370  1.00  0.00     0.025 A
HETATM   18  C18 UNL     1      -6.966  -7.489 -17.237  1.00  0.00    -0.033 A
HETATM   19  C19 UNL     1      -6.088  -7.969 -18.385  1.00  0.00     0.050 C
BRANCH  16  20
HETATM   20  C16 UNL     1      -8.737  -9.158 -14.353  1.00  0.00     0.417 C
HETATM   21  F1  UNL     1     -10.081  -9.457 -14.571  1.00  0.00    -0.166 F
HETATM   22  F2  UNL     1      -8.069 -10.344 -14.676  1.00  0.00    -0.166 F
HETATM   23  F3  UNL     1      -8.453  -8.841 -13.045  1.00  0.00    -0.166 F
ENDBRANCH  16  20
ENDBRANCH  10  12
ENDBRANCH   7  10
BRANCH   4  24
HETATM   24  N3  UNL     1      -2.086  -4.784 -18.625  1.00  0.00    -0.196 N
HETATM   25  C5  UNL     1      -1.978  -5.881 -19.503  1.00  0.00     0.082 C
HETATM   26  C6  UNL     1      -0.580  -6.326 -19.775  1.00  0.00     0.045 C
HETATM   27  C7  UNL     1       0.463  -5.274 -19.774  1.00  0.00     0.007 C
HETATM   28  C8  UNL     1      -0.050  -3.884 -19.550  1.00  0.00     0.021 C
HETATM   29  C9  UNL     1      -0.935  -3.990 -18.268  1.00  0.00     0.146 C
ENDBRANCH   4  24
BRANCH   1  30
HETATM   30  N1  UNL     1      -4.382  -1.446 -16.478  1.00  0.00    -0.225 N
ATOM     31  H1  UNL     1      -5.303  -1.056 -16.275  1.00  0.00     0.177 HD
BRANCH  30  32
HETATM   32  C2  UNL     1      -3.380  -0.557 -16.054  1.00  0.00     0.133 C
HETATM   33  C1  UNL     1      -3.939   0.873 -16.038  1.00  0.00     0.027 C
ENDBRANCH  30  32
ENDBRANCH   1  30
TORSDOF 6
ENDMDL