MODEL 2
REMARK VINA RESULT: -8.528700748      2.073      2.828
REMARK  5 active torsions:
REMARK  status: ('A' for Active; 'I' for Inactive)
REMARK    1  A    between atoms: C4_9  and  N3_10
REMARK    2  A    between atoms: C4_9  and  C18_26
REMARK    3  A    between atoms: N3_10  and  C5_12
REMARK    4  A    between atoms: C5_12  and  C6_13
REMARK    5  A    between atoms: C10_17  and  C11_18
ROOT
HETATM    1  N3  UNL     1      -6.349  -7.025 -15.366  1.00  0.00    -0.364 N
ATOM      2  H3  UNL     1      -6.883  -7.225 -14.520  1.00  0.00     0.161 HD
ENDROOT
BRANCH   1   3
HETATM    3  C4  UNL     1      -6.239  -5.695 -15.839  1.00  0.00     0.216 C
HETATM    4  N1  UNL     1      -5.929  -4.756 -14.848  1.00  0.00    -0.332 N
HETATM    5  C1  UNL     1      -6.181  -4.913 -13.403  1.00  0.00     0.154 C
HETATM    6  C2  UNL     1      -5.331  -3.533 -15.292  1.00  0.00     0.138 C
HETATM    7  N2  UNL     1      -5.150  -2.445 -14.616  1.00  0.00    -0.380 N
HETATM    8  S1  UNL     1      -4.904  -3.825 -17.002  1.00  0.00    -0.090 SA
ATOM      9  H22 UNL     1      -5.394  -2.279 -13.640  1.00  0.00     0.158 HD
ATOM     10  H21 UNL     1      -4.724  -1.573 -14.932  1.00  0.00     0.158 HD
HETATM   11  C3  UNL     1      -5.285  -5.605 -17.018  1.00  0.00     0.146 C
BRANCH   3  12
HETATM   12  C18 UNL     1      -7.645  -5.318 -16.361  1.00  0.00     0.432 C
HETATM   13  F1  UNL     1      -8.621  -6.111 -15.773  1.00  0.00    -0.166 F
HETATM   14  F2  UNL     1      -7.948  -4.005 -16.083  1.00  0.00    -0.166 F
HETATM   15  F3  UNL     1      -7.717  -5.610 -17.724  1.00  0.00    -0.166 F
ENDBRANCH   3  12
ENDBRANCH   1   3
BRANCH   1  16
HETATM   16  C5  UNL     1      -5.719  -8.068 -16.066  1.00  0.00     0.097 C
BRANCH  16  17
HETATM   17  C6  UNL     1      -6.675  -8.965 -16.795  1.00  0.00    -0.021 A
HETATM   18  C7  UNL     1      -7.868  -9.286 -16.202  1.00  0.00     0.013 A
HETATM   19  C8  UNL     1      -8.738 -10.098 -16.941  1.00  0.00     0.001 A
HETATM   20  C9  UNL     1      -8.379 -10.528 -18.200  1.00  0.00     0.008 A
HETATM   21  C10 UNL     1      -7.172 -10.197 -18.802  1.00  0.00    -0.049 A
HETATM   22  C17 UNL     1      -6.317  -9.392 -18.046  1.00  0.00     0.020 A
BRANCH  21  23
HETATM   23  C11 UNL     1      -6.783 -10.616 -20.175  1.00  0.00    -0.013 C
HETATM   24  C12 UNL     1      -5.279 -10.804 -20.212  1.00  0.00     0.020 C
HETATM   25  C13 UNL     1      -7.409 -11.950 -20.518  1.00  0.00     0.040 C
HETATM   26  C14 UNL     1      -8.188 -11.937 -21.789  1.00  0.00     0.168 C
HETATM   27  O1  UNL     1      -7.501 -11.412 -22.855  1.00  0.00    -0.391 OA
HETATM   28  C15 UNL     1      -6.926 -10.188 -22.603  1.00  0.00     0.168 C
HETATM   29  C16 UNL     1      -7.191  -9.631 -21.237  1.00  0.00     0.040 C
ENDBRANCH  21  23
ENDBRANCH  16  17
ENDBRANCH   1  16
TORSDOF 5
ENDMDL