MODEL 5
REMARK VINA RESULT: -8.523970418      1.104      1.547
REMARK  7 active torsions:
REMARK  status: ('A' for Active; 'I' for Inactive)
REMARK    1  A    between atoms: O1_1  and  C1_3
REMARK    2  A    between atoms: C4_6  and  N1_7
REMARK    3  A    between atoms: C7_10  and  O2_11
REMARK    4  A    between atoms: C10_15  and  C11_16
REMARK    5  A    between atoms: C11_16  and  C12_17
REMARK    6  A    between atoms: N2_23  and  C15_24
REMARK    7  A    between atoms: C15_24  and  C16_25
ROOT
HETATM    1  C1  UNL     1      -6.803  -9.632 -20.943  1.00  0.00     0.073 A
HETATM    2  C2  UNL     1      -6.954  -8.466 -20.182  1.00  0.00     0.039 A
HETATM    3  C3  UNL     1      -7.568  -8.528 -18.957  1.00  0.00     0.032 A
HETATM    4  C4  UNL     1      -8.038  -9.727 -18.468  1.00  0.00     0.030 A
HETATM    5  C9  UNL     1      -7.869 -10.843 -19.251  1.00  0.00     0.040 A
HETATM    6  C10 UNL     1      -7.248 -10.829 -20.510  1.00  0.00    -0.004 A
ENDROOT
BRANCH   6   7
HETATM    7  C11 UNL     1      -7.195 -12.068 -21.313  1.00  0.00     0.105 C
HETATM    8  C13 UNL     1      -7.917 -13.200 -20.575  1.00  0.00     0.045 C
HETATM    9  C14 UNL     1      -8.445 -14.065 -21.728  1.00  0.00     0.123 C
HETATM   10  N2  UNL     1      -8.554 -13.249 -22.852  1.00  0.00    -0.392 N
HETATM   11  C21 UNL     1      -7.967 -11.973 -22.593  1.00  0.00     0.145 C
BRANCH   7  12
HETATM   12  C12 UNL     1      -5.793 -12.533 -21.495  1.00  0.00     0.401 C
HETATM   13  F1  UNL     1      -5.320 -12.245 -22.782  1.00  0.00    -0.170 F
HETATM   14  F2  UNL     1      -5.512 -13.845 -21.304  1.00  0.00    -0.170 F
HETATM   15  F3  UNL     1      -4.928 -11.834 -20.624  1.00  0.00    -0.170 F
ENDBRANCH   7  12
BRANCH  10  16
HETATM   16  C15 UNL     1      -8.503 -13.763 -24.141  1.00  0.00     0.062 C
BRANCH  16  17
HETATM   17  C16 UNL     1      -9.173 -13.073 -25.260  1.00  0.00     0.024 C
HETATM   18  C17 UNL     1      -8.384 -12.883 -26.527  1.00  0.00     0.010 C
HETATM   19  C18 UNL     1      -9.455 -12.107 -27.341  1.00  0.00     0.001 C
HETATM   20  C19 UNL     1     -10.638 -13.064 -27.156  1.00  0.00     0.001 C
HETATM   21  C20 UNL     1     -10.415 -13.747 -25.801  1.00  0.00     0.010 C
ENDBRANCH  16  17
ENDBRANCH  10  16
ENDBRANCH   6   7
BRANCH   1  22
HETATM   22  O1  UNL     1      -6.159  -9.436 -22.155  1.00  0.00    -0.360 OA
ATOM     23  H1  UNL     1      -5.213  -9.511 -22.107  1.00  0.00     0.217 HD
ENDBRANCH   1  22
BRANCH   4  24
HETATM   24  N1  UNL     1      -8.677  -9.811 -17.196  1.00  0.00    -0.378 N
HETATM   25  C5  UNL     1      -8.341  -8.979 -16.068  1.00  0.00     0.125 C
HETATM   26  C6  UNL     1      -9.132  -9.508 -14.893  1.00  0.00     0.053 C
HETATM   27  C7  UNL     1      -9.779 -10.798 -15.349  1.00  0.00     0.137 C
HETATM   28  C8  UNL     1      -9.740 -10.729 -16.859  1.00  0.00     0.154 C
BRANCH  27  29
HETATM   29  O2  UNL     1     -11.118 -10.856 -14.967  1.00  0.00    -0.394 OA
ATOM     30  H2  UNL     1     -11.218 -10.714 -14.034  1.00  0.00     0.210 HD
ENDBRANCH  27  29
ENDBRANCH   4  24
TORSDOF 7
ENDMDL