MODEL 4
REMARK VINA RESULT: -7.643625345      4.444      6.699
REMARK  7 active torsions:
REMARK  status: ('A' for Active; 'I' for Inactive)
REMARK    1  A    between atoms: N1_8  and  O1_10
REMARK    2  A    between atoms: C8_12  and  N2_13
REMARK    3  A    between atoms: N2_13  and  C9_14
REMARK    4  A    between atoms: C12_17  and  C13_18
REMARK    5  A    between atoms: C15_25  and  C16_26
REMARK    6  A    between atoms: C17_27  and  C18_28
REMARK    7  A    between atoms: C18_28  and  N4_29
ROOT
HETATM    1  C1  UNL     1      -4.203  -6.240 -15.273  1.00  0.00     0.044 C
HETATM    2  C2  UNL     1      -4.357  -6.316 -16.780  1.00  0.00    -0.075 C
HETATM    3  C3  UNL     1      -3.882  -5.316 -17.457  1.00  0.00    -0.009 C
HETATM    4  C4  UNL     1      -4.013  -5.347 -18.982  1.00  0.00     0.014 C
HETATM    5  C5  UNL     1      -2.633  -4.868 -19.439  1.00  0.00     0.025 C
HETATM    6  C6  UNL     1      -5.069  -4.412 -19.476  1.00  0.00     0.025 C
HETATM    7  C7  UNL     1      -4.266  -6.722 -19.287  1.00  0.00     0.058 C
HETATM    8  N1  UNL     1      -3.548  -7.528 -19.904  1.00  0.00    -0.273 N
ATOM      9  H1  UNL     1      -3.948  -8.460 -20.005  1.00  0.00     0.193 HD
HETATM   10  C8  UNL     1      -5.544  -7.349 -18.666  1.00  0.00     0.225 C
HETATM   11  C15 UNL     1      -5.086  -7.528 -17.246  1.00  0.00     0.078 C
ENDROOT
BRANCH  10  12
HETATM   12  N2  UNL     1      -6.012  -8.399 -19.380  1.00  0.00    -0.418 NA
BRANCH  12  13
HETATM   13  C9  UNL     1      -6.513  -9.386 -19.775  1.00  0.00     0.173 A
HETATM   14  C10 UNL     1      -7.246 -10.199 -18.886  1.00  0.00     0.064 A
HETATM   15  C11 UNL     1      -7.867 -11.362 -19.263  1.00  0.00     0.022 A
HETATM   16  C12 UNL     1      -7.773 -11.767 -20.575  1.00  0.00     0.063 A
HETATM   17  C14 UNL     1      -7.054 -10.973 -21.437  1.00  0.00     0.106 A
HETATM   18  N3  UNL     1      -6.442  -9.820 -21.064  1.00  0.00    -0.341 N
ATOM     19  H3  UNL     1      -5.925  -9.274 -21.755  1.00  0.00     0.167 HD
BRANCH  16  20
HETATM   20  C13 UNL     1      -8.436 -13.021 -21.068  1.00  0.00     0.418 C
HETATM   21  F1  UNL     1      -9.718 -13.034 -20.551  1.00  0.00    -0.166 F
HETATM   22  F2  UNL     1      -8.466 -13.132 -22.419  1.00  0.00    -0.166 F
HETATM   23  F3  UNL     1      -7.784 -14.128 -20.505  1.00  0.00    -0.166 F
ENDBRANCH  16  20
ENDBRANCH  12  13
ENDBRANCH  10  12
BRANCH  11  24
HETATM   24  C16 UNL     1      -6.147  -7.894 -16.301  1.00  0.00    -0.013 C
HETATM   25  C17 UNL     1      -7.381  -7.479 -16.335  1.00  0.00     0.013 C
BRANCH  25  26
HETATM   26  C18 UNL     1      -8.427  -7.915 -15.327  1.00  0.00     0.084 C
BRANCH  26  27
HETATM   27  N4  UNL     1      -8.548  -7.019 -14.282  1.00  0.00    -0.398 N
HETATM   28  C19 UNL     1      -8.029  -7.266 -13.012  1.00  0.00     0.148 C
HETATM   29  C20 UNL     1      -8.758  -5.656 -14.532  1.00  0.00     0.148 C
ENDBRANCH  26  27
ENDBRANCH  25  26
ENDBRANCH  11  24
BRANCH   8  30
HETATM   30  O1  UNL     1      -2.328  -7.377 -20.463  1.00  0.00    -0.290 OA
ATOM     31  H1  UNL     1      -1.459  -7.443 -20.086  1.00  0.00     0.244 HD
ENDBRANCH   8  30
TORSDOF 7
ENDMDL