MODEL 3
REMARK VINA RESULT: -7.968524855      0.379      1.010
REMARK  7 active torsions:
REMARK  status: ('A' for Active; 'I' for Inactive)
REMARK    1  A    between atoms: C2_2  and  N1_4
REMARK    2  A    between atoms: C4_5  and  C5_6
REMARK    3  A    between atoms: C8_9  and  N2_10
REMARK    4  A    between atoms: C11_13  and  N3_14
REMARK    5  A    between atoms: C16_22  and  C17_23
REMARK    6  A    between atoms: C17_23  and  N4_24
REMARK    7  A    between atoms: C19_29  and  C21_31
ROOT
HETATM    1  N1  UNL     1      -6.364  -6.387 -16.184  1.00  0.00    -0.358 N
HETATM    2  C4  UNL     1      -7.107  -7.551 -16.466  1.00  0.00     0.046 C
HETATM    3  C16 UNL     1      -7.899  -7.861 -15.434  1.00  0.00    -0.025 C
HETATM    4  C18 UNL     1      -7.682  -6.858 -14.359  1.00  0.00     0.078 C
HETATM    5  C19 UNL     1      -7.138  -5.691 -15.132  1.00  0.00     0.131 C
HETATM    6  C20 UNL     1      -6.217  -4.860 -14.266  1.00  0.00     0.048 C
ENDROOT
BRANCH   2   7
HETATM    7  C5  UNL     1      -7.127  -8.328 -17.695  1.00  0.00    -0.009 A
HETATM    8  C6  UNL     1      -7.041  -9.692 -17.713  1.00  0.00     0.016 A
HETATM    9  C7  UNL     1      -7.029 -10.396 -18.932  1.00  0.00     0.030 A
HETATM   10  C8  UNL     1      -7.101  -9.768 -20.142  1.00  0.00     0.030 A
HETATM   11  C14 UNL     1      -7.189  -8.372 -20.135  1.00  0.00     0.030 A
HETATM   12  C15 UNL     1      -7.200  -7.703 -18.942  1.00  0.00     0.016 A
BRANCH  10  13
HETATM   13  N2  UNL     1      -7.100 -10.482 -21.368  1.00  0.00    -0.381 N
HETATM   14  C9  UNL     1      -7.134  -9.847 -22.660  1.00  0.00     0.125 C
HETATM   15  C10 UNL     1      -6.057 -10.515 -23.523  1.00  0.00     0.052 C
HETATM   16  C11 UNL     1      -6.495 -11.929 -23.764  1.00  0.00     0.186 C
HETATM   17  C12 UNL     1      -7.525 -12.386 -22.751  1.00  0.00     0.052 C
HETATM   18  C13 UNL     1      -7.065 -11.943 -21.370  1.00  0.00     0.125 C
BRANCH  16  19
HETATM   19  N3  UNL     1      -7.074 -12.000 -25.070  1.00  0.00    -0.075 N
ATOM     20  H33 UNL     1      -7.992 -12.446 -25.071  1.00  0.00     0.274 HD
ATOM     21  H32 UNL     1      -7.364 -11.088 -25.423  1.00  0.00     0.274 HD
ATOM     22  H31 UNL     1      -6.409 -12.468 -25.688  1.00  0.00     0.274 HD
ENDBRANCH  16  19
ENDBRANCH  10  13
ENDBRANCH   2   7
BRANCH   1  23
HETATM   23  C2  UNL     1      -5.135  -5.866 -16.708  1.00  0.00     0.077 C
HETATM   24  C1  UNL     1      -5.291  -4.911 -17.856  1.00  0.00     0.032 C
HETATM   25  C3  UNL     1      -4.070  -6.865 -17.011  1.00  0.00     0.032 C
ENDBRANCH   1  23
BRANCH   3  26
HETATM   26  C17 UNL     1      -8.837  -8.995 -15.308  1.00  0.00     0.266 C
BRANCH  26  27
HETATM   27  N4  UNL     1      -9.148  -9.236 -13.885  1.00  0.00    -0.076 N
ATOM     28  H43 UNL     1      -8.943 -10.195 -13.606  1.00  0.00     0.274 HD
ATOM     29  H42 UNL     1      -8.496  -8.757 -13.264  1.00  0.00     0.274 HD
ATOM     30  H41 UNL     1     -10.117  -8.981 -13.693  1.00  0.00     0.274 HD
ENDBRANCH  26  27
ENDBRANCH   3  26
BRANCH   5  31
HETATM   31  C21 UNL     1      -8.260  -4.875 -15.697  1.00  0.00     0.412 C
HETATM   32  F1  UNL     1      -9.456  -5.065 -15.078  1.00  0.00    -0.168 F
HETATM   33  F2  UNL     1      -7.915  -3.540 -15.496  1.00  0.00    -0.168 F
HETATM   34  F3  UNL     1      -8.447  -5.107 -17.050  1.00  0.00    -0.168 F
ENDBRANCH   5  31
TORSDOF 7
ENDMDL