MODEL 1
REMARK VINA RESULT: -7.840903804      0.000      0.000
REMARK  6 active torsions:
REMARK  status: ('A' for Active; 'I' for Inactive)
REMARK    1  A    between atoms: N2_8  and  C7_9
REMARK    2  A    between atoms: C7_9  and  C8_10
REMARK    3  A    between atoms: C8_10  and  C9_11
REMARK    4  A    between atoms: C9_11  and  N3_12
REMARK    5  A    between atoms: C10_13  and  O1_14
REMARK    6  A    between atoms: C13_18  and  O2_19
ROOT
HETATM    1  N3  UNL     1      -5.622  -5.126 -15.475  1.00  0.00    -0.308 N
HETATM    2  C10 UNL     1      -4.484  -5.755 -15.816  1.00  0.00     0.151 A
HETATM    3  C11 UNL     1      -4.021  -5.268 -17.013  1.00  0.00     0.008 A
HETATM    4  C12 UNL     1      -4.916  -4.309 -17.410  1.00  0.00     0.014 A
HETATM    5  C13 UNL     1      -5.895  -4.240 -16.448  1.00  0.00     0.151 A
HETATM    6  C14 UNL     1      -4.474  -3.732 -18.713  1.00  0.00     0.096 C
HETATM    7  C15 UNL     1      -2.973  -3.961 -18.637  1.00  0.00     0.025 C
HETATM    8  C16 UNL     1      -2.943  -5.357 -18.062  1.00  0.00     0.025 C
HETATM    9  C17 UNL     1      -3.378  -6.334 -19.103  1.00  0.00     0.015 C
HETATM   10  C18 UNL     1      -4.126  -5.697 -20.242  1.00  0.00     0.080 C
HETATM   11  C19 UNL     1      -5.044  -4.583 -19.805  1.00  0.00     0.251 C
HETATM   12  F1  UNL     1      -5.203  -3.754 -20.926  1.00  0.00    -0.206 F
HETATM   13  F2  UNL     1      -6.313  -5.050 -19.519  1.00  0.00    -0.206 F
ENDROOT
BRANCH   1  14
HETATM   14  C9  UNL     1      -6.419  -5.349 -14.294  1.00  0.00     0.135 C
BRANCH  14  15
HETATM   15  C8  UNL     1      -7.685  -6.121 -14.510  1.00  0.00     0.040 C
BRANCH  15  16
HETATM   16  C7  UNL     1      -7.505  -7.597 -14.270  1.00  0.00     0.128 C
BRANCH  16  17
HETATM   17  N2  UNL     1      -7.641  -8.392 -15.430  1.00  0.00    -0.372 N
HETATM   18  C6  UNL     1      -8.848  -8.951 -15.798  1.00  0.00     0.093 C
HETATM   19  C5  UNL     1      -8.779 -10.208 -16.628  1.00  0.00     0.316 C
HETATM   20  N1  UNL     1      -8.334  -9.966 -17.987  1.00  0.00     0.089 N
HETATM   21  C3  UNL     1      -6.866  -9.925 -18.070  1.00  0.00     0.281 C
HETATM   22  C4  UNL     1      -8.720 -11.058 -18.871  1.00  0.00     0.310 C
HETATM   23  C2  UNL     1      -6.340  -8.655 -17.493  1.00  0.00     0.048 C
HETATM   24  C1  UNL     1      -7.101  -7.489 -18.049  1.00  0.00     0.017 C
HETATM   25  C20 UNL     1      -6.419  -8.771 -15.988  1.00  0.00     0.069 C
ENDBRANCH  16  17
ENDBRANCH  15  16
ENDBRANCH  14  15
ENDBRANCH   1  14
BRANCH   2  26
HETATM   26  O1  UNL     1      -3.796  -6.763 -15.128  1.00  0.00    -0.345 OA
ATOM     27  H1  UNL     1      -3.079  -7.308 -15.429  1.00  0.00     0.219 HD
ENDBRANCH   2  26
BRANCH   5  28
HETATM   28  O2  UNL     1      -7.010  -3.366 -16.483  1.00  0.00    -0.345 OA
ATOM     29  H2  UNL     1      -7.229  -2.774 -17.193  1.00  0.00     0.219 HD
ENDBRANCH   5  28
TORSDOF 6
ENDMDL