MODEL 1
REMARK VINA RESULT: -8.963959195      0.000      0.000
REMARK  6 active torsions:
REMARK  status: ('A' for Active; 'I' for Inactive)
REMARK    1  A    between atoms: C4_4  and  C5_5
REMARK    2  A    between atoms: N1_11  and  C8_12
REMARK    3  A    between atoms: C8_12  and  C9_13
REMARK    4  A    between atoms: C9_13  and  N2_14
REMARK    5  A    between atoms: C11_16  and  C12_17
REMARK    6  A    between atoms: C18_23  and  N3_24
ROOT
HETATM    1  N2  UNL     1      -6.071  -7.875 -17.532  1.00  0.00    -0.340 N
HETATM    2  C10 UNL     1      -6.955  -8.468 -16.738  1.00  0.00     0.101 A
HETATM    3  C11 UNL     1      -7.493  -9.605 -17.352  1.00  0.00    -0.021 A
HETATM    4  C17 UNL     1      -6.868  -9.660 -18.586  1.00  0.00     0.060 A
HETATM    5  C18 UNL     1      -6.932 -10.510 -19.663  1.00  0.00     0.114 A
HETATM    6  N4  UNL     1      -6.163 -10.283 -20.762  1.00  0.00    -0.338 N
ATOM      7  H4  UNL     1      -6.214 -10.916 -21.561  1.00  0.00     0.168 HD
HETATM    8  C19 UNL     1      -5.346  -9.238 -20.793  1.00  0.00     0.183 A
HETATM    9  N5  UNL     1      -5.241  -8.386 -19.786  1.00  0.00    -0.338 N
ATOM     10  H5  UNL     1      -4.602  -7.593 -19.846  1.00  0.00     0.168 HD
HETATM   11  C20 UNL     1      -5.991  -8.579 -18.675  1.00  0.00     0.123 A
ENDROOT
BRANCH   1  12
HETATM   12  C9  UNL     1      -5.308  -6.679 -17.241  1.00  0.00     0.160 C
BRANCH  12  13
HETATM   13  C8  UNL     1      -6.229  -5.506 -17.220  1.00  0.00     0.293 C
BRANCH  13  14
HETATM   14  N1  UNL     1      -6.698  -5.111 -15.922  1.00  0.00     0.094 N
HETATM   15  C2  UNL     1      -8.070  -5.527 -15.763  1.00  0.00     0.219 C
HETATM   16  C1  UNL     1      -9.032  -4.386 -16.055  1.00  0.00     0.043 C
HETATM   17  C3  UNL     1      -8.378  -6.062 -14.399  1.00  0.00     0.049 C
HETATM   18  C4  UNL     1      -7.684  -5.230 -13.317  1.00  0.00     0.097 C
HETATM   19  C6  UNL     1      -6.177  -5.301 -13.526  1.00  0.00     0.044 C
HETATM   20  C7  UNL     1      -5.895  -5.793 -14.929  1.00  0.00     0.273 C
BRANCH  18  21
HETATM   21  C5  UNL     1      -8.094  -5.791 -11.993  1.00  0.00     0.391 C
HETATM   22  F1  UNL     1      -9.412  -6.209 -12.087  1.00  0.00    -0.171 F
HETATM   23  F2  UNL     1      -7.325  -6.873 -11.610  1.00  0.00    -0.171 F
HETATM   24  F3  UNL     1      -8.064  -4.836 -10.988  1.00  0.00    -0.171 F
ENDBRANCH  18  21
ENDBRANCH  13  14
ENDBRANCH  12  13
ENDBRANCH   1  12
BRANCH   3  25
HETATM   25  C12 UNL     1      -8.512 -10.508 -16.786  1.00  0.00     0.021 C
HETATM   26  C13 UNL     1      -8.828  -9.966 -15.363  1.00  0.00     0.009 C
HETATM   27  C14 UNL     1     -10.038 -10.799 -14.995  1.00  0.00     0.001 C
HETATM   28  C15 UNL     1     -10.776 -10.953 -16.325  1.00  0.00     0.001 C
HETATM   29  C16 UNL     1      -9.898 -10.305 -17.376  1.00  0.00     0.009 C
ENDBRANCH   3  25
BRANCH   5  30
HETATM   30  N3  UNL     1      -7.672 -11.511 -19.683  1.00  0.00    -0.385 N
ATOM     31  H32 UNL     1      -8.388 -11.576 -18.959  1.00  0.00     0.157 HD
ATOM     32  H31 UNL     1      -7.587 -12.242 -20.389  1.00  0.00     0.157 HD
ENDBRANCH   5  30
TORSDOF 6
ENDMDL