MODEL 1
REMARK VINA RESULT: -8.132533027      0.000      0.000
REMARK  7 active torsions:
REMARK  status: ('A' for Active; 'I' for Inactive)
REMARK    1  A    between atoms: C2_2  and  C3_3
REMARK    2  A    between atoms: C3_3  and  O1_4
REMARK    3  A    between atoms: C3_3  and  N1_6
REMARK    4  A    between atoms: C9_12  and  N2_13
REMARK    5  A    between atoms: N2_13  and  C10_15
REMARK    6  A    between atoms: C11_16  and  C12_17
REMARK    7  A    between atoms: C15_24  and  C16_25
ROOT
HETATM    1  N2  UNL     1      -6.681  -9.581 -17.069  1.00  0.00    -0.382 N
ATOM      2  H2  UNL     1      -6.065 -10.218 -16.564  1.00  0.00     0.160 HD
ENDROOT
BRANCH   1   3
HETATM    3  C9  UNL     1      -6.163  -8.299 -17.245  1.00  0.00     0.082 C
HETATM    4  C8  UNL     1      -7.125  -7.223 -17.658  1.00  0.00     0.026 C
HETATM    5  C7  UNL     1      -6.353  -5.947 -17.933  1.00  0.00     0.013 C
HETATM    6  C6  UNL     1      -5.654  -5.535 -16.671  1.00  0.00    -0.022 C
HETATM    7  C5  UNL     1      -6.549  -5.291 -15.499  1.00  0.00     0.031 C
HETATM    8  C18 UNL     1      -4.645  -6.619 -16.317  1.00  0.00     0.013 C
HETATM    9  C19 UNL     1      -5.010  -4.230 -16.889  1.00  0.00     0.134 C
HETATM   10  C4  UNL     1      -5.566  -4.444 -14.628  1.00  0.00     0.125 C
HETATM   11  N1  UNL     1      -5.050  -3.497 -15.579  1.00  0.00    -0.361 N
HETATM   12  C17 UNL     1      -5.346  -7.894 -16.006  1.00  0.00     0.026 C
BRANCH  11  13
HETATM   13  C3  UNL     1      -4.559  -2.192 -15.502  1.00  0.00     0.137 C
BRANCH  13  14
HETATM   14  C2  UNL     1      -3.769  -1.543 -16.483  1.00  0.00     0.045 C
HETATM   15  C1  UNL     1      -2.815  -0.703 -16.314  1.00  0.00     0.015 C
ENDBRANCH  13  14
BRANCH  13  16
HETATM   16  O1  UNL     1      -4.861  -1.519 -14.420  1.00  0.00    -0.346 OA
ATOM     17  H1  UNL     1      -4.386  -1.727 -13.624  1.00  0.00     0.219 HD
ENDBRANCH  13  16
ENDBRANCH  11  13
ENDBRANCH   1   3
BRANCH   1  18
HETATM   18  C10 UNL     1      -7.894 -10.148 -17.462  1.00  0.00     0.086 A
HETATM   19  C11 UNL     1      -8.123 -10.696 -18.720  1.00  0.00     0.058 A
HETATM   20  N3  UNL     1      -9.466 -11.006 -18.714  1.00  0.00    -0.302 N
HETATM   21  N4  UNL     1      -9.984 -10.676 -17.559  1.00  0.00    -0.294 N
ATOM     22  H3  UNL     1      -9.977 -11.427 -19.489  1.00  0.00     0.186 HD
HETATM   23  C15 UNL     1      -9.075 -10.130 -16.723  1.00  0.00     0.161 A
ATOM     24  H4  UNL     1     -10.965 -10.815 -17.317  1.00  0.00     0.187 HD
BRANCH  19  25
HETATM   25  C12 UNL     1      -7.170 -11.064 -19.795  1.00  0.00     0.031 C
HETATM   26  C13 UNL     1      -7.095  -9.870 -20.812  1.00  0.00     0.016 C
HETATM   27  C14 UNL     1      -7.928 -12.108 -20.734  1.00  0.00     0.016 C
ENDBRANCH  19  25
BRANCH  23  28
HETATM   28  C16 UNL     1      -9.296  -9.562 -15.384  1.00  0.00     0.436 C
HETATM   29  F1  UNL     1      -8.490 -10.314 -14.492  1.00  0.00    -0.165 F
HETATM   30  F2  UNL     1      -9.160  -8.231 -15.203  1.00  0.00    -0.165 F
HETATM   31  F3  UNL     1     -10.603  -9.879 -14.941  1.00  0.00    -0.165 F
ENDBRANCH  23  28
ENDBRANCH   1  18
TORSDOF 7
ENDMDL