MODEL 5
REMARK VINA RESULT: -7.624179225      4.308      5.514
REMARK  6 active torsions:
REMARK  status: ('A' for Active; 'I' for Inactive)
REMARK    1  A    between atoms: C5_5  and  O1_6
REMARK    2  A    between atoms: C6_8  and  N1_9
REMARK       I    between atoms: N1_9  and  C7_11
REMARK    3  A    between atoms: C7_11  and  C8_13
REMARK    4  A    between atoms: C8_13  and  C9_14
REMARK    5  A    between atoms: C9_14  and  N2_15
REMARK    6  A    between atoms: C10_16  and  C11_17
ROOT
HETATM    1  N2  UNL     1      -6.755  -6.905 -16.741  1.00  0.00    -0.362 N
HETATM    2  C10 UNL     1      -5.944  -5.973 -16.069  1.00  0.00     0.194 C
HETATM    3  C12 UNL     1      -6.508  -5.287 -14.877  1.00  0.00     0.054 C
HETATM    4  C13 UNL     1      -7.681  -5.902 -14.214  1.00  0.00     0.005 C
HETATM    5  C14 UNL     1      -7.667  -5.513 -12.739  1.00  0.00     0.026 C
HETATM    6  C15 UNL     1      -9.005  -5.481 -14.811  1.00  0.00     0.026 C
HETATM    7  S1  UNL     1      -7.441  -7.698 -14.250  1.00  0.00    -0.129 SA
HETATM    8  C16 UNL     1      -7.171  -8.072 -16.036  1.00  0.00     0.074 C
HETATM    9  C17 UNL     1      -8.563  -8.509 -16.483  1.00  0.00     0.050 C
HETATM   10  C18 UNL     1      -6.305  -9.286 -16.170  1.00  0.00     0.050 C
ENDROOT
BRANCH   1  11
HETATM   11  C9  UNL     1      -6.465  -7.148 -18.103  1.00  0.00     0.070 C
BRANCH  11  12
HETATM   12  C8  UNL     1      -6.600  -6.117 -19.112  1.00  0.00     0.147 C
BRANCH  12  13
HETATM   13  C7  UNL     1      -5.382  -5.636 -19.778  1.00  0.00     0.222 C
HETATM   14  N1  UNL     1      -4.125  -6.329 -19.602  1.00  0.00    -0.353 N
ATOM     15  H1  UNL     1      -4.102  -7.157 -19.005  1.00  0.00     0.163 HD
HETATM   16  O2  UNL     1      -5.322  -4.639 -20.521  1.00  0.00    -0.273 OA
BRANCH  14  17
HETATM   17  C6  UNL     1      -2.899  -5.895 -20.236  1.00  0.00     0.116 C
HETATM   18  C2  UNL     1      -1.860  -5.683 -19.163  1.00  0.00     0.007 C
HETATM   19  C1  UNL     1      -1.596  -4.200 -19.021  1.00  0.00     0.012 C
HETATM   20  C3  UNL     1      -0.640  -6.444 -19.564  1.00  0.00     0.009 C
HETATM   21  C4  UNL     1      -0.913  -7.044 -20.918  1.00  0.00     0.034 C
HETATM   22  C5  UNL     1      -2.366  -6.889 -21.220  1.00  0.00     0.141 C
BRANCH  22  23
HETATM   23  O1  UNL     1      -2.442  -6.350 -22.522  1.00  0.00    -0.394 OA
ATOM     24  H1  UNL     1      -2.888  -7.000 -23.053  1.00  0.00     0.210 HD
ENDBRANCH  22  23
ENDBRANCH  14  17
ENDBRANCH  12  13
ENDBRANCH  11  12
ENDBRANCH   1  11
BRANCH   2  25
HETATM   25  C11 UNL     1      -4.525  -6.349 -15.727  1.00  0.00     0.407 C
HETATM   26  F1  UNL     1      -3.643  -5.540 -16.507  1.00  0.00    -0.169 F
HETATM   27  F2  UNL     1      -4.137  -6.013 -14.447  1.00  0.00    -0.169 F
HETATM   28  F3  UNL     1      -4.214  -7.664 -15.927  1.00  0.00    -0.169 F
ENDBRANCH   2  25
TORSDOF 6
ENDMDL