MODEL 5
REMARK VINA RESULT: -8.738838938      1.681      3.248
REMARK  2 active torsions:
REMARK  status: ('A' for Active; 'I' for Inactive)
REMARK    1  A    between atoms: O1_2  and  C2_3
REMARK    2  A    between atoms: C16_20  and  O5_21
ROOT
HETATM    1  C2  UNL     1      79.853  50.243 -36.628  1.00  0.00     0.299 C
HETATM    2  O2  UNL     1      80.974  51.024 -36.637  1.00  0.00    -0.356 OA
HETATM    3  C3  UNL     1      82.135  50.434 -36.236  1.00  0.00     0.180 C
HETATM    4  C4  UNL     1      82.323  49.012 -36.800  1.00  0.00     0.048 C
HETATM    5  C5  UNL     1      83.715  48.631 -36.449  1.00  0.00     0.011 C
HETATM    6  C6  UNL     1      83.903  47.161 -36.604  1.00  0.00     0.004 C
HETATM    7  C7  UNL     1      84.152  46.604 -35.223  1.00  0.00     0.038 C
HETATM    8  C8  UNL     1      83.151  45.563 -34.902  1.00  0.00     0.070 C
HETATM    9  C9  UNL     1      83.138  45.150 -33.454  1.00  0.00     0.038 C
HETATM   10  C10 UNL     1      84.464  44.970 -32.836  1.00  0.00     0.003 C
HETATM   11  C11 UNL     1      84.779  43.478 -32.705  1.00  0.00     0.000 C
HETATM   12  C12 UNL     1      84.369  42.736 -33.948  1.00  0.00     0.000 C
HETATM   13  C13 UNL     1      84.708  43.598 -35.139  1.00  0.00     0.003 C
HETATM   14  C14 UNL     1      83.491  44.303 -35.702  1.00  0.00     0.038 C
HETATM   15  O3  UNL     1      81.869  45.935 -35.264  1.00  0.00    -0.319 OA
HETATM   16  C15 UNL     1      81.047  47.008 -35.503  1.00  0.00     0.196 A
HETATM   17  O4  UNL     1      79.789  46.967 -35.107  1.00  0.00    -0.263 OA
HETATM   18  C16 UNL     1      79.155  48.061 -35.414  1.00  0.00     0.197 A
HETATM   19  C17 UNL     1      80.048  48.880 -36.057  1.00  0.00     0.066 A
HETATM   20  C18 UNL     1      81.267  48.206 -36.116  1.00  0.00     0.022 A
ENDROOT
BRANCH  18  21
HETATM   21  O5  UNL     1      77.805  48.374 -35.150  1.00  0.00    -0.340 OA
ATOM     22  H5  UNL     1      77.372  49.211 -35.267  1.00  0.00     0.220 HD
ENDBRANCH  18  21
BRANCH   1  23
HETATM   23  O1  UNL     1      78.867  50.912 -35.918  1.00  0.00    -0.362 OA
HETATM   24  C1  UNL     1      79.083  52.278 -36.001  1.00  0.00     0.205 C
ENDBRANCH   1  23
TORSDOF 2
ENDMDL