MODEL 3
REMARK VINA RESULT: -8.828520787      2.980      7.391
REMARK  1 active torsions:
REMARK  status: ('A' for Active; 'I' for Inactive)
REMARK    1  A    between atoms: C8_11  and  C9_12
ROOT
HETATM    1  C1  UNL     1      85.307  40.874 -34.864  1.00  0.00     0.000 C
HETATM    2  C2  UNL     1      83.831  41.096 -34.994  1.00  0.00     0.003 C
HETATM    3  C3  UNL     1      83.343  42.383 -34.442  1.00  0.00     0.043 C
HETATM    4  C4  UNL     1      84.231  43.556 -34.649  1.00  0.00     0.120 C
HETATM    5  C5  UNL     1      85.692  43.256 -34.623  1.00  0.00     0.043 C
HETATM    6  C6  UNL     1      85.994  42.067 -35.534  1.00  0.00     0.003 C
HETATM    7  C7  UNL     1      83.943  44.564 -33.546  1.00  0.00     0.277 C
HETATM    8  N1  UNL     1      84.052  45.879 -34.151  1.00  0.00    -0.037 N
ATOM      9  H11 UNL     1      84.945  46.035 -34.618  1.00  0.00     0.280 HD
ATOM     10  H12 UNL     1      84.132  46.632 -33.468  1.00  0.00     0.280 HD
HETATM   11  C8  UNL     1      82.908  46.022 -35.035  1.00  0.00     0.408 C
HETATM   12  O1  UNL     1      82.862  44.900 -35.817  1.00  0.00    -0.200 OA
HETATM   13  O2  UNL     1      83.956  44.209 -35.863  1.00  0.00    -0.225 OA
ENDROOT
BRANCH  11  14
HETATM   14  C9  UNL     1      83.031  47.293 -35.854  1.00  0.00     0.082 A
HETATM   15  N2  UNL     1      84.101  47.415 -36.639  1.00  0.00    -0.325 N
HETATM   16  S1  UNL     1      83.916  48.914 -37.372  1.00  0.00    -0.018 SA
ATOM     17  H2  UNL     1      84.862  46.747 -36.765  1.00  0.00     0.174 HD
HETATM   18  C10 UNL     1      82.444  49.376 -36.652  1.00  0.00     0.008 A
HETATM   19  C11 UNL     1      82.151  48.307 -35.846  1.00  0.00    -0.012 A
HETATM   20  C17 UNL     1      81.586  50.600 -36.781  1.00  0.00     0.048 C
HETATM   21  C12 UNL     1      80.867  48.385 -35.042  1.00  0.00     0.026 C
HETATM   22  C13 UNL     1      79.857  47.336 -35.522  1.00  0.00     0.010 C
HETATM   23  C15 UNL     1      79.938  49.420 -35.497  1.00  0.00    -0.006 C
HETATM   24  C14 UNL     1      78.795  48.429 -35.404  1.00  0.00     0.006 C
HETATM   25  C16 UNL     1      80.157  50.035 -36.827  1.00  0.00     0.010 C
ENDBRANCH  11  14
TORSDOF 1
ENDMDL