MODEL 1
REMARK VINA RESULT: -7.674271988      0.000      0.000
REMARK  2 active torsions:
REMARK  status: ('A' for Active; 'I' for Inactive)
REMARK    1  A    between atoms: C8_8  and  O1_9
REMARK    2  A    between atoms: C13_18  and  O2_19
ROOT
HETATM    1  C1  UNL     1      85.381  49.094 -37.494  1.00  0.00     0.022 C
HETATM    2  C2  UNL     1      84.120  48.798 -37.239  1.00  0.00    -0.031 C
HETATM    3  C3  UNL     1      83.759  47.558 -36.547  1.00  0.00    -0.037 C
HETATM    4  C4  UNL     1      82.652  47.592 -35.816  1.00  0.00    -0.013 C
HETATM    5  C5  UNL     1      81.778  48.751 -35.649  1.00  0.00     0.053 C
HETATM    6  C6  UNL     1      81.987  49.884 -36.575  1.00  0.00     0.019 C
HETATM    7  C7  UNL     1      80.643  50.244 -37.223  1.00  0.00     0.013 C
HETATM    8  C8  UNL     1      83.011  49.699 -37.634  1.00  0.00     0.155 C
HETATM    9  S1  UNL     1      82.212  46.078 -34.970  1.00  0.00    -0.109 SA
HETATM   10  C9  UNL     1      83.743  45.174 -34.622  1.00  0.00     0.098 C
HETATM   11  C10 UNL     1      84.929  45.753 -35.314  1.00  0.00     0.040 C
HETATM   12  C11 UNL     1      84.595  46.354 -36.671  1.00  0.00     0.042 C
HETATM   13  S2  UNL     1      83.991  45.274 -32.798  1.00  0.00    -0.073 SA
HETATM   14  S3  UNL     1      84.773  43.262 -32.658  1.00  0.00    -0.093 SA
HETATM   15  C12 UNL     1      84.655  42.900 -34.461  1.00  0.00     0.120 C
HETATM   16  C13 UNL     1      83.499  43.729 -34.920  1.00  0.00     0.161 C
ENDROOT
BRANCH  16  17
HETATM   17  O2  UNL     1      83.149  43.598 -36.212  1.00  0.00    -0.387 OA
HETATM   18  C14 UNL     1      82.746  42.366 -36.647  1.00  0.00     0.202 C
ENDBRANCH  16  17
BRANCH   8  19
HETATM   19  O1  UNL     1      83.578  50.905 -38.062  1.00  0.00    -0.391 OA
ATOM     20  H1  UNL     1      82.977  51.603 -37.830  1.00  0.00     0.210 HD
ENDBRANCH   8  19
TORSDOF 2
ENDMDL