MODEL 4
REMARK VINA RESULT: -6.569519912      1.838      3.085
REMARK  2 active torsions:
REMARK  status: ('A' for Active; 'I' for Inactive)
REMARK    1  A    between atoms: C15_17  and  O3_18
REMARK    2  A    between atoms: O3_18  and  O4_19
ROOT
HETATM    1  C1  UNL     1      85.896  45.570 -38.979  1.00  0.00     0.046 C
HETATM    2  C2  UNL     1      85.217  45.651 -37.626  1.00  0.00    -0.044 C
HETATM    3  C3  UNL     1      84.733  46.887 -37.442  1.00  0.00    -0.021 C
HETATM    4  C4  UNL     1      84.009  47.624 -36.428  1.00  0.00     0.030 C
HETATM    5  C5  UNL     1      82.875  47.041 -35.721  1.00  0.00     0.044 C
HETATM    6  C6  UNL     1      82.864  45.625 -35.336  1.00  0.00     0.093 C
HETATM    7  C7  UNL     1      81.387  45.273 -35.021  1.00  0.00     0.049 C
HETATM    8  C8  UNL     1      83.617  45.209 -34.135  1.00  0.00     0.041 C
HETATM    9  C9  UNL     1      85.061  45.380 -34.042  1.00  0.00     0.004 C
HETATM   10  C10 UNL     1      85.911  44.187 -34.476  1.00  0.00     0.013 C
HETATM   11  C11 UNL     1      86.413  44.321 -35.899  1.00  0.00     0.008 C
HETATM   12  C12 UNL     1      87.369  45.485 -36.006  1.00  0.00     0.019 C
HETATM   13  C13 UNL     1      87.248  43.076 -36.168  1.00  0.00     0.124 C
HETATM   14  C14 UNL     1      86.313  41.918 -36.140  1.00  0.00     0.262 C
HETATM   15  O1  UNL     1      86.525  40.893 -35.438  1.00  0.00    -0.265 OA
HETATM   16  O2  UNL     1      85.193  42.063 -36.950  1.00  0.00    -0.283 OA
HETATM   17  C15 UNL     1      85.280  43.209 -37.852  1.00  0.00     0.348 C
HETATM   18  C16 UNL     1      85.286  44.389 -36.909  1.00  0.00     0.179 C
HETATM   19  O5  UNL     1      84.133  44.107 -36.124  1.00  0.00    -0.218 OA
HETATM   20  O6  UNL     1      83.111  44.798 -36.464  1.00  0.00    -0.229 OA
ENDROOT
BRANCH  17  21
HETATM   21  O3  UNL     1      84.034  43.167 -38.496  1.00  0.00    -0.206 OA
BRANCH  21  22
HETATM   22  O4  UNL     1      83.231  42.265 -38.025  1.00  0.00    -0.248 OA
ATOM     23  H4  UNL     1      83.667  41.594 -37.514  1.00  0.00     0.253 HD
ENDBRANCH  21  22
ENDBRANCH  17  21
TORSDOF 2
ENDMDL