MODEL 5
REMARK VINA RESULT: -7.283514102      2.093      4.060
REMARK  1 active torsions:
REMARK  status: ('A' for Active; 'I' for Inactive)
REMARK    1  A    between atoms: C17_20  and  O4_22
ROOT
HETATM    1  C1  UNL     1      83.356  51.006 -36.796  1.00  0.00     0.043 C
HETATM    2  C2  UNL     1      82.592  50.245 -37.824  1.00  0.00     0.157 C
HETATM    3  O1  UNL     1      83.058  48.966 -38.102  1.00  0.00    -0.314 OA
HETATM    4  C3  UNL     1      84.302  48.437 -37.973  1.00  0.00     0.259 C
HETATM    5  O2  UNL     1      85.017  48.001 -38.941  1.00  0.00    -0.265 OA
HETATM    6  C4  UNL     1      84.921  48.336 -36.629  1.00  0.00     0.111 C
HETATM    7  C5  UNL     1      85.993  47.297 -36.542  1.00  0.00     0.010 C
HETATM    8  C6  UNL     1      85.592  45.909 -36.860  1.00  0.00     0.000 C
HETATM    9  C7  UNL     1      84.136  45.597 -36.706  1.00  0.00     0.000 C
HETATM   10  C8  UNL     1      83.896  44.357 -35.872  1.00  0.00     0.000 C
HETATM   11  C9  UNL     1      83.433  44.624 -34.491  1.00  0.00     0.000 C
HETATM   12  C10 UNL     1      82.457  45.743 -34.331  1.00  0.00     0.000 C
HETATM   13  C11 UNL     1      81.179  45.546 -35.118  1.00  0.00     0.000 C
HETATM   14  C12 UNL     1      80.206  46.639 -34.769  1.00  0.00     0.000 C
HETATM   15  C13 UNL     1      80.827  47.965 -35.045  1.00  0.00     0.001 C
HETATM   16  C14 UNL     1      79.894  48.912 -35.801  1.00  0.00     0.013 C
HETATM   17  C15 UNL     1      80.726  50.147 -36.123  1.00  0.00     0.079 C
HETATM   18  C16 UNL     1      81.096  50.260 -37.555  1.00  0.00     0.163 C
HETATM   19  O3  UNL     1      80.643  51.568 -37.608  1.00  0.00    -0.347 OA
HETATM   20  C17 UNL     1      79.814  51.306 -36.545  1.00  0.00     0.164 C
HETATM   21  C18 UNL     1      79.839  52.384 -35.482  1.00  0.00     0.079 C
ENDROOT
BRANCH  20  22
HETATM   22  O4  UNL     1      78.553  50.878 -36.927  1.00  0.00    -0.365 OA
ATOM     23  H4  UNL     1      77.906  51.572 -36.888  1.00  0.00     0.213 HD
ENDBRANCH  20  22
TORSDOF 1
ENDMDL