MODEL 3
REMARK VINA RESULT: -8.930195271      1.938      6.277
REMARK  2 active torsions:
REMARK  status: ('A' for Active; 'I' for Inactive)
REMARK    1  A    between atoms: C4_4  and  C5_5
REMARK    2  A    between atoms: C14_18  and  O5_19
ROOT
HETATM    1  C1  UNL     1      79.805  47.836 -33.050  1.00  0.00     0.043 C
HETATM    2  C2  UNL     1      80.634  48.687 -33.953  1.00  0.00    -0.085 C
HETATM    3  C3  UNL     1      81.309  48.081 -34.895  1.00  0.00     0.010 C
HETATM    4  C4  UNL     1      82.187  48.743 -35.888  1.00  0.00     0.186 C
HETATM    5  O2  UNL     1      81.517  49.289 -36.983  1.00  0.00    -0.286 OA
HETATM    6  C13 UNL     1      81.383  50.639 -37.278  1.00  0.00     0.409 C
HETATM    7  O3  UNL     1      81.400  50.882 -38.528  1.00  0.00    -0.229 OA
HETATM    8  O4  UNL     1      81.254  51.522 -36.270  1.00  0.00    -0.266 OA
HETATM    9  C14 UNL     1      80.261  51.929 -35.435  1.00  0.00     0.272 C
HETATM   10  C15 UNL     1      79.627  50.898 -34.530  1.00  0.00     0.041 C
HETATM   11  C16 UNL     1      78.611  50.046 -35.218  1.00  0.00     0.015 C
HETATM   12  C17 UNL     1      80.618  50.147 -33.701  1.00  0.00     0.042 C
ENDROOT
BRANCH   4  13
HETATM   13  C5  UNL     1      83.256  47.737 -36.353  1.00  0.00     0.154 C
HETATM   14  C6  UNL     1      83.166  46.512 -35.556  1.00  0.00     0.035 C
HETATM   15  C7  UNL     1      84.275  46.255 -34.578  1.00  0.00     0.002 C
HETATM   16  C8  UNL     1      85.028  45.040 -35.013  1.00  0.00     0.000 C
HETATM   17  C9  UNL     1      86.280  45.349 -35.810  1.00  0.00     0.000 C
HETATM   18  C10 UNL     1      86.067  45.440 -37.272  1.00  0.00     0.002 C
HETATM   19  C11 UNL     1      85.530  46.677 -37.847  1.00  0.00     0.026 C
HETATM   20  C12 UNL     1      85.534  47.902 -37.006  1.00  0.00     0.168 C
HETATM   21  O1  UNL     1      84.382  48.383 -36.543  1.00  0.00    -0.383 OA
ENDBRANCH   4  13
BRANCH   9  22
HETATM   22  O5  UNL     1      80.805  52.905 -34.560  1.00  0.00    -0.370 OA
ATOM     23  H5  UNL     1      80.353  52.830 -33.728  1.00  0.00     0.212 HD
ENDBRANCH   9  22
TORSDOF 2
ENDMDL