MODEL 1
REMARK VINA RESULT: -7.220960373      0.000      0.000
REMARK  2 active torsions:
REMARK  status: ('A' for Active; 'I' for Inactive)
REMARK    1  A    between atoms: O1_2  and  C2_3
REMARK    2  A    between atoms: C2_3  and  O2_4
ROOT
HETATM    1  C2  UNL     1      82.469  45.819 -34.539  1.00  0.00     0.418 C
HETATM    2  O3  UNL     1      83.773  45.676 -35.038  1.00  0.00    -0.279 OA
HETATM    3  C3  UNL     1      84.907  46.411 -34.990  1.00  0.00     0.140 C
HETATM    4  C4  UNL     1      85.345  47.362 -35.777  1.00  0.00     0.006 C
HETATM    5  C5  UNL     1      84.746  47.950 -36.982  1.00  0.00    -0.028 C
HETATM    6  C6  UNL     1      85.004  46.941 -38.130  1.00  0.00     0.019 C
HETATM    7  C7  UNL     1      85.511  49.193 -37.443  1.00  0.00     0.019 C
HETATM    8  C8  UNL     1      83.280  48.153 -37.003  1.00  0.00     0.013 C
HETATM    9  C9  UNL     1      82.659  48.823 -35.814  1.00  0.00     0.009 C
HETATM   10  C10 UNL     1      81.208  48.453 -35.658  1.00  0.00     0.028 C
HETATM   11  C11 UNL     1      80.201  49.476 -35.902  1.00  0.00    -0.041 C
HETATM   12  C12 UNL     1      78.917  48.844 -36.479  1.00  0.00     0.015 C
HETATM   13  C13 UNL     1      80.664  50.402 -37.016  1.00  0.00     0.015 C
HETATM   14  C14 UNL     1      79.780  50.347 -34.767  1.00  0.00     0.009 C
HETATM   15  C15 UNL     1      80.010  49.825 -33.404  1.00  0.00     0.004 C
HETATM   16  C16 UNL     1      81.066  48.805 -33.251  1.00  0.00     0.038 C
HETATM   17  C17 UNL     1      81.086  47.722 -34.310  1.00  0.00     0.070 C
HETATM   18  C18 UNL     1      79.819  46.927 -34.216  1.00  0.00     0.047 C
HETATM   19  O4  UNL     1      82.228  47.042 -34.143  1.00  0.00    -0.297 OA
ENDROOT
BRANCH   1  20
HETATM   20  O1  UNL     1      81.629  45.263 -35.499  1.00  0.00    -0.314 OA
HETATM   21  C1  UNL     1      81.826  43.886 -35.546  1.00  0.00     0.210 C
ENDBRANCH   1  20
BRANCH   1  22
HETATM   22  O2  UNL     1      82.348  44.942 -33.427  1.00  0.00    -0.319 OA
ATOM     23  H2  UNL     1      83.063  44.328 -33.541  1.00  0.00     0.218 HD
ENDBRANCH   1  22
TORSDOF 2
ENDMDL