MODEL 2
REMARK VINA RESULT: -7.463803024      1.581      2.098
REMARK  1 active torsions:
REMARK  status: ('A' for Active; 'I' for Inactive)
REMARK    1  A    between atoms: C5_9  and  C6_10
ROOT
HETATM    1  C1  UNL     1      81.424  44.530 -35.371  1.00  0.00     0.066 C
HETATM    2  C2  UNL     1      82.023  45.867 -34.998  1.00  0.00     0.183 C
HETATM    3  C3  UNL     1      82.554  45.865 -33.612  1.00  0.00     0.101 C
HETATM    4  N1  UNL     1      82.974  45.850 -32.531  1.00  0.00    -0.194 NA
HETATM    5  O1  UNL     1      80.980  46.774 -34.984  1.00  0.00    -0.323 OA
HETATM    6  C4  UNL     1      81.240  48.018 -35.435  1.00  0.00     0.206 C
HETATM    7  O2  UNL     1      82.397  48.235 -36.117  1.00  0.00    -0.199 OA
HETATM    8  O3  UNL     1      83.430  47.559 -35.737  1.00  0.00    -0.221 OA
HETATM    9  C5  UNL     1      83.114  46.194 -35.947  1.00  0.00     0.266 C
HETATM   10  C10 UNL     1      80.068  48.475 -36.304  1.00  0.00     0.052 C
HETATM   11  C11 UNL     1      80.205  49.907 -36.705  1.00  0.00     0.014 C
HETATM   12  C12 UNL     1      80.174  50.765 -35.463  1.00  0.00    -0.013 C
HETATM   13  C13 UNL     1      78.918  50.574 -34.679  1.00  0.00     0.009 C
HETATM   14  C14 UNL     1      78.776  49.120 -34.324  1.00  0.00    -0.013 C
HETATM   15  C15 UNL     1      78.787  48.247 -35.563  1.00  0.00     0.014 C
HETATM   16  C16 UNL     1      79.945  48.729 -33.458  1.00  0.00     0.014 C
HETATM   17  C17 UNL     1      81.236  48.952 -34.218  1.00  0.00     0.052 C
HETATM   18  C18 UNL     1      81.371  50.392 -34.628  1.00  0.00     0.014 C
ENDROOT
BRANCH   9  19
HETATM   19  C6  UNL     1      84.356  45.450 -35.747  1.00  0.00     0.088 A
HETATM   20  C7  UNL     1      85.576  45.956 -35.386  1.00  0.00     0.037 A
HETATM   21  C8  UNL     1      86.466  44.893 -35.313  1.00  0.00     0.027 A
HETATM   22  C9  UNL     1      85.724  43.781 -35.639  1.00  0.00     0.142 A
HETATM   23  O4  UNL     1      84.511  44.141 -35.883  1.00  0.00    -0.324 OA
ENDBRANCH   9  19
TORSDOF 1
ENDMDL