MODEL 2
REMARK VINA RESULT: -8.139166064      0.793      1.044
REMARK  1 active torsions:
REMARK  status: ('A' for Active; 'I' for Inactive)
REMARK    1  A    between atoms: C11_13  and  C12_14
ROOT
HETATM    1  C1  UNL     1      78.390  50.837 -36.445  1.00  0.00     0.010 C
HETATM    2  C2  UNL     1      79.175  49.546 -36.322  1.00  0.00    -0.018 C
HETATM    3  C3  UNL     1      78.623  48.792 -35.144  1.00  0.00     0.010 C
HETATM    4  C4  UNL     1      79.417  47.562 -34.804  1.00  0.00     0.075 C
HETATM    5  C5  UNL     1      80.896  47.808 -34.789  1.00  0.00     0.230 C
HETATM    6  C6  UNL     1      81.103  49.315 -34.834  1.00  0.00     0.075 C
HETATM    7  C7  UNL     1      80.619  49.902 -36.138  1.00  0.00     0.010 C
HETATM    8  O1  UNL     1      81.438  47.192 -35.917  1.00  0.00    -0.195 OA
HETATM    9  O2  UNL     1      82.694  46.924 -35.649  1.00  0.00    -0.195 OA
HETATM   10  C8  UNL     1      82.804  45.841 -34.753  1.00  0.00     0.230 C
HETATM   11  C9  UNL     1      84.239  45.795 -34.323  1.00  0.00     0.075 C
HETATM   12  C10 UNL     1      84.614  44.571 -33.558  1.00  0.00     0.011 C
HETATM   13  C11 UNL     1      83.785  43.376 -33.817  1.00  0.00     0.005 C
HETATM   14  C15 UNL     1      83.066  43.369 -35.130  1.00  0.00     0.011 C
HETATM   15  C16 UNL     1      82.336  44.612 -35.457  1.00  0.00     0.075 C
HETATM   16  O3  UNL     1      81.925  46.117 -33.712  1.00  0.00    -0.195 OA
HETATM   17  O4  UNL     1      81.536  47.346 -33.664  1.00  0.00    -0.195 OA
ENDROOT
BRANCH  13  18
HETATM   18  C12 UNL     1      84.618  42.090 -33.761  1.00  0.00     0.015 C
HETATM   19  C13 UNL     1      85.568  41.980 -34.905  1.00  0.00     0.028 C
HETATM   20  C14 UNL     1      83.717  40.873 -33.715  1.00  0.00     0.028 C
HETATM   21  S1  UNL     1      85.605  42.214 -32.225  1.00  0.00    -0.087 SA
ENDBRANCH  13  18
TORSDOF 1
ENDMDL