MODEL 4
REMARK VINA RESULT: -7.157803246      2.753      5.423
REMARK  1 active torsions:
REMARK  status: ('A' for Active; 'I' for Inactive)
REMARK    1  A    between atoms: N1_9  and  O2_11
ROOT
HETATM    1  C1  UNL     1      80.130  46.499 -34.994  1.00  0.00     0.022 C
HETATM    2  C2  UNL     1      81.372  46.768 -35.317  1.00  0.00    -0.002 C
HETATM    3  C3  UNL     1      82.208  47.761 -36.018  1.00  0.00     0.211 C
HETATM    4  O1  UNL     1      83.225  46.818 -36.148  1.00  0.00    -0.345 OA
HETATM    5  C4  UNL     1      82.682  46.105 -35.091  1.00  0.00     0.223 C
HETATM    6  C5  UNL     1      83.222  46.428 -33.736  1.00  0.00     0.083 C
HETATM    7  C6  UNL     1      84.568  45.809 -33.560  1.00  0.00     0.065 C
HETATM    8  C7  UNL     1      84.617  44.793 -32.449  1.00  0.00     0.032 C
HETATM    9  N1  UNL     1      84.221  45.245 -31.309  1.00  0.00    -0.273 N
ATOM     10  H1  UNL     1      83.926  46.222 -31.297  1.00  0.00     0.193 HD
HETATM   11  C8  UNL     1      85.085  43.429 -32.596  1.00  0.00     0.029 C
HETATM   12  C9  UNL     1      84.569  42.494 -33.360  1.00  0.00    -0.079 C
HETATM   13  C10 UNL     1      85.246  41.146 -33.340  1.00  0.00     0.043 C
HETATM   14  C11 UNL     1      83.375  42.606 -34.222  1.00  0.00     0.075 C
HETATM   15  C12 UNL     1      83.647  42.860 -35.668  1.00  0.00     0.100 C
HETATM   16  C13 UNL     1      82.532  42.217 -36.466  1.00  0.00     0.041 C
HETATM   17  C14 UNL     1      82.995  41.576 -37.728  1.00  0.00     0.004 C
HETATM   18  C15 UNL     1      84.101  42.322 -38.432  1.00  0.00     0.004 C
HETATM   19  C16 UNL     1      85.268  42.646 -37.565  1.00  0.00    -0.016 C
HETATM   20  C17 UNL     1      85.718  44.075 -37.760  1.00  0.00     0.010 C
HETATM   21  C18 UNL     1      85.003  42.339 -36.102  1.00  0.00     0.045 C
HETATM   22  O3  UNL     1      83.568  44.217 -35.921  1.00  0.00    -0.226 OA
HETATM   23  O4  UNL     1      82.576  44.738 -35.289  1.00  0.00    -0.195 OA
ENDROOT
BRANCH   9  24
HETATM   24  O2  UNL     1      84.147  44.599 -30.133  1.00  0.00    -0.290 OA
ATOM     25  H2  UNL     1      84.324  44.934 -29.262  1.00  0.00     0.244 HD
ENDBRANCH   9  24
TORSDOF 1
ENDMDL