MODEL 5
REMARK VINA RESULT: -7.816233034      0.967      1.121
REMARK  3 active torsions:
REMARK  status: ('A' for Active; 'I' for Inactive)
REMARK    1  A    between atoms: C2_2  and  C3_4
REMARK    2  A    between atoms: C7_10  and  N2_11
REMARK    3  A    between atoms: C14_19  and  O2_20
ROOT
HETATM    1  C3  UNL     1      36.273  16.284  16.892  1.00  0.00     0.051 A
HETATM    2  C4  UNL     1      37.186  16.719  15.961  1.00  0.00    -0.033 A
HETATM    3  C5  UNL     1      38.429  16.125  15.755  1.00  0.00    -0.022 A
HETATM    4  C6  UNL     1      38.818  15.029  16.503  1.00  0.00     0.061 A
HETATM    5  N1  UNL     1      39.951  14.385  16.406  1.00  0.00    -0.335 N
ATOM      6  H1  UNL     1      40.645  14.688  15.723  1.00  0.00     0.168 HD
HETATM    7  C7  UNL     1      40.207  13.363  17.169  1.00  0.00     0.148 A
HETATM    8  S1  UNL     1      38.776  13.249  18.120  1.00  0.00    -0.049 SA
HETATM    9  C13 UNL     1      37.921  14.582  17.436  1.00  0.00     0.069 A
HETATM   10  C14 UNL     1      36.678  15.183  17.637  1.00  0.00     0.099 A
HETATM   11  C15 UNL     1      39.277  16.726  14.699  1.00  0.00     0.041 C
HETATM   12  C16 UNL     1      38.418  16.670  13.428  1.00  0.00     0.005 C
HETATM   13  C17 UNL     1      37.166  17.465  13.603  1.00  0.00     0.005 C
HETATM   14  C18 UNL     1      36.940  17.888  15.075  1.00  0.00     0.040 C
ENDROOT
BRANCH   7  15
HETATM   15  N2  UNL     1      41.361  12.539  17.219  1.00  0.00    -0.361 N
HETATM   16  C8  UNL     1      41.499  11.439  16.298  1.00  0.00     0.125 C
HETATM   17  C9  UNL     1      42.302  10.312  16.955  1.00  0.00     0.020 C
HETATM   18  C10 UNL     1      41.902  10.325  18.424  1.00  0.00     0.003 C
HETATM   19  C11 UNL     1      42.424  11.561  19.104  1.00  0.00     0.020 C
HETATM   20  C12 UNL     1      42.415  12.771  18.177  1.00  0.00     0.125 C
ENDBRANCH   7  15
BRANCH  10  21
HETATM   21  O2  UNL     1      35.912  14.591  18.621  1.00  0.00    -0.358 OA
ATOM     22  H2  UNL     1      36.271  14.104  19.353  1.00  0.00     0.217 HD
ENDBRANCH  10  21
BRANCH   1  23
HETATM   23  C2  UNL     1      34.976  16.842  17.153  1.00  0.00     0.159 C
HETATM   24  C1  UNL     1      34.793  18.056  17.980  1.00  0.00     0.097 C
HETATM   25  O1  UNL     1      33.935  16.333  16.698  1.00  0.00    -0.293 OA
ENDBRANCH   1  23
TORSDOF 3
ENDMDL