MODEL 3
REMARK VINA RESULT: -8.170857136      3.112      5.173
REMARK  2 active torsions:
REMARK  status: ('A' for Active; 'I' for Inactive)
REMARK    1  A    between atoms: C6_6  and  C7_7
REMARK    2  A    between atoms: C7_7  and  C8_8
ROOT
HETATM    1  C1  UNL     1      42.847   9.794  16.454  1.00  0.00     0.085 C
HETATM    2  C2  UNL     1      41.905  10.898  16.916  1.00  0.00     0.226 C
HETATM    3  C3  UNL     1      42.688  12.017  17.547  1.00  0.00     0.074 C
HETATM    4  C4  UNL     1      41.940  12.550  18.741  1.00  0.00     0.018 C
HETATM    5  C5  UNL     1      40.668  13.188  18.306  1.00  0.00     0.076 C
HETATM    6  C6  UNL     1      40.827  14.397  17.414  1.00  0.00     0.086 C
HETATM    7  N1  UNL     1      39.555  14.854  17.010  1.00  0.00    -0.416 N
ATOM      8  H1  UNL     1      39.451  15.611  16.335  1.00  0.00     0.153 HD
HETATM    9  C16 UNL     1      38.413  14.205  17.592  1.00  0.00     0.119 C
HETATM   10  C17 UNL     1      38.456  12.702  17.472  1.00  0.00     0.094 C
HETATM   11  C18 UNL     1      39.876  12.176  17.459  1.00  0.00     0.236 C
HETATM   12  O1  UNL     1      39.924  10.908  17.975  1.00  0.00    -0.194 OA
HETATM   13  O2  UNL     1      41.079  10.336  17.876  1.00  0.00    -0.195 OA
HETATM   14  O3  UNL     1      40.337  12.262  16.149  1.00  0.00    -0.194 OA
HETATM   15  O4  UNL     1      41.135  11.284  15.837  1.00  0.00    -0.195 OA
ENDROOT
BRANCH   6  16
HETATM   16  C7  UNL     1      41.770  15.342  18.027  1.00  0.00     0.029 C
BRANCH  16  17
HETATM   17  C8  UNL     1      42.501  16.289  17.102  1.00  0.00    -0.013 C
HETATM   18  C9  UNL     1      42.266  17.667  17.678  1.00  0.00     0.005 C
HETATM   19  C10 UNL     1      43.205  18.710  17.210  1.00  0.00     0.000 C
HETATM   20  C11 UNL     1      44.466  18.213  16.565  1.00  0.00     0.000 C
HETATM   21  C12 UNL     1      44.343  17.713  15.178  1.00  0.00     0.000 C
HETATM   22  C13 UNL     1      43.087  18.021  14.454  1.00  0.00     0.000 C
HETATM   23  C14 UNL     1      41.831  17.431  14.943  1.00  0.00     0.000 C
HETATM   24  C15 UNL     1      41.932  16.146  15.719  1.00  0.00     0.005 C
ENDBRANCH  16  17
ENDBRANCH   6  16
TORSDOF 2
ENDMDL