MODEL 4
REMARK VINA RESULT: -6.981377350      0.717      1.872
REMARK  3 active torsions:
REMARK  status: ('A' for Active; 'I' for Inactive)
REMARK    1  A    between atoms: C4_4  and  N1_5
REMARK    2  A    between atoms: N2_8  and  C7_9
REMARK    3  A    between atoms: C16_18  and  O1_19
ROOT
HETATM    1  N1  UNL     1      42.534  16.839  16.050  1.00  0.00    -0.368 N
HETATM    2  C5  UNL     1      42.164  16.766  17.448  1.00  0.00     0.168 C
HETATM    3  C6  UNL     1      41.739  15.335  17.699  1.00  0.00     0.083 C
HETATM    4  N2  UNL     1      40.585  15.072  16.939  1.00  0.00    -0.366 N
HETATM    5  C14 UNL     1      40.556  15.460  15.599  1.00  0.00     0.083 C
HETATM    6  C15 UNL     1      41.936  15.892  15.150  1.00  0.00     0.168 C
ENDROOT
BRANCH   1   7
HETATM    7  C4  UNL     1      43.455  17.818  15.604  1.00  0.00     0.083 A
HETATM    8  C3  UNL     1      42.947  18.891  14.877  1.00  0.00     0.043 A
HETATM    9  C2  UNL     1      43.802  19.877  14.419  1.00  0.00    -0.021 A
HETATM   10  C1  UNL     1      43.292  21.043  13.637  1.00  0.00     0.051 C
HETATM   11  C18 UNL     1      45.143  19.751  14.708  1.00  0.00     0.110 A
HETATM   12  N3  UNL     1      45.611  18.691  15.421  1.00  0.00    -0.321 N
HETATM   13  S1  UNL     1      46.207  20.900  14.185  1.00  0.00    -0.060 SA
HETATM   14  C16 UNL     1      44.799  17.721  15.877  1.00  0.00     0.170 A
HETATM   15  C17 UNL     1      47.028  18.572  15.719  1.00  0.00     0.159 C
BRANCH  14  16
HETATM   16  O1  UNL     1      45.301  16.673  16.589  1.00  0.00    -0.344 OA
ATOM     17  H1  UNL     1      46.171  16.709  16.968  1.00  0.00     0.219 HD
ENDBRANCH  14  16
ENDBRANCH   1   7
BRANCH   4  18
HETATM   18  C7  UNL     1      39.486  14.464  17.551  1.00  0.00     0.091 C
HETATM   19  C8  UNL     1      39.818  13.001  17.871  1.00  0.00     0.052 C
HETATM   20  C9  UNL     1      38.593  12.175  17.953  1.00  0.00    -0.029 C
HETATM   21  C10 UNL     1      37.388  12.547  18.380  1.00  0.00    -0.031 C
HETATM   22  C11 UNL     1      36.969  13.870  18.879  1.00  0.00     0.027 C
HETATM   23  C12 UNL     1      37.038  14.895  17.790  1.00  0.00     0.006 C
HETATM   24  C13 UNL     1      38.180  14.572  16.842  1.00  0.00     0.026 C
ENDBRANCH   4  18
TORSDOF 3
ENDMDL