MODEL 2
REMARK VINA RESULT: -7.539779289      0.764      1.035
REMARK  2 active torsions:
REMARK  status: ('A' for Active; 'I' for Inactive)
REMARK    1  A    between atoms: C3_3  and  C4_4
REMARK    2  A    between atoms: C7_12  and  C8_13
ROOT
HETATM    1  C4  UNL     1      41.408  16.744  15.623  1.00  0.00     0.083 A
HETATM    2  N1  UNL     1      42.398  17.121  14.840  1.00  0.00    -0.345 N
ATOM      3  H1  UNL     1      43.035  16.422  14.457  1.00  0.00     0.166 HD
HETATM    4  C5  UNL     1      42.569  18.381  14.552  1.00  0.00     0.136 A
HETATM    5  C6  UNL     1      43.578  18.931  13.732  1.00  0.00     0.276 A
HETATM    6  O1  UNL     1      44.443  18.202  13.183  1.00  0.00    -0.266 OA
HETATM    7  N2  UNL     1      43.593  20.249  13.554  1.00  0.00    -0.311 N
ATOM      8  H2  UNL     1      44.333  20.620  12.957  1.00  0.00     0.170 HD
HETATM    9  C7  UNL     1      42.745  21.133  14.070  1.00  0.00     0.089 A
HETATM   10  N3  UNL     1      41.772  20.622  14.858  1.00  0.00    -0.338 N
ATOM     11  H3  UNL     1      41.089  21.247  15.284  1.00  0.00     0.168 HD
HETATM   12  C11 UNL     1      41.692  19.283  15.088  1.00  0.00     0.110 A
HETATM   13  S1  UNL     1      40.658  18.244  15.988  1.00  0.00    -0.054 SA
ENDROOT
BRANCH   1  14
HETATM   14  C3  UNL     1      41.084  15.357  16.040  1.00  0.00     0.183 C
HETATM   15  C2  UNL     1      40.569  14.626  14.810  1.00  0.00     0.024 C
HETATM   16  C1  UNL     1      39.553  15.447  14.050  1.00  0.00     0.013 C
HETATM   17  C17 UNL     1      39.747  13.540  15.530  1.00  0.00     0.021 C
HETATM   18  C12 UNL     1      39.114  14.415  16.598  1.00  0.00     0.127 C
HETATM   19  C16 UNL     1      40.733  12.555  16.072  1.00  0.00     0.007 C
HETATM   20  O2  UNL     1      40.075  15.306  16.980  1.00  0.00    -0.373 OA
HETATM   21  C13 UNL     1      38.484  13.649  17.706  1.00  0.00     0.032 C
HETATM   22  C14 UNL     1      38.908  12.213  17.641  1.00  0.00     0.002 C
HETATM   23  C15 UNL     1      40.424  12.137  17.491  1.00  0.00     0.001 C
ENDBRANCH   1  14
BRANCH   9  24
HETATM   24  C8  UNL     1      42.821  22.594  13.826  1.00  0.00     0.053 A
HETATM   25  C9  UNL     1      41.735  23.491  14.335  1.00  0.00     0.013 A
HETATM   26  C10 UNL     1      41.855  23.238  12.877  1.00  0.00     0.013 A
ENDBRANCH   9  24
TORSDOF 2
ENDMDL