MODEL 3
REMARK VINA RESULT: -6.830870825      1.922      2.085
REMARK  5 active torsions:
REMARK  status: ('A' for Active; 'I' for Inactive)
REMARK    1  A    between atoms: C2_2  and  O1_3
REMARK    2  A    between atoms: O1_3  and  N1_4
REMARK       I    between atoms: N1_4  and  C3_5
REMARK       I    between atoms: C3_5  and  N2_6
REMARK       I    between atoms: C3_5  and  N4_20
REMARK    3  A    between atoms: N2_6  and  C4_8
REMARK    4  A    between atoms: C7_12  and  C8_13
REMARK    5  A    between atoms: C8_13  and  N3_14
ROOT
HETATM    1  N1  UNL     1      35.988  17.518  15.174  1.00  0.00    -0.242 NA
HETATM    2  C3  UNL     1      37.108  17.483  15.305  1.00  0.00     0.298 C
HETATM    3  N2  UNL     1      38.059  16.573  14.800  1.00  0.00    -0.306 N
ATOM      4  H2  UNL     1      38.360  16.683  13.832  1.00  0.00     0.170 HD
HETATM    5  N4  UNL     1      37.809  18.589  16.008  1.00  0.00    -0.279 N
HETATM    6  C12 UNL     1      37.175  19.705  16.574  1.00  0.00     0.141 C
HETATM    7  C13 UNL     1      38.169  20.335  17.558  1.00  0.00     0.022 C
HETATM    8  C14 UNL     1      39.221  21.101  16.805  1.00  0.00     0.013 C
HETATM    9  C15 UNL     1      40.201  20.194  16.069  1.00  0.00     0.098 C
HETATM   10  S2  UNL     1      39.577  18.493  16.107  1.00  0.00    -0.050 SA
ENDROOT
BRANCH   3  11
HETATM   11  C4  UNL     1      38.621  15.518  15.553  1.00  0.00     0.098 A
HETATM   12  S1  UNL     1      40.006  14.588  15.029  1.00  0.00    -0.075 SA
HETATM   13  C5  UNL     1      40.049  13.429  16.253  1.00  0.00    -0.007 A
HETATM   14  C6  UNL     1      38.993  13.748  17.041  1.00  0.00    -0.023 A
HETATM   15  C11 UNL     1      40.827  12.296  16.899  1.00  0.00     0.047 C
HETATM   16  C7  UNL     1      38.231  14.846  16.704  1.00  0.00     0.067 A
HETATM   17  C9  UNL     1      38.707  12.524  17.937  1.00  0.00     0.041 C
HETATM   18  C10 UNL     1      39.732  11.503  17.529  1.00  0.00     0.010 C
BRANCH  16  19
HETATM   19  C8  UNL     1      37.159  15.378  17.551  1.00  0.00    -0.034 C
BRANCH  19  20
HETATM   20  N3  UNL     1      36.261  15.821  18.216  1.00  0.00    -0.365 N
ATOM     21  H32 UNL     1      36.431  14.822  18.105  1.00  0.00     0.165 HD
ATOM     22  H31 UNL     1      35.508  16.224  18.774  1.00  0.00     0.165 HD
ENDBRANCH  19  20
ENDBRANCH  16  19
ENDBRANCH   3  11
BRANCH   1  23
HETATM   23  O1  UNL     1      34.719  17.328  14.862  1.00  0.00    -0.206 OA
BRANCH  23  24
HETATM   24  C2  UNL     1      34.363  18.250  13.732  1.00  0.00     0.213 C
HETATM   25  C1  UNL     1      34.720  17.296  12.570  1.00  0.00     0.037 C
ENDBRANCH  23  24
ENDBRANCH   1  23
TORSDOF 5
ENDMDL