MODEL 3
REMARK VINA RESULT: -7.464825078      1.213      1.563
REMARK  2 active torsions:
REMARK  status: ('A' for Active; 'I' for Inactive)
REMARK    1  A    between atoms: C10_12  and  C11_13
REMARK    2  A    between atoms: C14_16  and  C15_17
ROOT
HETATM    1  C1  UNL     1      41.916  15.608  17.671  1.00  0.00     0.017 C
HETATM    2  C2  UNL     1      41.364  14.438  17.445  1.00  0.00    -0.055 C
HETATM    3  C3  UNL     1      41.587  13.167  18.141  1.00  0.00     0.035 C
HETATM    4  C4  UNL     1      43.035  12.832  18.384  1.00  0.00     0.011 C
HETATM    5  C5  UNL     1      43.106  11.436  18.916  1.00  0.00     0.001 C
HETATM    6  C6  UNL     1      41.807  10.721  19.015  1.00  0.00     0.002 C
HETATM    7  C7  UNL     1      40.928  10.861  17.795  1.00  0.00     0.021 C
HETATM    8  C8  UNL     1      41.118  12.156  17.082  1.00  0.00     0.080 C
HETATM    9  N1  UNL     1      39.889  12.793  16.650  1.00  0.00    -0.230 NA
HETATM   10  S1  UNL     1      38.846  12.917  18.075  1.00  0.00    -0.033 SA
HETATM   11  C9  UNL     1      37.879  14.384  17.658  1.00  0.00     0.057 C
HETATM   12  C10 UNL     1      36.705  14.758  18.109  1.00  0.00     0.064 C
HETATM   13  S2  UNL     1      38.917  15.229  16.458  1.00  0.00    -0.096 SA
HETATM   14  C16 UNL     1      40.350  14.151  16.380  1.00  0.00     0.166 C
ENDROOT
BRANCH  12  15
HETATM   15  C11 UNL     1      36.146  16.015  17.589  1.00  0.00     0.078 A
HETATM   16  C12 UNL     1      34.947  16.165  16.926  1.00  0.00     0.040 A
HETATM   17  C13 UNL     1      34.808  17.496  16.615  1.00  0.00     0.047 A
HETATM   18  C14 UNL     1      35.925  18.125  17.096  1.00  0.00     0.152 A
HETATM   19  O3  UNL     1      36.681  17.213  17.660  1.00  0.00    -0.304 OA
BRANCH  18  20
HETATM   20  C15 UNL     1      36.246  19.565  17.011  1.00  0.00     0.234 C
HETATM   21  O1  UNL     1      35.400  20.366  16.561  1.00  0.00    -0.642 OA
HETATM   22  O2  UNL     1      37.496  19.979  17.441  1.00  0.00    -0.642 OA
ENDBRANCH  18  20
ENDBRANCH  12  15
TORSDOF 2
ENDMDL