MODEL 3
REMARK VINA RESULT: -8.456512826      2.828      4.178
REMARK  3 active torsions:
REMARK  status: ('A' for Active; 'I' for Inactive)
REMARK    1  A    between atoms: C3_6  and  C4_7
REMARK    2  A    between atoms: C11_15  and  C12_16
REMARK    3  A    between atoms: C12_16  and  O2_17
ROOT
HETATM    1  C4  UNL     1      37.429  16.273  16.134  1.00  0.00     0.059 A
HETATM    2  C5  UNL     1      38.431  15.382  16.421  1.00  0.00     0.032 A
HETATM    3  C6  UNL     1      38.213  14.502  17.430  1.00  0.00    -0.036 A
HETATM    4  C7  UNL     1      36.994  14.608  18.060  1.00  0.00    -0.010 A
HETATM    5  S1  UNL     1      36.209  15.886  17.255  1.00  0.00    -0.090 SA
HETATM    6  C8  UNL     1      36.678  13.671  19.206  1.00  0.00     0.046 C
HETATM    7  C9  UNL     1      36.888  12.296  18.670  1.00  0.00     0.006 C
HETATM    8  C10 UNL     1      38.180  12.144  17.902  1.00  0.00     0.013 C
HETATM    9  C11 UNL     1      39.019  13.392  18.060  1.00  0.00     0.061 C
ENDROOT
BRANCH   9  10
HETATM   10  C12 UNL     1      40.421  13.257  17.657  1.00  0.00     0.125 C
HETATM   11  C13 UNL     1      41.080  12.341  18.704  1.00  0.00     0.047 C
HETATM   12  C14 UNL     1      41.467  11.001  18.252  1.00  0.00     0.004 C
HETATM   13  C15 UNL     1      42.009  10.929  16.842  1.00  0.00     0.008 C
HETATM   14  C16 UNL     1      40.836  11.413  15.969  1.00  0.00     0.081 C
HETATM   15  C17 UNL     1      40.794  12.892  16.311  1.00  0.00     0.161 C
HETATM   16  O3  UNL     1      41.091  13.599  15.379  1.00  0.00    -0.295 OA
BRANCH  10  17
HETATM   17  O2  UNL     1      41.015  14.517  17.961  1.00  0.00    -0.381 OA
ATOM     18  H2  UNL     1      40.880  15.045  17.184  1.00  0.00     0.211 HD
ENDBRANCH  10  17
ENDBRANCH   9  10
BRANCH   1  19
HETATM   19  C3  UNL     1      37.416  17.317  15.098  1.00  0.00     0.189 A
HETATM   20  O1  UNL     1      36.430  17.638  14.330  1.00  0.00    -0.217 OA
HETATM   21  N1  UNL     1      36.781  18.620  13.522  1.00  0.00    -0.247 N
HETATM   22  C2  UNL     1      38.062  18.956  13.776  1.00  0.00     0.100 A
ATOM     23  H1  UNL     1      36.181  19.054  12.819  1.00  0.00     0.196 HD
HETATM   24  C1  UNL     1      38.925  19.990  13.150  1.00  0.00     0.091 C
HETATM   25  N2  UNL     1      38.438  18.112  14.781  1.00  0.00    -0.323 N
ATOM     26  H2  UNL     1      39.358  18.092  15.222  1.00  0.00     0.169 HD
ENDBRANCH   1  19
TORSDOF 3
ENDMDL