MODEL 2
REMARK VINA RESULT: -8.124838291      2.405      5.649
REMARK  3 active torsions:
REMARK  status: ('A' for Active; 'I' for Inactive)
REMARK    1  A    between atoms: C2_2  and  C3_3
REMARK    2  A    between atoms: C2_2  and  C11_17
REMARK    3  A    between atoms: C7_8  and  O2_9
ROOT
HETATM    1  C3  UNL     1      38.294  15.607  16.293  1.00  0.00     0.077 A
HETATM    2  C4  UNL     1      38.445  14.367  16.828  1.00  0.00     0.110 A
HETATM    3  O1  UNL     1      39.402  13.574  16.465  1.00  0.00    -0.320 OA
HETATM    4  C5  UNL     1      39.587  12.395  16.914  1.00  0.00     0.145 A
HETATM    5  C6  UNL     1      38.766  11.792  17.880  1.00  0.00     0.062 A
HETATM    6  C7  UNL     1      37.706  12.550  18.344  1.00  0.00     0.086 A
HETATM    7  C8  UNL     1      37.528  13.811  17.844  1.00  0.00     0.107 A
HETATM    8  C9  UNL     1      36.477  14.600  18.247  1.00  0.00     0.306 A
HETATM    9  O3  UNL     1      35.699  14.107  19.122  1.00  0.00    -0.259 OA
HETATM   10  O4  UNL     1      36.354  15.777  17.713  1.00  0.00    -0.237 OA
HETATM   11  C10 UNL     1      37.153  16.289  16.818  1.00  0.00     0.304 A
HETATM   12  O5  UNL     1      36.898  17.438  16.409  1.00  0.00    -0.259 OA
ENDROOT
BRANCH   1  13
HETATM   13  C2  UNL     1      39.238  16.331  15.437  1.00  0.00    -0.056 C
HETATM   14  C1  UNL     1      39.237  15.772  14.025  1.00  0.00     0.045 C
BRANCH  13  15
HETATM   15  C11 UNL     1      40.424  17.051  15.908  1.00  0.00    -0.015 C
HETATM   16  C12 UNL     1      40.163  18.380  16.541  1.00  0.00     0.019 C
HETATM   17  C13 UNL     1      41.467  19.003  16.997  1.00  0.00    -0.013 C
HETATM   18  C14 UNL     1      42.310  18.100  17.833  1.00  0.00     0.009 C
HETATM   19  C18 UNL     1      42.296  19.421  15.778  1.00  0.00     0.009 C
HETATM   20  C15 UNL     1      42.688  16.919  16.996  1.00  0.00    -0.013 C
HETATM   21  C16 UNL     1      43.419  17.287  15.738  1.00  0.00     0.009 C
HETATM   22  C20 UNL     1      41.399  16.173  16.644  1.00  0.00     0.019 C
HETATM   23  C17 UNL     1      42.483  18.186  14.950  1.00  0.00    -0.013 C
HETATM   24  C19 UNL     1      41.243  17.452  14.618  1.00  0.00     0.019 C
ENDBRANCH  13  15
ENDBRANCH   1  13
BRANCH   6  25
HETATM   25  O2  UNL     1      36.810  12.087  19.309  1.00  0.00    -0.359 OA
ATOM     26  H2  UNL     1      36.989  11.334  19.860  1.00  0.00     0.217 HD
ENDBRANCH   6  25
TORSDOF 3
ENDMDL