MODEL 1
REMARK VINA RESULT: -7.054560786      0.000      0.000
REMARK  3 active torsions:
REMARK  status: ('A' for Active; 'I' for Inactive)
REMARK    1  A    between atoms: N1_5  and  N2_7
REMARK    2  A    between atoms: N2_7  and  C4_9
REMARK    3  A    between atoms: C5_12  and  C6_13
ROOT
HETATM    1  O1  UNL     1      38.543  11.060  17.679  1.00  0.00    -0.296 OA
HETATM    2  C1  UNL     1      39.129  12.122  17.573  1.00  0.00     0.152 C
HETATM    3  C2  UNL     1      38.544  13.501  17.601  1.00  0.00     0.146 C
HETATM    4  C3  UNL     1      39.102  14.257  16.488  1.00  0.00     0.070 C
HETATM    5  N1  UNL     1      38.536  15.108  15.770  1.00  0.00    -0.296 N
ATOM      6  H1  UNL     1      37.559  15.296  15.994  1.00  0.00     0.187 HD
HETATM    7  S2  UNL     1      40.774  13.707  16.360  1.00  0.00    -0.097 SA
HETATM    8  C10 UNL     1      40.613  12.188  17.386  1.00  0.00     0.075 C
HETATM    9  C11 UNL     1      41.365  12.298  18.662  1.00  0.00     0.029 C
HETATM   10  C12 UNL     1      41.845  10.892  19.037  1.00  0.00     0.002 C
HETATM   11  C13 UNL     1      42.845  10.455  18.017  1.00  0.00     0.000 C
HETATM   12  C14 UNL     1      42.529  10.889  16.619  1.00  0.00     0.002 C
HETATM   13  C15 UNL     1      41.028  11.050  16.511  1.00  0.00     0.029 C
ENDROOT
BRANCH   5  14
HETATM   14  N2  UNL     1      39.053  15.824  14.720  1.00  0.00    -0.279 N
ATOM     15  H2  UNL     1      38.933  15.512  13.757  1.00  0.00     0.189 HD
BRANCH  14  16
HETATM   16  C4  UNL     1      39.710  16.926  15.004  1.00  0.00     0.163 A
HETATM   17  N3  UNL     1      40.996  17.200  14.812  1.00  0.00    -0.338 N
HETATM   18  C5  UNL     1      41.453  18.372  15.169  1.00  0.00     0.022 A
ATOM     19  H3  UNL     1      41.616  16.507  14.393  1.00  0.00     0.168 HD
HETATM   20  C9  UNL     1      40.554  19.254  15.727  1.00  0.00     0.078 A
HETATM   21  S1  UNL     1      39.108  18.358  15.709  1.00  0.00    -0.062 SA
BRANCH  18  22
HETATM   22  C6  UNL     1      42.899  18.815  15.008  1.00  0.00     0.036 A
HETATM   23  C7  UNL     1      43.910  17.754  14.744  1.00  0.00     0.011 A
HETATM   24  C8  UNL     1      43.492  18.744  13.648  1.00  0.00     0.011 A
ENDBRANCH  18  22
ENDBRANCH  14  16
ENDBRANCH   5  14
TORSDOF 3
ENDMDL