MODEL 3
REMARK VINA RESULT: -7.355546683      2.647      5.690
REMARK  4 active torsions:
REMARK  status: ('A' for Active; 'I' for Inactive)
REMARK    1  A    between atoms: O1_2  and  C2_3
REMARK    2  A    between atoms: C2_3  and  C3_5
REMARK    3  A    between atoms: C3_5  and  C4_6
REMARK    4  A    between atoms: C7_11  and  O5_12
ROOT
HETATM    1  C4  UNL     1      41.515  18.503  16.097  1.00  0.00     0.180 C
HETATM    2  O3  UNL     1      42.447  18.371  15.075  1.00  0.00    -0.234 OA
HETATM    3  O4  UNL     1      42.757  17.069  15.024  1.00  0.00    -0.234 OA
HETATM    4  C5  UNL     1      41.550  16.466  15.171  1.00  0.00     0.174 C
HETATM    5  C6  UNL     1      41.476  15.021  15.415  1.00  0.00     0.079 C
HETATM    6  C7  UNL     1      39.977  14.684  15.385  1.00  0.00     0.091 C
HETATM    7  C8  UNL     1      39.812  13.471  16.204  1.00  0.00    -0.043 C
HETATM    8  C9  UNL     1      40.671  12.262  16.015  1.00  0.00     0.047 C
HETATM    9  C10 UNL     1      38.815  13.616  17.097  1.00  0.00    -0.050 C
HETATM   10  C11 UNL     1      38.476  12.511  18.027  1.00  0.00     0.049 C
HETATM   11  C12 UNL     1      38.219  14.922  16.959  1.00  0.00    -0.043 C
HETATM   12  C13 UNL     1      37.142  15.374  17.558  1.00  0.00    -0.080 C
HETATM   13  C14 UNL     1      36.300  14.620  18.516  1.00  0.00     0.043 C
HETATM   14  C15 UNL     1      36.673  16.792  17.270  1.00  0.00     0.043 C
HETATM   15  C16 UNL     1      39.089  15.683  15.976  1.00  0.00     0.059 C
HETATM   16  C17 UNL     1      39.612  16.936  16.520  1.00  0.00     0.027 C
HETATM   17  C18 UNL     1      41.111  17.141  16.493  1.00  0.00     0.015 C
HETATM   18  C19 UNL     1      41.797  16.517  17.654  1.00  0.00     0.020 C
ENDROOT
BRANCH   1  19
HETATM   19  C3  UNL     1      41.807  19.527  17.108  1.00  0.00     0.146 C
BRANCH  19  20
HETATM   20  C2  UNL     1      40.716  20.453  17.468  1.00  0.00     0.261 C
HETATM   21  O2  UNL     1      40.927  21.688  17.272  1.00  0.00    -0.265 OA
BRANCH  20  22
HETATM   22  O1  UNL     1      39.498  20.127  17.996  1.00  0.00    -0.326 OA
HETATM   23  C1  UNL     1      38.301  20.372  17.280  1.00  0.00     0.213 C
ENDBRANCH  20  22
ENDBRANCH  19  20
ENDBRANCH   1  19
BRANCH   6  24
HETATM   24  O5  UNL     1      39.673  14.446  14.038  1.00  0.00    -0.384 OA
ATOM     25  H5  UNL     1      39.186  15.209  13.749  1.00  0.00     0.211 HD
ENDBRANCH   6  24
TORSDOF 4
ENDMDL