MODEL 2
REMARK VINA RESULT: -8.629407928      1.137      1.243
REMARK  4 active torsions:
REMARK  status: ('A' for Active; 'I' for Inactive)
REMARK    1  A    between atoms: C2_2  and  C3_3
REMARK    2  A    between atoms: C2_2  and  C10_10
REMARK    3  A    between atoms: C4_4  and  C5_5
REMARK    4  A    between atoms: N2_15  and  N3_17
REMARK       I    between atoms: N3_17  and  C13_19
ROOT
HETATM    1  C10 UNL     1     -26.789 -27.550   6.694  1.00  0.00    -0.010 C
HETATM    2  N1  UNL     1     -26.415 -27.517   5.471  1.00  0.00    -0.390 N
ATOM      3  H1  UNL     1     -25.464 -27.794   5.226  1.00  0.00     0.159 HD
HETATM    4  C11 UNL     1     -27.323 -27.091   4.436  1.00  0.00     0.173 C
HETATM    5  C12 UNL     1     -28.008 -25.880   4.944  1.00  0.00     0.021 C
HETATM    6  N2  UNL     1     -28.260 -24.915   4.135  1.00  0.00    -0.305 N
ATOM      7  H2  UNL     1     -28.731 -24.080   4.483  1.00  0.00     0.186 HD
HETATM    8  C14 UNL     1     -28.402 -25.773   6.369  1.00  0.00     0.061 C
HETATM    9  C15 UNL     1     -28.186 -27.137   6.999  1.00  0.00     0.058 C
ENDROOT
BRANCH   1  10
HETATM   10  C2  UNL     1     -25.838 -27.992   7.749  1.00  0.00     0.049 C
HETATM   11  C1  UNL     1     -26.288 -27.561   9.127  1.00  0.00     0.020 C
BRANCH  10  12
HETATM   12  C3  UNL     1     -25.692 -29.458   7.655  1.00  0.00    -0.020 C
HETATM   13  C4  UNL     1     -26.751 -30.226   7.627  1.00  0.00    -0.025 C
BRANCH  13  14
HETATM   14  C5  UNL     1     -26.711 -31.708   7.533  1.00  0.00     0.008 C
HETATM   15  C6  UNL     1     -28.059 -32.350   7.730  1.00  0.00     0.008 C
HETATM   16  C7  UNL     1     -27.632 -33.739   8.225  1.00  0.00     0.001 C
HETATM   17  C8  UNL     1     -26.660 -33.365   9.311  1.00  0.00     0.001 C
HETATM   18  C9  UNL     1     -25.874 -32.237   8.693  1.00  0.00     0.008 C
ENDBRANCH  13  14
ENDBRANCH  10  12
ENDBRANCH   1  10
BRANCH   6  19
HETATM   19  N3  UNL     1     -27.901 -24.989   2.786  1.00  0.00    -0.274 N
HETATM   20  C13 UNL     1     -28.773 -25.530   1.827  1.00  0.00     0.200 C
HETATM   21  N4  UNL     1     -30.013 -25.219   1.781  1.00  0.00    -0.372 N
HETATM   22  N5  UNL     1     -28.293 -26.461   0.854  1.00  0.00    -0.062 NA
ATOM     23  H42 UNL     1     -30.355 -24.554   2.475  1.00  0.00     0.158 HD
ATOM     24  H41 UNL     1     -30.646 -25.612   1.086  1.00  0.00     0.158 HD
ATOM     25  H3  UNL     1     -26.988 -24.642   2.493  1.00  0.00     0.189 HD
ENDBRANCH   6  19
TORSDOF 4
ENDMDL