MODEL 3
REMARK VINA RESULT: -7.057326972      0.734      1.553
REMARK  5 active torsions:
REMARK  status: ('A' for Active; 'I' for Inactive)
REMARK    1  A    between atoms: O1_1  and  C1_3
REMARK    2  A    between atoms: C1_3  and  C2_4
REMARK    3  A    between atoms: C2_4  and  N1_5
REMARK    4  A    between atoms: C5_13  and  C6_14
REMARK    5  A    between atoms: C6_14  and  C7_15
ROOT
HETATM    1  N1  UNL     1     -28.190 -35.828   8.775  1.00  0.00    -0.306 N
HETATM    2  C3  UNL     1     -27.759 -37.136   9.075  1.00  0.00     0.194 A
HETATM    3  S1  UNL     1     -28.579 -38.548   9.036  1.00  0.00    -0.039 SA
HETATM    4  N2  UNL     1     -26.379 -37.021   9.446  1.00  0.00    -0.274 N
ATOM      5  H2  UNL     1     -25.767 -37.789   9.722  1.00  0.00     0.189 HD
HETATM    6  N3  UNL     1     -26.020 -35.667   9.363  1.00  0.00    -0.283 N
ATOM      7  H3  UNL     1     -25.090 -35.302   9.573  1.00  0.00     0.188 HD
HETATM    8  C4  UNL     1     -27.120 -34.871   8.945  1.00  0.00     0.120 A
HETATM    9  C5  UNL     1     -27.186 -33.571   8.745  1.00  0.00     0.024 C
ENDROOT
BRANCH   1  10
HETATM   10  C2  UNL     1     -29.522 -35.477   8.346  1.00  0.00     0.159 C
BRANCH  10  11
HETATM   11  C1  UNL     1     -29.506 -35.468   6.812  1.00  0.00     0.184 C
BRANCH  11  12
HETATM   12  O1  UNL     1     -29.937 -34.213   6.342  1.00  0.00    -0.399 OA
ATOM     13  H1  UNL     1     -29.992 -34.230   5.393  1.00  0.00     0.209 HD
ENDBRANCH  11  12
ENDBRANCH  10  11
ENDBRANCH   1  10
BRANCH   9  14
HETATM   14  C6  UNL     1     -26.020 -32.730   8.957  1.00  0.00     0.035 C
BRANCH  14  15
HETATM   15  C7  UNL     1     -26.235 -31.272   8.739  1.00  0.00    -0.011 C
HETATM   16  C8  UNL     1     -25.025 -30.451   8.481  1.00  0.00     0.005 C
HETATM   17  C9  UNL     1     -25.370 -29.003   8.846  1.00  0.00     0.000 C
HETATM   18  C10 UNL     1     -25.865 -28.204   7.692  1.00  0.00     0.000 C
HETATM   19  C11 UNL     1     -26.985 -28.780   6.911  1.00  0.00     0.000 C
HETATM   20  C12 UNL     1     -27.850 -29.767   7.617  1.00  0.00     0.000 C
HETATM   21  C13 UNL     1     -27.176 -31.126   7.537  1.00  0.00     0.005 C
ENDBRANCH  14  15
ENDBRANCH   9  14
TORSDOF 5
ENDMDL