MODEL 1
REMARK VINA RESULT: -8.281102209      0.000      0.000
REMARK  4 active torsions:
REMARK  status: ('A' for Active; 'I' for Inactive)
REMARK    1  A    between atoms: C2_2  and  C3_3
REMARK    2  A    between atoms: C3_3  and  C4_4
REMARK    3  A    between atoms: C4_4  and  C5_5
REMARK    4  A    between atoms: C4_4  and  C7_7
ROOT
HETATM    1  C7  UNL     1     -26.598 -30.102   7.769  1.00  0.00    -0.074 C
HETATM    2  C8  UNL     1     -27.624 -30.847   7.404  1.00  0.00     0.018 C
HETATM    3  C9  UNL     1     -27.789 -32.255   7.731  1.00  0.00     0.013 A
HETATM    4  C10 UNL     1     -26.815 -32.825   8.479  1.00  0.00     0.023 A
HETATM    5  N1  UNL     1     -26.884 -34.165   8.715  1.00  0.00    -0.344 N
ATOM      6  H1  UNL     1     -26.152 -34.601   9.275  1.00  0.00     0.167 HD
HETATM    7  C11 UNL     1     -27.862 -34.921   8.246  1.00  0.00     0.122 A
HETATM    8  N2  UNL     1     -27.950 -36.191   8.456  1.00  0.00    -0.384 N
ATOM      9  H21 UNL     1     -28.704 -36.774   8.095  1.00  0.00     0.157 HD
ATOM     10  H22 UNL     1     -27.211 -36.613   9.019  1.00  0.00     0.157 HD
HETATM   11  C12 UNL     1     -28.859 -34.351   7.488  1.00  0.00     0.113 A
HETATM   12  C13 UNL     1     -29.955 -35.099   6.945  1.00  0.00     0.105 C
HETATM   13  N3  UNL     1     -30.849 -35.701   6.508  1.00  0.00    -0.191 NA
HETATM   14  C14 UNL     1     -28.820 -32.995   7.227  1.00  0.00     0.083 A
HETATM   15  N4  UNL     1     -29.862 -32.391   6.432  1.00  0.00    -0.100 NA
HETATM   16  C15 UNL     1     -25.765 -32.008   9.112  1.00  0.00     0.062 C
HETATM   17  C16 UNL     1     -25.486 -30.746   8.449  1.00  0.00     0.040 C
ENDROOT
BRANCH   1  18
HETATM   18  C4  UNL     1     -26.630 -28.682   7.342  1.00  0.00     0.014 C
BRANCH  18  19
HETATM   19  C3  UNL     1     -27.798 -27.894   7.853  1.00  0.00     0.009 C
BRANCH  19  20
HETATM   20  C2  UNL     1     -27.390 -26.798   8.813  1.00  0.00    -0.004 C
HETATM   21  C1  UNL     1     -26.050 -27.111   9.441  1.00  0.00     0.005 C
ENDBRANCH  19  20
ENDBRANCH  18  19
BRANCH  18  22
HETATM   22  C5  UNL     1     -26.406 -28.440   5.877  1.00  0.00     0.005 C
HETATM   23  C6  UNL     1     -27.334 -27.508   5.197  1.00  0.00     0.006 C
ENDBRANCH  18  22
ENDBRANCH   1  18
TORSDOF 4
ENDMDL