MODEL 1
REMARK VINA RESULT: -7.035944937      0.000      0.000
REMARK  5 active torsions:
REMARK  status: ('A' for Active; 'I' for Inactive)
REMARK    1  A    between atoms: C2_2  and  C3_3
REMARK    2  A    between atoms: C2_2  and  C6_12
REMARK    3  A    between atoms: C5_9  and  O2_10
REMARK    4  A    between atoms: C6_12  and  N2_15
REMARK    5  A    between atoms: N2_15  and  C9_17
ROOT
HETATM    1  C1  UNL     1     -26.422 -27.518   5.522  1.00  0.00     0.018 C
HETATM    2  C2  UNL     1     -27.710 -28.241   5.810  1.00  0.00     0.053 C
ENDROOT
BRANCH   2   3
HETATM    3  C3  UNL     1     -28.868 -27.379   5.562  1.00  0.00     0.045 A
HETATM    4  S1  UNL     1     -29.218 -25.749   5.947  1.00  0.00    -0.029 SA
HETATM    5  C4  UNL     1     -30.843 -25.675   5.486  1.00  0.00     0.290 A
HETATM    6  O1  UNL     1     -31.647 -24.690   5.549  1.00  0.00    -0.260 OA
HETATM    7  N1  UNL     1     -31.087 -26.934   5.030  1.00  0.00    -0.297 N
HETATM    8  C5  UNL     1     -30.117 -27.782   5.058  1.00  0.00     0.157 A
ATOM      9  H1  UNL     1     -32.008 -27.198   4.680  1.00  0.00     0.171 HD
BRANCH   8  10
HETATM   10  O2  UNL     1     -30.282 -29.115   4.572  1.00  0.00    -0.345 OA
ATOM     11  H2  UNL     1     -30.878 -29.705   5.019  1.00  0.00     0.219 HD
ENDBRANCH   8  10
ENDBRANCH   2   3
BRANCH   2  12
HETATM   12  C6  UNL     1     -27.634 -28.714   7.305  1.00  0.00     0.026 C
HETATM   13  C7  UNL     1     -29.028 -29.025   7.762  1.00  0.00     0.038 C
HETATM   14  C8  UNL     1     -27.122 -27.574   8.081  1.00  0.00     0.038 C
BRANCH  12  15
HETATM   15  N2  UNL     1     -26.782 -29.823   7.303  1.00  0.00    -0.408 N
ATOM     16  H2  UNL     1     -25.983 -29.749   6.671  1.00  0.00     0.154 HD
BRANCH  15  17
HETATM   17  C9  UNL     1     -26.848 -30.991   8.012  1.00  0.00     0.077 C
HETATM   18  C10 UNL     1     -27.452 -32.153   7.267  1.00  0.00     0.024 C
HETATM   19  C11 UNL     1     -27.365 -33.316   8.272  1.00  0.00     0.002 C
HETATM   20  C12 UNL     1     -26.207 -32.968   9.129  1.00  0.00     0.002 C
HETATM   21  C13 UNL     1     -25.601 -31.681   8.501  1.00  0.00     0.024 C
ENDBRANCH  15  17
ENDBRANCH  12  15
ENDBRANCH   2  12
TORSDOF 5
ENDMDL