MODEL 3
REMARK VINA RESULT: -7.279603182      0.887      1.068
REMARK  5 active torsions:
REMARK  status: ('A' for Active; 'I' for Inactive)
REMARK    1  A    between atoms: C2_2  and  C3_3
REMARK    2  A    between atoms: C6_6  and  C8_8
REMARK    3  A    between atoms: C8_8  and  C9_9
REMARK    4  A    between atoms: C9_9  and  N1_10
REMARK    5  A    between atoms: C10_11  and  O1_12
ROOT
HETATM    1  N1  UNL     1     -28.702 -26.210   3.607  1.00  0.00    -0.161 N
HETATM    2  C10 UNL     1     -29.103 -26.749   2.431  1.00  0.00     0.180 A
HETATM    3  C11 UNL     1     -28.694 -25.963   1.379  1.00  0.00     0.074 A
HETATM    4  C12 UNL     1     -28.939 -26.216  -0.065  1.00  0.00     0.073 C
HETATM    5  N2  UNL     1     -28.037 -24.933   1.935  1.00  0.00    -0.192 N
ATOM      6  H2  UNL     1     -27.604 -24.161   1.427  1.00  0.00     0.184 HD
HETATM    7  C13 UNL     1     -28.044 -25.085   3.276  1.00  0.00     0.680 A
HETATM    8  N3  UNL     1     -27.489 -24.253   4.112  1.00  0.00    -0.234 N
ATOM      9  H31 UNL     1     -26.989 -23.400   3.861  1.00  0.00     0.174 HD
ATOM     10  H32 UNL     1     -27.494 -24.368   5.125  1.00  0.00     0.174 HD
ENDROOT
BRANCH   1  11
HETATM   11  C9  UNL     1     -28.949 -26.759   4.951  1.00  0.00     0.151 C
BRANCH  11  12
HETATM   12  C8  UNL     1     -27.765 -27.445   5.490  1.00  0.00     0.030 C
BRANCH  12  13
HETATM   13  C6  UNL     1     -27.777 -27.876   6.914  1.00  0.00    -0.039 C
HETATM   14  C5  UNL     1     -28.739 -28.905   7.303  1.00  0.00     0.010 C
HETATM   15  C4  UNL     1     -27.969 -30.058   7.881  1.00  0.00     0.006 C
HETATM   16  C3  UNL     1     -26.532 -29.846   7.390  1.00  0.00    -0.010 C
HETATM   17  C14 UNL     1     -26.442 -28.369   7.389  1.00  0.00    -0.006 C
HETATM   18  C15 UNL     1     -26.181 -27.916   8.812  1.00  0.00     0.011 C
HETATM   19  C7  UNL     1     -28.063 -26.612   7.762  1.00  0.00     0.015 C
BRANCH  16  20
HETATM   20  C2  UNL     1     -25.568 -30.530   8.336  1.00  0.00     0.000 C
HETATM   21  C1  UNL     1     -25.851 -32.000   8.458  1.00  0.00     0.005 C
ENDBRANCH  16  20
ENDBRANCH  12  13
ENDBRANCH  11  12
ENDBRANCH   1  11
BRANCH   2  22
HETATM   22  O1  UNL     1     -29.819 -27.920   2.287  1.00  0.00    -0.344 OA
ATOM     23  H1  UNL     1     -30.493 -28.079   1.637  1.00  0.00     0.219 HD
ENDBRANCH   2  22
TORSDOF 5
ENDMDL