MODEL 4
REMARK VINA RESULT: -6.720846829      3.608      7.215
REMARK  5 active torsions:
REMARK  status: ('A' for Active; 'I' for Inactive)
REMARK    1  A    between atoms: N1_1  and  C1_4
REMARK    2  A    between atoms: C2_7  and  N3_8
REMARK    3  A    between atoms: N3_8  and  C3_10
REMARK    4  A    between atoms: C7_14  and  S1_15
REMARK    5  A    between atoms: S1_15  and  C8_16
ROOT
HETATM    1  C1  UNL     1     -25.257 -28.769   8.164  1.00  0.00     0.678 A
HETATM    2  N2  UNL     1     -25.305 -30.111   8.182  1.00  0.00    -0.177 N
ATOM      3  H2  UNL     1     -24.453 -30.634   8.380  1.00  0.00     0.185 HD
HETATM    4  C2  UNL     1     -26.440 -30.780   7.946  1.00  0.00     0.119 A
HETATM    5  C6  UNL     1     -27.614 -30.111   7.671  1.00  0.00     0.086 A
HETATM    6  C7  UNL     1     -27.560 -28.719   7.653  1.00  0.00     0.090 A
HETATM    7  N4  UNL     1     -26.400 -28.099   7.896  1.00  0.00    -0.186 N
ATOM      8  H4  UNL     1     -26.377 -27.079   7.879  1.00  0.00     0.185 HD
ENDROOT
BRANCH   6   9
HETATM    9  S1  UNL     1     -29.073 -27.865   7.302  1.00  0.00    -0.107 SA
BRANCH   9  10
HETATM   10  C8  UNL     1     -29.089 -27.415   5.542  1.00  0.00     0.054 C
HETATM   11  C9  UNL     1     -30.502 -27.292   5.060  1.00  0.00     0.015 C
HETATM   12  C10 UNL     1     -30.807 -25.840   4.673  1.00  0.00     0.001 C
HETATM   13  C11 UNL     1     -30.367 -24.983   5.835  1.00  0.00     0.000 C
HETATM   14  C12 UNL     1     -28.849 -24.931   5.866  1.00  0.00     0.001 C
HETATM   15  C13 UNL     1     -28.246 -26.200   5.332  1.00  0.00     0.015 C
ENDBRANCH   9  10
ENDBRANCH   6   9
BRANCH   4  16
HETATM   16  N3  UNL     1     -26.418 -32.205   7.979  1.00  0.00    -0.371 N
ATOM     17  H3  UNL     1     -25.669 -32.704   7.497  1.00  0.00     0.161 HD
BRANCH  16  18
HETATM   18  C3  UNL     1     -27.424 -32.952   8.676  1.00  0.00     0.083 A
HETATM   19  C4  UNL     1     -26.937 -34.192   9.418  1.00  0.00     0.027 A
HETATM   20  C5  UNL     1     -27.837 -34.307   8.271  1.00  0.00     0.027 A
ENDBRANCH  16  18
ENDBRANCH   4  16
BRANCH   1  21
HETATM   21  N1  UNL     1     -24.153 -28.152   8.395  1.00  0.00    -0.234 N
ATOM     22  H12 UNL     1     -23.326 -28.301   7.816  1.00  0.00     0.174 HD
ATOM     23  H11 UNL     1     -24.079 -27.496   9.172  1.00  0.00     0.174 HD
ENDBRANCH   1  21
TORSDOF 5
ENDMDL