MODEL 4
REMARK VINA RESULT: -7.008693164      1.680      2.252
REMARK  5 active torsions:
REMARK  status: ('A' for Active; 'I' for Inactive)
REMARK    1  A    between atoms: N1_1  and  C1_4
REMARK    2  A    between atoms: C3_8  and  C4_9
REMARK    3  A    between atoms: C4_9  and  C5_10
REMARK    4  A    between atoms: C5_10  and  C6_11
REMARK    5  A    between atoms: C6_11  and  N3_12
ROOT
HETATM    1  C1  UNL     1     -26.747 -31.800   8.010  1.00  0.00     0.676 A
HETATM    2  N2  UNL     1     -27.562 -30.792   7.660  1.00  0.00    -0.189 N
ATOM      3  H2  UNL     1     -28.492 -30.990   7.291  1.00  0.00     0.184 HD
HETATM    4  C2  UNL     1     -27.146 -29.515   7.799  1.00  0.00     0.085 A
HETATM    5  C3  UNL     1     -27.797 -28.307   7.514  1.00  0.00    -0.013 A
HETATM    6  C12 UNL     1     -26.912 -27.304   7.850  1.00  0.00     0.098 A
HETATM    7  N4  UNL     1     -25.761 -27.847   8.323  1.00  0.00    -0.362 N
ATOM      8  H4  UNL     1     -24.939 -27.336   8.643  1.00  0.00     0.165 HD
HETATM    9  C13 UNL     1     -25.908 -29.181   8.290  1.00  0.00     0.076 A
HETATM   10  C14 UNL     1     -25.070 -30.240   8.650  1.00  0.00     0.138 A
HETATM   11  N5  UNL     1     -25.532 -31.482   8.492  1.00  0.00    -0.200 N
ATOM     12  H5  UNL     1     -24.915 -32.250   8.757  1.00  0.00     0.183 HD
ENDROOT
BRANCH   5  13
HETATM   13  C4  UNL     1     -29.175 -28.224   6.961  1.00  0.00     0.044 C
BRANCH  13  14
HETATM   14  C5  UNL     1     -29.700 -26.810   6.923  1.00  0.00     0.024 C
BRANCH  14  15
HETATM   15  C6  UNL     1     -30.487 -26.494   5.685  1.00  0.00     0.122 C
BRANCH  15  16
HETATM   16  N3  UNL     1     -29.684 -25.663   4.832  1.00  0.00    -0.393 N
HETATM   17  C7  UNL     1     -29.383 -26.228   3.570  1.00  0.00     0.122 C
HETATM   18  C8  UNL     1     -27.971 -26.679   3.369  1.00  0.00     0.020 C
HETATM   19  C9  UNL     1     -26.979 -26.100   4.326  1.00  0.00     0.007 C
HETATM   20  C10 UNL     1     -27.453 -24.688   4.650  1.00  0.00     0.044 C
HETATM   21  C11 UNL     1     -28.721 -24.851   5.448  1.00  0.00     0.058 C
ENDBRANCH  15  16
ENDBRANCH  14  15
ENDBRANCH  13  14
ENDBRANCH   5  13
BRANCH   1  22
HETATM   22  N1  UNL     1     -27.114 -33.053   7.889  1.00  0.00    -0.234 N
ATOM     23  H12 UNL     1     -26.963 -33.558   7.015  1.00  0.00     0.174 HD
ATOM     24  H11 UNL     1     -27.559 -33.556   8.657  1.00  0.00     0.174 HD
ENDBRANCH   1  22
TORSDOF 5
ENDMDL