MODEL 4
REMARK VINA RESULT: -6.558403604      2.247      4.269
REMARK  6 active torsions:
REMARK  status: ('A' for Active; 'I' for Inactive)
REMARK    1  A    between atoms: C2_2  and  C4_4
REMARK    2  A    between atoms: C9_9  and  C11_11
REMARK    3  A    between atoms: C11_11  and  O1_12
REMARK    4  A    between atoms: C14_16  and  C15_17
REMARK    5  A    between atoms: C16_18  and  C17_19
REMARK    6  A    between atoms: C17_19  and  O2_20
ROOT
HETATM    1  C4  UNL     1     -26.788 -27.643   6.431  1.00  0.00    -0.010 C
HETATM    2  C5  UNL     1     -28.180 -26.806   6.486  1.00  0.00     0.010 C
HETATM    3  C6  UNL     1     -27.886 -26.230   5.174  1.00  0.00    -0.006 C
HETATM    4  C7  UNL     1     -27.394 -25.075   4.900  1.00  0.00     0.006 C
HETATM    5  C8  UNL     1     -27.139 -24.832   3.397  1.00  0.00     0.012 C
HETATM    6  C9  UNL     1     -26.222 -26.058   3.061  1.00  0.00    -0.018 C
HETATM    7  C10 UNL     1     -24.813 -25.619   3.431  1.00  0.00     0.018 C
HETATM    8  C12 UNL     1     -26.607 -27.326   3.789  1.00  0.00     0.004 C
HETATM    9  C13 UNL     1     -26.062 -27.554   5.171  1.00  0.00     0.011 C
HETATM   10  C14 UNL     1     -28.130 -27.252   4.086  1.00  0.00     0.017 C
ENDROOT
BRANCH  10  11
HETATM   11  C15 UNL     1     -29.075 -27.104   3.085  1.00  0.00    -0.023 C
HETATM   12  C16 UNL     1     -30.339 -27.544   3.098  1.00  0.00    -0.005 C
BRANCH  12  13
HETATM   13  C17 UNL     1     -30.907 -28.269   4.231  1.00  0.00     0.191 C
BRANCH  13  14
HETATM   14  O2  UNL     1     -30.606 -29.642   4.194  1.00  0.00    -0.397 OA
ATOM     15  H2  UNL     1     -30.122 -29.886   3.413  1.00  0.00     0.209 HD
ENDBRANCH  13  14
ENDBRANCH  12  13
ENDBRANCH  10  11
BRANCH   6  16
HETATM   16  C11 UNL     1     -26.230 -26.245   1.578  1.00  0.00     0.173 C
BRANCH  16  17
HETATM   17  O1  UNL     1     -26.768 -25.108   0.972  1.00  0.00    -0.400 OA
ATOM     18  H1  UNL     1     -26.504 -25.083   0.060  1.00  0.00     0.209 HD
ENDBRANCH  16  17
ENDBRANCH   6  16
BRANCH   1  19
HETATM   19  C2  UNL     1     -27.123 -28.984   6.902  1.00  0.00    -0.019 C
HETATM   20  C1  UNL     1     -28.571 -28.969   7.468  1.00  0.00     0.010 C
HETATM   21  C3  UNL     1     -26.289 -29.443   8.089  1.00  0.00     0.010 C
ENDBRANCH   1  19
TORSDOF 6
ENDMDL