MODEL 1
REMARK VINA RESULT: -6.727899750      0.000      0.000
REMARK  5 active torsions:
REMARK  status: ('A' for Active; 'I' for Inactive)
REMARK    1  A    between atoms: C2_2  and  N1_5
REMARK    2  A    between atoms: N1_5  and  C5_8
REMARK    3  A    between atoms: C5_8  and  C6_9
REMARK    4  A    between atoms: C6_9  and  N2_10
REMARK    5  A    between atoms: N2_10  and  C7_12
ROOT
HETATM    1  C6  UNL     1     -26.505 -28.355   7.216  1.00  0.00     0.049 C
HETATM    2  C12 UNL     1     -25.132 -28.454   7.899  1.00  0.00     0.032 C
HETATM    3  C13 UNL     1     -25.063 -29.523   8.934  1.00  0.00     0.002 C
HETATM    4  C14 UNL     1     -25.391 -30.901   8.409  1.00  0.00     0.000 C
HETATM    5  C15 UNL     1     -26.532 -30.844   7.441  1.00  0.00     0.002 C
HETATM    6  C16 UNL     1     -27.280 -29.545   7.730  1.00  0.00     0.032 C
ENDROOT
BRANCH   1   7
HETATM    7  C5  UNL     1     -27.109 -27.080   7.746  1.00  0.00     0.263 C
BRANCH   7   8
HETATM    8  N1  UNL     1     -28.476 -27.259   8.196  1.00  0.00    -0.065 N
ATOM      9  H12 UNL     1     -28.588 -27.148   9.204  1.00  0.00     0.278 HD
ATOM     10  H11 UNL     1     -28.797 -28.225   8.138  1.00  0.00     0.278 HD
BRANCH   8  11
HETATM   11  C2  UNL     1     -29.300 -26.322   7.410  1.00  0.00     0.115 C
HETATM   12  C1  UNL     1     -30.440 -25.905   8.304  1.00  0.00     0.045 C
HETATM   13  C3  UNL     1     -28.516 -25.166   6.900  1.00  0.00     0.045 C
HETATM   14  C4  UNL     1     -29.880 -27.128   6.243  1.00  0.00     0.045 C
ENDBRANCH   8  11
ENDBRANCH   7   8
ENDBRANCH   1   7
BRANCH   1  15
HETATM   15  N2  UNL     1     -26.282 -28.421   5.851  1.00  0.00    -0.407 N
ATOM     16  H2  UNL     1     -26.241 -29.363   5.465  1.00  0.00     0.154 HD
BRANCH  15  17
HETATM   17  C7  UNL     1     -26.112 -27.425   4.954  1.00  0.00     0.080 C
HETATM   18  C8  UNL     1     -27.116 -26.990   3.970  1.00  0.00     0.052 C
HETATM   19  C9  UNL     1     -26.435 -26.211   2.859  1.00  0.00     0.234 C
HETATM   20  N3  UNL     1     -25.225 -25.552   3.295  1.00  0.00    -0.075 N
HETATM   21  C10 UNL     1     -24.202 -26.509   3.595  1.00  0.00     0.234 C
ATOM     22  H32 UNL     1     -24.908 -24.860   2.617  1.00  0.00     0.277 HD
ATOM     23  H31 UNL     1     -25.400 -24.928   4.083  1.00  0.00     0.277 HD
HETATM   24  C11 UNL     1     -24.842 -27.744   4.130  1.00  0.00     0.052 C
ENDBRANCH  15  17
ENDBRANCH   1  15
TORSDOF 5
ENDMDL