MODEL 4
REMARK VINA RESULT: -6.355475755      2.358      4.438
REMARK  6 active torsions:
REMARK  status: ('A' for Active; 'I' for Inactive)
REMARK    1  A    between atoms: C2_2  and  C4_4
REMARK    2  A    between atoms: C5_5  and  C6_6
REMARK    3  A    between atoms: C12_12  and  O1_13
REMARK    4  A    between atoms: C12_12  and  O2_15
REMARK    5  A    between atoms: C13_17  and  C14_18
REMARK    6  A    between atoms: C14_18  and  C15_19
ROOT
HETATM    1  C4  UNL     1     -27.650 -26.744   3.660  1.00  0.00     0.027 C
HETATM    2  C5  UNL     1     -28.399 -25.962   2.596  1.00  0.00    -0.005 C
HETATM    3  C8  UNL     1     -29.781 -26.479   2.474  1.00  0.00     0.019 C
HETATM    4  C9  UNL     1     -30.461 -26.890   3.704  1.00  0.00     0.009 C
HETATM    5  C10 UNL     1     -31.511 -25.868   4.146  1.00  0.00     0.020 C
HETATM    6  C11 UNL     1     -31.264 -28.167   3.411  1.00  0.00     0.020 C
HETATM    7  C12 UNL     1     -29.602 -27.186   4.891  1.00  0.00     0.171 C
HETATM    8  C13 UNL     1     -28.363 -26.312   4.966  1.00  0.00     0.062 C
ENDROOT
BRANCH   8   9
HETATM    9  C14 UNL     1     -27.522 -26.577   6.142  1.00  0.00     0.062 C
BRANCH   9  10
HETATM   10  C15 UNL     1     -27.969 -25.982   7.412  1.00  0.00    -0.024 C
HETATM   11  C16 UNL     1     -27.597 -26.604   8.740  1.00  0.00     0.062 C
HETATM   12  N1  UNL     1     -28.637 -24.909   7.503  1.00  0.00    -0.406 N
ATOM     13  H12 UNL     1     -28.888 -24.491   6.607  1.00  0.00     0.155 HD
ATOM     14  H11 UNL     1     -28.947 -24.497   8.383  1.00  0.00     0.155 HD
ENDBRANCH   9  10
ENDBRANCH   8   9
BRANCH   1  15
HETATM   15  C2  UNL     1     -26.210 -26.424   3.666  1.00  0.00    -0.088 C
HETATM   16  C1  UNL     1     -25.300 -27.379   3.703  1.00  0.00     0.014 C
HETATM   17  C3  UNL     1     -25.693 -25.008   3.617  1.00  0.00     0.043 C
ENDBRANCH   1  15
BRANCH   7  18
HETATM   18  O1  UNL     1     -30.394 -27.241   5.990  1.00  0.00    -0.364 OA
ATOM     19  H1  UNL     1     -30.351 -28.121   6.347  1.00  0.00     0.213 HD
ENDBRANCH   7  18
BRANCH   7  20
HETATM   20  O2  UNL     1     -29.115 -28.508   4.705  1.00  0.00    -0.364 OA
ATOM     21  H2  UNL     1     -28.881 -28.826   5.569  1.00  0.00     0.213 HD
ENDBRANCH   7  20
BRANCH   2  22
HETATM   22  C6  UNL     1     -27.691 -26.024   1.262  1.00  0.00     0.001 C
HETATM   23  C7  UNL     1     -28.379 -27.096   0.433  1.00  0.00     0.005 C
ENDBRANCH   2  22
TORSDOF 6
ENDMDL