MODEL 4
REMARK VINA RESULT: -5.316613990      1.049      1.420
REMARK  3 active torsions:
REMARK  status: ('A' for Active; 'I' for Inactive)
REMARK    1  A    between atoms: O1_1  and  C1_3
REMARK    2  A    between atoms: C3_6  and  N1_7
REMARK    3  A    between atoms: N1_7  and  N2_9
ROOT
HETATM    1  N1  UNL     1     -12.300  -1.310 -22.615  1.00  0.00    -0.304 N
ATOM      2  H1  UNL     1     -12.473  -2.024 -23.321  1.00  0.00     0.183 HD
ENDROOT
BRANCH   1   3
HETATM    3  C3  UNL     1     -10.971  -0.800 -22.388  1.00  0.00     0.225 C
HETATM    4  S1  UNL     1     -10.278  -0.020 -23.850  1.00  0.00    -0.129 SA
HETATM    5  C2  UNL     1      -8.845  -1.043 -24.258  1.00  0.00     0.119 C
HETATM    6  C1  UNL     1      -8.349  -1.643 -22.982  1.00  0.00     0.191 C
HETATM    7  S2  UNL     1      -9.873  -2.255 -22.183  1.00  0.00    -0.100 SA
BRANCH   6   8
HETATM    8  O1  UNL     1      -7.818  -0.665 -22.147  1.00  0.00    -0.384 OA
ATOM      9  H1  UNL     1      -7.498  -1.047 -21.339  1.00  0.00     0.211 HD
ENDBRANCH   6   8
ENDBRANCH   1   3
BRANCH   1  10
HETATM   10  N2  UNL     1     -13.347  -0.801 -21.843  1.00  0.00    -0.247 N
HETATM   11  C4  UNL     1     -13.898  -1.339 -20.755  1.00  0.00     0.223 A
HETATM   12  N3  UNL     1     -14.876  -0.534 -20.310  1.00  0.00    -0.293 N
HETATM   13  N4  UNL     1     -14.949   0.510 -21.106  1.00  0.00    -0.293 N
ATOM     14  H3  UNL     1     -15.463  -0.704 -19.493  1.00  0.00     0.187 HD
HETATM   15  C5  UNL     1     -14.017   0.367 -22.056  1.00  0.00     0.223 A
ATOM     16  H4  UNL     1     -15.601   1.290 -21.016  1.00  0.00     0.187 HD
ENDBRANCH   1  10
TORSDOF 3
ENDMDL