MODEL 3
REMARK VINA RESULT: -4.114964871      2.113      2.634
REMARK  3 active torsions:
REMARK  status: ('A' for Active; 'I' for Inactive)
REMARK    1  A    between atoms: C2_7  and  O2_8
REMARK    2  A    between atoms: C2_7  and  C3_10
REMARK    3  A    between atoms: C3_10  and  O3_11
ROOT
HETATM    1  O1  UNL     1     -10.471   1.133 -25.366  1.00  0.00    -0.280 OA
HETATM    2  C1  UNL     1      -9.532   0.472 -24.977  1.00  0.00     0.245 C
HETATM    3  S1  UNL     1      -8.129   0.327 -26.065  1.00  0.00    -0.003 SA
HETATM    4  S2  UNL     1      -6.387  -0.009 -24.867  1.00  0.00    -0.005 SA
HETATM    5  S3  UNL     1      -6.852  -1.689 -23.632  1.00  0.00    -0.009 SA
HETATM    6  S4  UNL     1      -8.977  -1.876 -23.689  1.00  0.00    -0.036 SA
HETATM    7  C2  UNL     1      -9.620  -0.157 -23.645  1.00  0.00     0.210 C
ENDROOT
BRANCH   7   8
HETATM    8  O2  UNL     1      -8.848   0.585 -22.756  1.00  0.00    -0.369 OA
ATOM      9  H2  UNL     1      -9.161   0.419 -21.876  1.00  0.00     0.212 HD
ENDBRANCH   7   8
BRANCH   7  10
HETATM   10  C3  UNL     1     -11.019  -0.224 -23.141  1.00  0.00     0.223 C
BRANCH  10  11
HETATM   11  O3  UNL     1     -11.479   1.065 -22.858  1.00  0.00    -0.397 OA
ATOM     12  H3  UNL     1     -12.429   1.070 -22.851  1.00  0.00     0.209 HD
ENDBRANCH  10  11
ENDBRANCH   7  10
TORSDOF 3
ENDMDL