MODEL 1
REMARK VINA RESULT: -6.020119419      0.000      0.000
REMARK  3 active torsions:
REMARK  status: ('A' for Active; 'I' for Inactive)
REMARK    1  A    between atoms: N1_1  and  C1_4
REMARK    2  A    between atoms: C2_6  and  C3_7
REMARK    3  A    between atoms: N3_12  and  O2_13
ROOT
HETATM    1  C1  UNL     1     -13.526   0.446 -22.140  1.00  0.00     0.130 A
HETATM    2  S1  UNL     1     -12.504  -0.911 -21.935  1.00  0.00    -0.047 SA
HETATM    3  C2  UNL     1     -11.193  -0.711 -22.987  1.00  0.00     0.098 A
HETATM    4  N3  UNL     1     -11.241   0.413 -23.715  1.00  0.00    -0.187 N
HETATM    5  S2  UNL     1     -12.631   1.270 -23.324  1.00  0.00     0.042 SA
ENDROOT
BRANCH   3   6
HETATM    6  C3  UNL     1     -10.102  -1.706 -23.074  1.00  0.00     0.089 C
HETATM    7  C4  UNL     1     -10.074  -2.441 -21.730  1.00  0.00     0.156 C
HETATM    8  N2  UNL     1      -8.662  -2.541 -21.489  1.00  0.00    -0.100 NA
HETATM    9  O1  UNL     1      -8.221  -1.301 -21.811  1.00  0.00    -0.286 OA
HETATM   10  C5  UNL     1      -8.731  -1.070 -23.077  1.00  0.00     0.208 C
ENDBRANCH   3   6
BRANCH   4  11
HETATM   11  O2  UNL     1     -10.319   0.850 -24.656  1.00  0.00    -0.276 OA
ATOM     12  H2  UNL     1      -9.372   0.793 -24.606  1.00  0.00     0.246 HD
ENDBRANCH   4  11
BRANCH   1  13
HETATM   13  N1  UNL     1     -14.634   0.720 -21.552  1.00  0.00    -0.387 N
ATOM     14  H12 UNL     1     -15.024   0.426 -20.657  1.00  0.00     0.157 HD
ATOM     15  H11 UNL     1     -15.397   1.319 -21.867  1.00  0.00     0.157 HD
ENDBRANCH   1  13
TORSDOF 3
ENDMDL