MODEL 4
REMARK VINA RESULT: -5.662244214      2.202      2.556
REMARK  3 active torsions:
REMARK  status: ('A' for Active; 'I' for Inactive)
REMARK    1  A    between atoms: O1_1  and  C1_3
REMARK    2  A    between atoms: C3_6  and  N1_7
REMARK    3  A    between atoms: C6_14  and  O4_15
ROOT
HETATM    1  C1  UNL     1      -7.240  -0.716 -24.228  1.00  0.00     0.175 C
HETATM    2  C2  UNL     1      -8.277  -0.799 -25.322  1.00  0.00     0.205 C
HETATM    3  O2  UNL     1      -9.405  -1.369 -24.806  1.00  0.00    -0.359 OA
HETATM    4  C3  UNL     1      -9.167  -1.813 -23.535  1.00  0.00     0.278 C
HETATM    5  C6  UNL     1      -8.151  -0.825 -23.000  1.00  0.00     0.199 C
ENDROOT
BRANCH   4   6
HETATM    6  N1  UNL     1     -10.363  -1.724 -22.675  1.00  0.00    -0.227 N
HETATM    7  N2  UNL     1     -11.438  -1.003 -22.879  1.00  0.00    -0.283 N
HETATM    8  C4  UNL     1     -12.287  -1.203 -21.868  1.00  0.00     0.253 A
ATOM      9  H2  UNL     1     -11.600  -0.391 -23.679  1.00  0.00     0.188 HD
HETATM   10  O3  UNL     1     -11.704  -2.053 -21.059  1.00  0.00    -0.277 OA
HETATM   11  C5  UNL     1     -10.530  -2.389 -21.524  1.00  0.00     0.239 A
HETATM   12  S1  UNL     1      -9.450  -3.433 -20.832  1.00  0.00    -0.031 SA
ENDBRANCH   4   6
BRANCH   5  13
HETATM   13  O4  UNL     1      -8.797   0.393 -22.867  1.00  0.00    -0.388 OA
ATOM     14  H4  UNL     1      -9.637   0.219 -22.461  1.00  0.00     0.210 HD
ENDBRANCH   5  13
BRANCH   1  15
HETATM   15  O1  UNL     1      -6.547   0.472 -24.257  1.00  0.00    -0.391 OA
ATOM     16  H1  UNL     1      -6.158   0.642 -25.107  1.00  0.00     0.210 HD
ENDBRANCH   1  15
TORSDOF 3
ENDMDL