MODEL 5
REMARK VINA RESULT: -5.874045648      3.267      3.729
REMARK  3 active torsions:
REMARK  status: ('A' for Active; 'I' for Inactive)
REMARK    1  A    between atoms: O1_1  and  N1_3
REMARK    2  A    between atoms: N1_3  and  N2_5
REMARK    3  A    between atoms: C1_9  and  S1_10
ROOT
HETATM    1  N2  UNL     1     -12.850  -1.744 -20.851  1.00  0.00    -0.147 N
HETATM    2  N3  UNL     1     -12.680  -2.787 -20.050  1.00  0.00     0.005 NA
HETATM    3  N4  UNL     1     -11.488  -3.307 -20.289  1.00  0.00    -0.267 N
ATOM      4  H4  UNL     1     -11.100  -4.121 -19.812  1.00  0.00     0.185 HD
HETATM    5  C1  UNL     1     -10.860  -2.606 -21.255  1.00  0.00     0.205 A
HETATM    6  C2  UNL     1     -11.744  -1.608 -21.605  1.00  0.00     0.183 A
HETATM    7  S2  UNL     1     -11.497  -0.461 -22.735  1.00  0.00    -0.054 SA
ENDROOT
BRANCH   1   8
HETATM    8  N1  UNL     1     -13.986  -0.931 -20.896  1.00  0.00    -0.189 N
ATOM      9  H1  UNL     1     -14.033  -0.152 -21.553  1.00  0.00     0.217 HD
BRANCH   8  10
HETATM   10  O1  UNL     1     -14.943  -1.162 -20.128  1.00  0.00    -0.273 OA
ATOM     11  H1  UNL     1     -14.968  -0.754 -19.271  1.00  0.00     0.246 HD
ENDBRANCH   8  10
ENDBRANCH   1   8
BRANCH   5  12
HETATM   12  S1  UNL     1      -9.280  -2.851 -21.955  1.00  0.00     0.159 S
HETATM   13  O2  UNL     1      -8.400  -1.708 -21.504  1.00  0.00    -0.590 OA
HETATM   14  O3  UNL     1      -8.683  -4.169 -21.567  1.00  0.00    -0.590 OA
HETATM   15  O4  UNL     1      -9.383  -2.799 -23.619  1.00  0.00    -0.590 OA
ENDBRANCH   5  12
TORSDOF 3
ENDMDL