MODEL 1
REMARK VINA RESULT: -6.510194344      0.000      0.000
REMARK  3 active torsions:
REMARK  status: ('A' for Active; 'I' for Inactive)
REMARK    1  A    between atoms: N3_6  and  O1_8
REMARK    2  A    between atoms: O1_8  and  C4_9
REMARK       I    between atoms: C4_9  and  N4_11
REMARK    3  A    between atoms: C7_15  and  O4_16
ROOT
HETATM    1  N1  UNL     1     -16.072   3.586 -19.337  1.00  0.00    -0.189 NA
HETATM    2  C1  UNL     1     -15.510   2.890 -20.078  1.00  0.00     0.131 C
HETATM    3  C2  UNL     1     -14.807   2.037 -20.994  1.00  0.00     0.215 C
HETATM    4  C3  UNL     1     -13.855   2.517 -21.954  1.00  0.00     0.131 C
HETATM    5  N2  UNL     1     -13.098   2.921 -22.728  1.00  0.00    -0.189 NA
HETATM    6  N3  UNL     1     -15.035   0.778 -20.957  1.00  0.00    -0.236 N
ATOM      7  H3  UNL     1     -15.711   0.433 -20.274  1.00  0.00     0.196 HD
ENDROOT
BRANCH   6   8
HETATM    8  O1  UNL     1     -14.427  -0.136 -21.777  1.00  0.00    -0.179 OA
BRANCH   8   9
HETATM    9  C4  UNL     1     -13.404  -0.953 -21.370  1.00  0.00     0.388 C
HETATM   10  O2  UNL     1     -13.621  -1.699 -20.378  1.00  0.00    -0.236 OA
HETATM   11  N4  UNL     1     -12.130  -1.006 -21.993  1.00  0.00    -0.275 N
HETATM   12  C5  UNL     1     -11.004  -1.841 -21.619  1.00  0.00     0.159 C
HETATM   13  C7  UNL     1     -11.639  -0.256 -23.134  1.00  0.00     0.374 C
HETATM   14  C6  UNL     1     -10.206  -1.873 -22.903  1.00  0.00     0.193 C
HETATM   15  O3  UNL     1     -11.036  -1.268 -23.873  1.00  0.00    -0.342 OA
BRANCH  13  16
HETATM   16  O4  UNL     1     -10.649   0.601 -22.661  1.00  0.00    -0.354 OA
ATOM     17  H4  UNL     1     -11.083   1.257 -22.129  1.00  0.00     0.214 HD
ENDBRANCH  13  16
ENDBRANCH   8   9
ENDBRANCH   6   8
TORSDOF 3
ENDMDL