MODEL 5
REMARK VINA RESULT: -7.076498569      3.111      4.421
REMARK  2 active torsions:
REMARK  status: ('A' for Active; 'I' for Inactive)
REMARK    1  A    between atoms: N1_2  and  N2_4
REMARK    2  A    between atoms: C1_6  and  C2_7
ROOT
HETATM    1  C2  UNL     1     -12.016  -1.523 -21.774  1.00  0.00    -0.016 A
HETATM    2  C3  UNL     1     -10.701  -1.865 -22.006  1.00  0.00     0.016 A
HETATM    3  C4  UNL     1     -10.068  -2.865 -21.277  1.00  0.00     0.040 A
HETATM    4  C5  UNL     1     -10.742  -3.554 -20.289  1.00  0.00     0.105 A
HETATM    5  C6  UNL     1     -12.058  -3.224 -20.045  1.00  0.00     0.105 A
HETATM    6  C7  UNL     1     -12.670  -2.226 -20.781  1.00  0.00     0.052 A
HETATM    7  O3  UNL     1     -12.472  -4.064 -19.019  1.00  0.00    -0.323 OA
HETATM    8  C8  UNL     1     -11.591  -5.199 -18.968  1.00  0.00     0.352 C
HETATM    9  O4  UNL     1     -10.378  -4.590 -19.406  1.00  0.00    -0.323 OA
ENDROOT
BRANCH   1  10
HETATM   10  C1  UNL     1     -12.699  -0.478 -22.526  1.00  0.00     0.124 C
HETATM   11  N2  UNL     1     -12.493   0.758 -22.275  1.00  0.00    -0.252 N
ATOM     12  H2  UNL     1     -11.831   0.966 -21.527  1.00  0.00     0.192 HD
BRANCH  11  13
HETATM   13  N1  UNL     1     -13.062   1.827 -22.899  1.00  0.00    -0.039 N
HETATM   14  O1  UNL     1     -14.097   2.483 -22.346  1.00  0.00    -0.516 OA
HETATM   15  O2  UNL     1     -12.599   2.250 -24.088  1.00  0.00    -0.516 OA
ENDBRANCH  11  13
ENDBRANCH   1  10
TORSDOF 2
ENDMDL