MODEL 4
REMARK VINA RESULT: -4.166483427      2.991      4.636
REMARK  4 active torsions:
REMARK  status: ('A' for Active; 'I' for Inactive)
REMARK    1  A    between atoms: N1_1  and  C1_4
REMARK    2  A    between atoms: C2_7  and  O1_8
REMARK    3  A    between atoms: N2_10  and  C3_11
REMARK    4  A    between atoms: C3_11  and  C4_12
ROOT
HETATM    1  C1  UNL     1     -11.549  -1.987 -21.611  1.00  0.00     0.153 A
HETATM    2  S1  UNL     1     -12.366  -2.868 -20.352  1.00  0.00    -0.013 SA
HETATM    3  S2  UNL     1     -10.662  -3.884 -19.773  1.00  0.00    -0.006 SA
HETATM    4  C2  UNL     1      -9.675  -3.139 -20.935  1.00  0.00     0.195 A
HETATM    5  N2  UNL     1     -10.260  -2.249 -21.740  1.00  0.00    -0.301 N
ENDROOT
BRANCH   1   6
HETATM    6  N1  UNL     1     -12.276  -1.155 -22.351  1.00  0.00    -0.379 N
ATOM      7  H12 UNL     1     -12.676  -1.342 -23.270  1.00  0.00     0.158 HD
ATOM      8  H11 UNL     1     -12.483  -0.235 -21.962  1.00  0.00     0.158 HD
ENDBRANCH   1   6
BRANCH   5   9
HETATM    9  C3  UNL     1      -9.465  -1.512 -22.753  1.00  0.00     0.144 C
BRANCH   9  10
HETATM   10  C4  UNL     1      -9.335  -2.201 -24.051  1.00  0.00     0.106 C
HETATM   11  S3  UNL     1      -7.647  -2.336 -24.663  1.00  0.00    -0.096 SA
ENDBRANCH   9  10
ENDBRANCH   5   9
BRANCH   4  12
HETATM   12  O1  UNL     1      -8.414  -3.469 -20.980  1.00  0.00    -0.340 OA
ATOM     13  H1  UNL     1      -7.811  -2.889 -21.431  1.00  0.00     0.220 HD
ENDBRANCH   4  12
TORSDOF 4
ENDMDL