MODEL 1
REMARK VINA RESULT: -6.199484526      0.000      0.000
REMARK  3 active torsions:
REMARK  status: ('A' for Active; 'I' for Inactive)
REMARK    1  A    between atoms: O1_1  and  C1_3
REMARK    2  A    between atoms: C1_3  and  C2_4
REMARK    3  A    between atoms: C3_7  and  N1_8
ROOT
HETATM    1  C2  UNL     1      -8.217  -1.591 -23.155  1.00  0.00     0.325 C
HETATM    2  O2  UNL     1      -7.979  -2.217 -21.929  1.00  0.00    -0.201 OA
HETATM    3  O3  UNL     1      -9.050  -1.996 -21.194  1.00  0.00    -0.182 OA
HETATM    4  C3  UNL     1     -10.055  -2.150 -22.178  1.00  0.00     0.416 C
HETATM    5  O4  UNL     1      -9.599  -1.296 -23.158  1.00  0.00    -0.306 OA
ENDROOT
BRANCH   4   6
HETATM    6  N1  UNL     1     -11.351  -1.857 -21.674  1.00  0.00    -0.265 N
HETATM    7  C4  UNL     1     -12.117  -0.847 -22.096  1.00  0.00     0.207 A
HETATM    8  N2  UNL     1     -13.267  -0.892 -21.388  1.00  0.00    -0.294 N
HETATM    9  N3  UNL     1     -13.195  -1.910 -20.554  1.00  0.00    -0.275 N
ATOM     10  H2  UNL     1     -14.054  -0.250 -21.483  1.00  0.00     0.187 HD
HETATM   11  C5  UNL     1     -12.008  -2.515 -20.725  1.00  0.00     0.197 A
ATOM     12  H3  UNL     1     -13.917  -2.191 -19.890  1.00  0.00     0.189 HD
HETATM   13  S1  UNL     1     -11.548  -3.827 -19.865  1.00  0.00    -0.039 SA
ENDBRANCH   4   6
BRANCH   1  14
HETATM   14  C1  UNL     1      -7.395  -0.311 -23.236  1.00  0.00     0.228 C
BRANCH  14  15
HETATM   15  O1  UNL     1      -7.116   0.080 -21.937  1.00  0.00    -0.396 OA
ATOM     16  H1  UNL     1      -6.389   0.692 -21.978  1.00  0.00     0.209 HD
ENDBRANCH  14  15
ENDBRANCH   1  14
TORSDOF 3
ENDMDL