MODEL 2
REMARK VINA RESULT: -5.525854242      2.808      3.200
REMARK  2 active torsions:
REMARK  status: ('A' for Active; 'I' for Inactive)
REMARK    1  A    between atoms: C2_5  and  N2_6
REMARK       I    between atoms: N2_6  and  C3_8
REMARK       I    between atoms: C3_8  and  N4_12
REMARK    2  A    between atoms: N4_12  and  N5_14
ROOT
HETATM    1  N2  UNL     1     -10.269  -1.839 -22.907  1.00  0.00    -0.168 N
ATOM      2  H2  UNL     1     -10.791  -2.187 -23.711  1.00  0.00     0.186 HD
HETATM    3  C3  UNL     1      -9.449  -0.731 -23.108  1.00  0.00     0.697 C
HETATM    4  N3  UNL     1      -9.790   0.438 -22.715  1.00  0.00    -0.233 N
ATOM      5  H31 UNL     1      -9.190   1.249 -22.862  1.00  0.00     0.174 HD
ATOM      6  H32 UNL     1     -10.689   0.542 -22.244  1.00  0.00     0.174 HD
HETATM    7  N4  UNL     1      -8.200  -0.876 -23.762  1.00  0.00    -0.072 N
ATOM      8  H4  UNL     1      -8.115  -1.533 -24.537  1.00  0.00     0.212 HD
ENDROOT
BRANCH   1   9
HETATM    9  C2  UNL     1     -10.424  -2.470 -21.768  1.00  0.00     0.180 A
HETATM   10  N1  UNL     1     -11.401  -2.642 -20.859  1.00  0.00    -0.295 N
HETATM   11  C1  UNL     1     -12.765  -2.095 -20.894  1.00  0.00     0.167 C
HETATM   12  S1  UNL     1     -10.696  -3.620 -19.692  1.00  0.00     0.032 SA
HETATM   13  S2  UNL     1      -9.207  -3.392 -21.020  1.00  0.00     0.003 SA
ENDBRANCH   1   9
BRANCH   7  14
HETATM   14  N5  UNL     1      -7.086  -0.138 -23.369  1.00  0.00    -0.024 N
HETATM   15  O1  UNL     1      -6.295   0.310 -24.227  1.00  0.00    -0.516 OA
HETATM   16  O2  UNL     1      -6.897   0.071 -22.012  1.00  0.00    -0.516 OA
ENDBRANCH   7  14
TORSDOF 2
ENDMDL