MODEL 5
REMARK VINA RESULT: -5.034868714      3.499      7.744
REMARK  8 active torsions:
REMARK  status: ('A' for Active; 'I' for Inactive)
REMARK    1  A    between atoms: C2_2  and  C3_3
REMARK    2  A    between atoms: C3_3  and  C4_4
REMARK    3  A    between atoms: C4_4  and  C5_5
REMARK    4  A    between atoms: C5_5  and  C7_7
REMARK    5  A    between atoms: C7_7  and  O1_10
REMARK    6  A    between atoms: O1_10  and  C9_11
REMARK    7  A    between atoms: C9_11  and  C10_13
REMARK    8  A    between atoms: C10_13  and  C11_14
ROOT
HETATM    1  C7  UNL     1      23.940  34.670  17.949  1.00  0.00     0.210 C
HETATM    2  C8  UNL     1      25.265  34.380  17.262  1.00  0.00     0.085 C
HETATM    3  F1  UNL     1      22.907  34.653  17.037  1.00  0.00    -0.211 F
ENDROOT
BRANCH   1   4
HETATM    4  C5  UNL     1      23.645  33.661  19.012  1.00  0.00     0.049 C
HETATM    5  C6  UNL     1      22.148  33.640  19.232  1.00  0.00     0.016 C
BRANCH   4   6
HETATM    6  C4  UNL     1      24.132  32.275  18.645  1.00  0.00     0.010 C
BRANCH   6   7
HETATM    7  C3  UNL     1      23.163  31.266  19.234  1.00  0.00     0.000 C
BRANCH   7   8
HETATM    8  C2  UNL     1      23.723  29.862  19.135  1.00  0.00    -0.005 C
HETATM    9  C1  UNL     1      22.655  28.931  19.668  1.00  0.00     0.005 C
ENDBRANCH   7   8
ENDBRANCH   6   7
ENDBRANCH   4   6
ENDBRANCH   1   4
BRANCH   1  10
HETATM   10  O1  UNL     1      24.030  35.974  18.492  1.00  0.00    -0.302 OA
BRANCH  10  11
HETATM   11  C9  UNL     1      23.349  37.053  17.945  1.00  0.00     0.116 C
HETATM   12  S1  UNL     1      21.909  37.467  18.569  1.00  0.00    -0.058 SA
BRANCH  11  13
HETATM   13  C10 UNL     1      23.998  37.758  16.817  1.00  0.00     0.077 C
BRANCH  13  14
HETATM   14  C11 UNL     1      23.515  39.178  16.677  1.00  0.00     0.003 C
HETATM   15  C12 UNL     1      24.710  40.076  17.003  1.00  0.00     0.005 C
ENDBRANCH  13  14
ENDBRANCH  11  13
ENDBRANCH  10  11
ENDBRANCH   1  10
TORSDOF 8
ENDMDL