MODEL 5
REMARK VINA RESULT: -6.721452093      3.248      4.861
REMARK  4 active torsions:
REMARK  status: ('A' for Active; 'I' for Inactive)
REMARK    1  A    between atoms: C4_8  and  C5_9
REMARK    2  A    between atoms: C5_9  and  C6_10
REMARK    3  A    between atoms: C6_10  and  C7_11
REMARK    4  A    between atoms: C7_11  and  C8_12
ROOT
HETATM    1  F1  UNL     1      24.410  39.483  16.734  1.00  0.00    -0.170 F
HETATM    2  C1  UNL     1      23.222  38.755  16.583  1.00  0.00     0.391 C
HETATM    3  F2  UNL     1      23.218  38.143  15.344  1.00  0.00    -0.170 F
HETATM    4  O1  UNL     1      22.115  39.579  16.615  1.00  0.00    -0.311 OA
HETATM    5  C2  UNL     1      22.023  40.196  17.859  1.00  0.00     0.254 C
HETATM    6  S1  UNL     1      22.289  38.719  18.941  1.00  0.00    -0.100 SA
HETATM    7  C3  UNL     1      23.140  37.786  17.686  1.00  0.00     0.077 C
HETATM    8  C4  UNL     1      23.574  36.568  17.735  1.00  0.00    -0.004 C
ENDROOT
BRANCH   8   9
HETATM    9  C5  UNL     1      23.436  35.672  18.912  1.00  0.00     0.028 C
BRANCH   9  10
HETATM   10  C6  UNL     1      22.955  34.319  18.468  1.00  0.00     0.004 C
BRANCH  10  11
HETATM   11  C7  UNL     1      24.115  33.395  18.336  1.00  0.00     0.005 C
BRANCH  11  12
HETATM   12  C8  UNL     1      23.953  32.134  19.161  1.00  0.00    -0.014 C
HETATM   13  C9  UNL     1      22.538  31.821  19.519  1.00  0.00     0.004 C
HETATM   14  C10 UNL     1      22.648  30.405  20.048  1.00  0.00     0.000 C
HETATM   15  C11 UNL     1      23.698  29.765  19.184  1.00  0.00     0.000 C
HETATM   16  C12 UNL     1      24.441  30.900  18.485  1.00  0.00     0.004 C
ENDBRANCH  11  12
ENDBRANCH  10  11
ENDBRANCH   9  10
ENDBRANCH   8   9
TORSDOF 4
ENDMDL