MODEL 2
REMARK VINA RESULT: -5.325709388      5.761      8.267
REMARK  5 active torsions:
REMARK  status: ('A' for Active; 'I' for Inactive)
REMARK    1  A    between atoms: C2_2  and  C3_3
REMARK    2  A    between atoms: C3_3  and  C4_4
REMARK    3  A    between atoms: C4_4  and  C5_5
REMARK    4  A    between atoms: C7_7  and  C8_8
REMARK    5  A    between atoms: C8_8  and  C10_10
ROOT
HETATM    1  C5  UNL     1      22.611  30.239  19.539  1.00  0.00     0.142 C
HETATM    2  C6  UNL     1      22.839  31.527  20.283  1.00  0.00     0.071 C
HETATM    3  C7  UNL     1      23.141  32.576  19.200  1.00  0.00    -0.026 C
HETATM    4  C12 UNL     1      24.084  32.216  18.369  1.00  0.00     0.182 C
HETATM    5  F1  UNL     1      24.437  33.036  17.381  1.00  0.00    -0.196 F
HETATM    6  S1  UNL     1      24.898  30.618  18.580  1.00  0.00     0.060 SA
HETATM    7  O1  UNL     1      23.855  29.602  19.477  1.00  0.00    -0.308 OA
ENDROOT
BRANCH   1   8
HETATM    8  C4  UNL     1      21.547  29.374  20.109  1.00  0.00     0.033 C
BRANCH   8   9
HETATM    9  C3  UNL     1      22.062  27.994  20.406  1.00  0.00     0.002 C
BRANCH   9  10
HETATM   10  C2  UNL     1      22.147  27.751  21.902  1.00  0.00    -0.004 C
HETATM   11  C1  UNL     1      22.094  26.269  22.179  1.00  0.00     0.005 C
ENDBRANCH   9  10
ENDBRANCH   8   9
ENDBRANCH   1   8
BRANCH   3  12
HETATM   12  C8  UNL     1      22.358  33.764  19.309  1.00  0.00     0.014 C
HETATM   13  C9  UNL     1      22.224  34.035  20.831  1.00  0.00     0.015 C
BRANCH  12  14
HETATM   14  C10 UNL     1      22.653  35.051  18.707  1.00  0.00     0.004 C
HETATM   15  C11 UNL     1      23.879  35.785  19.141  1.00  0.00     0.006 C
ENDBRANCH  12  14
ENDBRANCH   3  12
TORSDOF 5
ENDMDL