MODEL 1
REMARK VINA RESULT: -4.463386262      0.000      0.000
REMARK  7 active torsions:
REMARK  status: ('A' for Active; 'I' for Inactive)
REMARK    1  A    between atoms: C2_2  and  C3_3
REMARK    2  A    between atoms: C3_3  and  C4_4
REMARK    3  A    between atoms: C8_8  and  O1_9
REMARK    4  A    between atoms: O1_9  and  C9_10
REMARK    5  A    between atoms: C9_10  and  C10_11
REMARK    6  A    between atoms: C9_10  and  S1_13
REMARK    7  A    between atoms: S1_13  and  C11_14
ROOT
HETATM    1  C4  UNL     1      20.636  40.463  18.311  1.00  0.00     0.015 C
HETATM    2  C5  UNL     1      20.231  40.692  19.723  1.00  0.00     0.007 C
HETATM    3  C6  UNL     1      21.098  41.921  20.077  1.00  0.00     0.003 C
HETATM    4  C7  UNL     1      22.441  41.436  19.586  1.00  0.00     0.032 C
HETATM    5  C8  UNL     1      22.160  40.623  18.347  1.00  0.00     0.127 C
ENDROOT
BRANCH   5   6
HETATM    6  O1  UNL     1      22.570  41.326  17.248  1.00  0.00    -0.367 OA
BRANCH   6   7
HETATM    7  C9  UNL     1      23.493  40.717  16.451  1.00  0.00     0.211 C
BRANCH   7   8
HETATM    8  C10 UNL     1      23.876  39.330  16.917  1.00  0.00     0.264 C
HETATM    9  F1  UNL     1      23.313  38.341  16.165  1.00  0.00    -0.252 F
ENDBRANCH   7   8
BRANCH   7  10
HETATM   10  S1  UNL     1      25.013  41.658  16.236  1.00  0.00    -0.135 SA
BRANCH  10  11
HETATM   11  C11 UNL     1      26.420  40.776  16.955  1.00  0.00     0.072 C
HETATM   12  C12 UNL     1      26.877  41.475  18.238  1.00  0.00     0.016 C
ENDBRANCH  10  11
ENDBRANCH   7  10
ENDBRANCH   6   7
ENDBRANCH   5   6
BRANCH   1  13
HETATM   13  C3  UNL     1      20.245  39.199  17.657  1.00  0.00     0.007 C
BRANCH  13  14
HETATM   14  C2  UNL     1      18.808  38.860  17.776  1.00  0.00    -0.004 C
HETATM   15  C1  UNL     1      17.969  39.156  16.588  1.00  0.00     0.005 C
ENDBRANCH  13  14
ENDBRANCH   1  13
TORSDOF 7
ENDMDL