MODEL 5
REMARK VINA RESULT: -5.791478584      7.444      9.376
REMARK  7 active torsions:
REMARK  status: ('A' for Active; 'I' for Inactive)
REMARK    1  A    between atoms: C2_2  and  C3_3
REMARK    2  A    between atoms: C3_3  and  C4_4
REMARK    3  A    between atoms: C4_4  and  C6_6
REMARK    4  A    between atoms: C6_6  and  C7_7
REMARK    5  A    between atoms: C7_7  and  O1_9
REMARK    6  A    between atoms: O1_9  and  C8_10
REMARK    7  A    between atoms: C8_10  and  C10_13
ROOT
HETATM    1  C7  UNL     1      23.065  38.551  17.734  1.00  0.00     0.117 C
HETATM    2  S1  UNL     1      23.201  36.954  17.886  1.00  0.00    -0.058 SA
ENDROOT
BRANCH   1   3
HETATM    3  C6  UNL     1      23.809  39.250  16.674  1.00  0.00     0.081 C
BRANCH   3   4
HETATM    4  C4  UNL     1      24.534  40.481  17.162  1.00  0.00    -0.012 C
HETATM    5  C5  UNL     1      24.189  41.626  16.233  1.00  0.00     0.010 C
BRANCH   4   6
HETATM    6  C3  UNL     1      26.015  40.237  17.067  1.00  0.00     0.004 C
BRANCH   6   7
HETATM    7  C2  UNL     1      26.806  41.507  17.207  1.00  0.00    -0.004 C
HETATM    8  C1  UNL     1      27.025  41.753  18.693  1.00  0.00     0.005 C
ENDBRANCH   6   7
ENDBRANCH   4   6
ENDBRANCH   3   4
ENDBRANCH   1   3
BRANCH   1   9
HETATM    9  O1  UNL     1      22.270  39.256  18.572  1.00  0.00    -0.299 OA
BRANCH   9  10
HETATM   10  C8  UNL     1      21.064  39.884  18.290  1.00  0.00     0.242 C
HETATM   11  C9  UNL     1      19.873  38.972  18.537  1.00  0.00     0.088 C
HETATM   12  F1  UNL     1      20.983  40.378  17.004  1.00  0.00    -0.208 F
BRANCH  10  13
HETATM   13  C10 UNL     1      20.954  41.059  19.270  1.00  0.00     0.157 C
HETATM   14  C11 UNL     1      22.238  41.344  19.965  1.00  0.00     0.057 C
HETATM   15  C12 UNL     1      20.421  42.239  18.495  1.00  0.00     0.057 C
HETATM   16  F2  UNL     1      20.003  40.720  20.222  1.00  0.00    -0.238 F
ENDBRANCH  10  13
ENDBRANCH   9  10
ENDBRANCH   1   9
TORSDOF 7
ENDMDL