MODEL 2
REMARK VINA RESULT: -5.866841347      4.554      7.346
REMARK  5 active torsions:
REMARK  status: ('A' for Active; 'I' for Inactive)
REMARK    1  A    between atoms: C2_2  and  O1_4
REMARK    2  A    between atoms: O1_4  and  C4_5
REMARK    3  A    between atoms: C4_5  and  C5_6
REMARK    4  A    between atoms: C4_5  and  S1_14
REMARK    5  A    between atoms: C5_6  and  C6_7
ROOT
HETATM    1  C5  UNL     1      23.481  36.403  17.472  1.00  0.00     0.050 C
ENDROOT
BRANCH   1   2
HETATM    2  C4  UNL     1      23.340  37.815  17.946  1.00  0.00     0.217 C
BRANCH   2   3
HETATM    3  O1  UNL     1      21.958  37.989  18.147  1.00  0.00    -0.369 OA
BRANCH   3   4
HETATM    4  C2  UNL     1      21.583  39.317  18.009  1.00  0.00     0.115 C
HETATM    5  C1  UNL     1      20.095  39.304  17.727  1.00  0.00     0.039 C
HETATM    6  C3  UNL     1      21.788  40.116  19.266  1.00  0.00     0.039 C
ENDBRANCH   3   4
ENDBRANCH   2   3
BRANCH   2   7
HETATM    7  S1  UNL     1      23.944  38.943  16.667  1.00  0.00     0.073 SA
HETATM    8  F1  UNL     1      25.530  39.422  17.069  1.00  0.00    -0.162 F
ENDBRANCH   2   7
ENDBRANCH   1   2
BRANCH   1   9
HETATM    9  C6  UNL     1      24.002  35.412  18.478  1.00  0.00    -0.011 C
HETATM   10  C7  UNL     1      22.991  35.020  19.499  1.00  0.00     0.005 C
HETATM   11  C8  UNL     1      22.194  33.800  19.159  1.00  0.00     0.004 C
HETATM   12  C9  UNL     1      23.036  32.610  18.794  1.00  0.00    -0.019 C
HETATM   13  C10 UNL     1      23.002  31.627  19.942  1.00  0.00     0.010 C
HETATM   14  C11 UNL     1      24.483  33.021  18.521  1.00  0.00     0.004 C
HETATM   15  C12 UNL     1      24.414  34.204  17.609  1.00  0.00     0.005 C
ENDBRANCH   1   9
TORSDOF 5
ENDMDL