MODEL 4
REMARK VINA RESULT: -4.486479652      1.922      3.152
REMARK  4 active torsions:
REMARK  status: ('A' for Active; 'I' for Inactive)
REMARK    1  A    between atoms: C2_2  and  C3_3
REMARK    2  A    between atoms: C3_3  and  C4_4
REMARK    3  A    between atoms: C9_9  and  C11_11
REMARK    4  A    between atoms: C11_11  and  O1_13
ROOT
HETATM    1  C4  UNL     1      23.125  40.285  17.663  1.00  0.00    -0.003 C
HETATM    2  C5  UNL     1      21.806  40.303  18.399  1.00  0.00     0.005 C
HETATM    3  C6  UNL     1      22.167  40.837  19.805  1.00  0.00     0.000 C
HETATM    4  C7  UNL     1      22.504  42.294  19.573  1.00  0.00     0.001 C
HETATM    5  C8  UNL     1      23.569  42.499  18.563  1.00  0.00     0.013 C
HETATM    6  C9  UNL     1      23.447  41.696  17.293  1.00  0.00     0.001 C
HETATM    7  C10 UNL     1      22.347  42.320  16.449  1.00  0.00     0.019 C
ENDROOT
BRANCH   6   8
HETATM    8  C11 UNL     1      24.735  41.884  16.529  1.00  0.00     0.120 C
HETATM    9  C12 UNL     1      25.010  43.393  16.466  1.00  0.00     0.059 C
HETATM   10  S1  UNL     1      26.157  41.091  17.271  1.00  0.00    -0.056 SA
BRANCH   8  11
HETATM   11  O1  UNL     1      24.520  41.522  15.193  1.00  0.00    -0.378 OA
ATOM     12  H1  UNL     1      25.213  41.898  14.662  1.00  0.00     0.211 HD
ENDBRANCH   8  11
ENDBRANCH   6   8
BRANCH   1  13
HETATM   13  C3  UNL     1      23.121  39.265  16.607  1.00  0.00     0.005 C
BRANCH  13  14
HETATM   14  C2  UNL     1      24.036  38.120  16.983  1.00  0.00    -0.004 C
HETATM   15  C1  UNL     1      23.301  37.107  17.858  1.00  0.00     0.005 C
ENDBRANCH  13  14
ENDBRANCH   1  13
TORSDOF 4
ENDMDL