MODEL 1
REMARK VINA RESULT: -6.390001448      0.000      0.000
REMARK  7 active torsions:
REMARK  status: ('A' for Active; 'I' for Inactive)
REMARK    1  A    between atoms: C4_4  and  C5_5
REMARK    2  A    between atoms: C5_5  and  C6_6
REMARK    3  A    between atoms: C6_6  and  C7_7
REMARK    4  A    between atoms: C7_7  and  C8_8
REMARK    5  A    between atoms: C8_8  and  C9_9
REMARK    6  A    between atoms: C9_9  and  O1_10
REMARK    7  A    between atoms: C9_9  and  S1_12
ROOT
HETATM    1  C5  UNL     1      22.500  34.328  18.515  1.00  0.00     0.005 C
ENDROOT
BRANCH   1   2
HETATM    2  C4  UNL     1      23.128  33.247  19.372  1.00  0.00    -0.014 C
HETATM    3  C3  UNL     1      22.120  32.199  19.800  1.00  0.00     0.009 C
HETATM    4  C2  UNL     1      23.050  30.988  19.956  1.00  0.00    -0.015 C
HETATM    5  C1  UNL     1      22.273  29.709  20.106  1.00  0.00     0.010 C
HETATM    6  C11 UNL     1      23.792  31.051  18.638  1.00  0.00    -0.015 C
HETATM    7  C10 UNL     1      24.193  32.512  18.596  1.00  0.00     0.009 C
HETATM    8  C12 UNL     1      24.998  30.141  18.624  1.00  0.00     0.010 C
ENDBRANCH   1   2
BRANCH   1   9
HETATM    9  C6  UNL     1      23.544  35.174  17.849  1.00  0.00     0.000 C
BRANCH   9  10
HETATM   10  C7  UNL     1      23.497  36.621  18.221  1.00  0.00     0.004 C
BRANCH  10  11
HETATM   11  C8  UNL     1      23.820  37.506  17.064  1.00  0.00     0.045 C
BRANCH  11  12
HETATM   12  C9  UNL     1      22.940  38.742  17.040  1.00  0.00     0.212 C
BRANCH  12  13
HETATM   13  O1  UNL     1      22.112  38.833  18.144  1.00  0.00    -0.383 OA
ATOM     14  H1  UNL     1      21.212  39.030  17.914  1.00  0.00     0.211 HD
ENDBRANCH  12  13
BRANCH  12  15
HETATM   15  S1  UNL     1      24.023  40.197  17.030  1.00  0.00     0.073 SA
HETATM   16  F1  UNL     1      25.659  39.692  17.074  1.00  0.00    -0.162 F
ENDBRANCH  12  15
ENDBRANCH  11  12
ENDBRANCH  10  11
ENDBRANCH   9  10
ENDBRANCH   1   9
TORSDOF 7
ENDMDL