MODEL 2
REMARK VINA RESULT: -5.538284276      4.502      6.277
REMARK  7 active torsions:
REMARK  status: ('A' for Active; 'I' for Inactive)
REMARK    1  A    between atoms: C2_2  and  C3_3
REMARK    2  A    between atoms: C3_3  and  C4_4
REMARK    3  A    between atoms: C4_4  and  C5_5
REMARK    4  A    between atoms: C5_5  and  C6_6
REMARK    5  A    between atoms: C6_6  and  C7_7
REMARK    6  A    between atoms: C12_12  and  S1_14
REMARK    7  A    between atoms: S1_14  and  O1_15
ROOT
HETATM    1  C7  UNL     1      23.170  38.461  17.120  1.00  0.00     0.039 C
HETATM    2  C8  UNL     1      24.499  39.185  17.031  1.00  0.00     0.009 C
HETATM    3  C9  UNL     1      24.169  40.591  16.592  1.00  0.00     0.009 C
HETATM    4  C10 UNL     1      22.670  40.665  16.451  1.00  0.00     0.035 C
HETATM    5  C11 UNL     1      22.119  42.013  16.856  1.00  0.00     0.014 C
HETATM    6  C12 UNL     1      22.187  39.548  17.346  1.00  0.00     0.186 C
HETATM    7  F1  UNL     1      20.894  39.193  16.971  1.00  0.00    -0.228 F
ENDROOT
BRANCH   1   8
HETATM    8  C6  UNL     1      23.188  37.352  18.105  1.00  0.00     0.009 C
BRANCH   8   9
HETATM    9  C5  UNL     1      23.643  36.045  17.511  1.00  0.00     0.001 C
BRANCH   9  10
HETATM   10  C4  UNL     1      23.862  35.081  18.679  1.00  0.00     0.000 C
BRANCH  10  11
HETATM   11  C3  UNL     1      24.324  33.741  18.207  1.00  0.00    -0.000 C
BRANCH  11  12
HETATM   12  C2  UNL     1      23.505  32.679  18.897  1.00  0.00    -0.005 C
HETATM   13  C1  UNL     1      24.207  31.359  18.897  1.00  0.00     0.005 C
ENDBRANCH  11  12
ENDBRANCH  10  11
ENDBRANCH   9  10
ENDBRANCH   8   9
ENDBRANCH   1   8
BRANCH   6  14
HETATM   14  S1  UNL     1      22.099  40.120  19.040  1.00  0.00     0.078 SA
BRANCH  14  15
HETATM   15  O1  UNL     1      20.550  40.555  19.569  1.00  0.00    -0.117 OA
HETATM   16  F2  UNL     1      19.809  39.477  19.666  1.00  0.00    -0.034 F
ENDBRANCH  14  15
ENDBRANCH   6  14
TORSDOF 7
ENDMDL