MODEL 1
REMARK VINA RESULT: -6.406957930      0.000      0.000
REMARK  7 active torsions:
REMARK  status: ('A' for Active; 'I' for Inactive)
REMARK    1  A    between atoms: C2_2  and  C3_3
REMARK    2  A    between atoms: C3_3  and  C4_4
REMARK    3  A    between atoms: C4_4  and  C5_5
REMARK    4  A    between atoms: C5_5  and  C6_6
REMARK    5  A    between atoms: C6_6  and  C7_7
REMARK    6  A    between atoms: C7_7  and  C8_8
REMARK    7  A    between atoms: C8_8  and  C10_10
ROOT
HETATM    1  C8  UNL     1      23.938  36.030  18.114  1.00  0.00     0.042 C
HETATM    2  C9  UNL     1      24.232  36.147  19.613  1.00  0.00     0.017 C
ENDROOT
BRANCH   1   3
HETATM    3  C7  UNL     1      23.044  34.875  17.823  1.00  0.00     0.011 C
BRANCH   3   4
HETATM    4  C6  UNL     1      22.426  34.277  19.055  1.00  0.00     0.001 C
BRANCH   4   5
HETATM    5  C5  UNL     1      22.621  32.799  19.185  1.00  0.00     0.000 C
BRANCH   5   6
HETATM    6  C4  UNL     1      24.017  32.365  18.802  1.00  0.00     0.000 C
BRANCH   6   7
HETATM    7  C3  UNL     1      24.182  30.859  18.818  1.00  0.00    -0.000 C
BRANCH   7   8
HETATM    8  C2  UNL     1      22.946  30.316  19.547  1.00  0.00    -0.005 C
HETATM    9  C1  UNL     1      22.908  28.821  19.549  1.00  0.00     0.005 C
ENDBRANCH   7   8
ENDBRANCH   6   7
ENDBRANCH   5   6
ENDBRANCH   4   5
ENDBRANCH   3   4
ENDBRANCH   1   3
BRANCH   1  10
HETATM   10  C10 UNL     1      23.326  37.324  17.718  1.00  0.00     0.103 C
HETATM   11  C11 UNL     1      23.894  38.294  17.064  1.00  0.00     0.190 C
HETATM   12  F1  UNL     1      25.118  38.386  16.596  1.00  0.00    -0.196 F
HETATM   13  S1  UNL     1      22.688  39.596  16.875  1.00  0.00     0.012 SA
HETATM   14  C12 UNL     1      21.589  38.858  18.157  1.00  0.00     0.421 C
HETATM   15  F2  UNL     1      20.270  38.994  17.795  1.00  0.00    -0.164 F
HETATM   16  F3  UNL     1      21.891  39.495  19.333  1.00  0.00    -0.164 F
HETATM   17  O1  UNL     1      22.020  37.555  18.061  1.00  0.00    -0.275 OA
ENDBRANCH   1  10
TORSDOF 7
ENDMDL