MODEL 5
REMARK VINA RESULT: -5.587063400      2.121      2.695
REMARK  3 active torsions:
REMARK  status: ('A' for Active; 'I' for Inactive)
REMARK    1  A    between atoms: C2_2  and  N1_3
REMARK    2  A    between atoms: N1_3  and  C4_5
REMARK    3  A    between atoms: C7_8  and  N2_9
ROOT
HETATM    1  C4  UNL     1      -4.256  -6.047  17.001  1.00  0.00     0.085 C
HETATM    2  C5  UNL     1      -4.157  -4.882  16.082  1.00  0.00     0.027 C
HETATM    3  C6  UNL     1      -3.419  -3.780  16.857  1.00  0.00     0.029 C
HETATM    4  C7  UNL     1      -2.513  -4.582  17.764  1.00  0.00     0.100 C
HETATM    5  C8  UNL     1      -3.433  -5.695  18.218  1.00  0.00     0.051 C
ENDROOT
BRANCH   4   6
HETATM    6  N2  UNL     1      -1.411  -5.124  17.027  1.00  0.00    -0.338 N
HETATM    7  N3  UNL     1      -0.245  -4.718  17.217  1.00  0.00    -0.349 N
ATOM      8  H32 UNL     1      -0.092  -3.988  17.912  1.00  0.00     0.176 HD
ATOM      9  H31 UNL     1       0.539  -5.104  16.692  1.00  0.00     0.176 HD
ATOM     10  H2  UNL     1      -1.581  -5.853  16.336  1.00  0.00     0.180 HD
ENDBRANCH   4   6
BRANCH   1  11
HETATM   11  N1  UNL     1      -5.578  -6.371  17.433  1.00  0.00    -0.390 N
HETATM   12  C3  UNL     1      -6.623  -5.418  17.710  1.00  0.00     0.149 C
BRANCH  11  13
HETATM   13  C2  UNL     1      -5.874  -7.745  17.597  1.00  0.00     0.075 C
HETATM   14  C1  UNL     1      -7.092  -8.172  17.336  1.00  0.00     0.029 C
ENDBRANCH  11  13
ENDBRANCH   1  11
TORSDOF 3
ENDMDL