MODEL 4
REMARK VINA RESULT: -5.672390406      0.888      4.966
REMARK  3 active torsions:
REMARK  status: ('A' for Active; 'I' for Inactive)
REMARK    1  A    between atoms: C2_2  and  C3_3
REMARK    2  A    between atoms: C3_3  and  C4_4
REMARK    3  A    between atoms: C4_4  and  N1_5
REMARK       I    between atoms: N1_5  and  C5_7
REMARK       I    between atoms: C5_7  and  N2_9
ROOT
HETATM    1  N1  UNL     1      -5.555  -6.517  17.270  1.00  0.00    -0.343 N
ATOM      2  H1  UNL     1      -6.236  -5.857  16.897  1.00  0.00     0.164 HD
HETATM    3  C5  UNL     1      -4.205  -6.091  17.276  1.00  0.00     0.318 C
HETATM    4  O1  UNL     1      -3.351  -6.890  17.735  1.00  0.00    -0.247 OA
HETATM    5  N2  UNL     1      -3.820  -4.811  16.785  1.00  0.00    -0.334 N
HETATM    6  C6  UNL     1      -4.510  -3.677  16.207  1.00  0.00     0.129 C
HETATM    7  C7  UNL     1      -3.285  -2.808  16.346  1.00  0.00     0.040 C
HETATM    8  C8  UNL     1      -2.566  -4.099  16.656  1.00  0.00     0.129 C
ENDROOT
BRANCH   1   9
HETATM    9  C4  UNL     1      -6.065  -7.763  17.724  1.00  0.00     0.128 C
BRANCH   9  10
HETATM   10  C3  UNL     1      -7.534  -7.895  17.406  1.00  0.00     0.046 C
BRANCH  10  11
HETATM   11  C2  UNL     1      -8.258  -6.607  17.699  1.00  0.00    -0.035 C
HETATM   12  C1  UNL     1      -9.525  -6.647  18.085  1.00  0.00     0.007 C
ENDBRANCH  10  11
ENDBRANCH   9  10
ENDBRANCH   1   9
TORSDOF 3
ENDMDL