MODEL 1
REMARK VINA RESULT: -5.232681553      0.000      0.000
REMARK  3 active torsions:
REMARK  status: ('A' for Active; 'I' for Inactive)
REMARK    1  A    between atoms: C1_4  and  C2_5
REMARK    2  A    between atoms: C2_5  and  C3_6
REMARK    3  A    between atoms: C3_6  and  N2_7
ROOT
HETATM    1  N2  UNL     1      -3.807  -4.999  17.116  1.00  0.00    -0.066 N
HETATM    2  C4  UNL     1      -5.150  -5.079  16.579  1.00  0.00     0.238 C
HETATM    3  C5  UNL     1      -5.879  -6.141  17.411  1.00  0.00     0.034 C
HETATM    4  C6  UNL     1      -4.704  -6.722  18.167  1.00  0.00     0.015 C
HETATM    5  C7  UNL     1      -3.753  -7.287  17.149  1.00  0.00     0.034 C
HETATM    6  C8  UNL     1      -2.984  -6.071  16.652  1.00  0.00     0.238 C
HETATM    7  C9  UNL     1      -3.994  -5.402  18.511  1.00  0.00     0.242 C
ENDROOT
BRANCH   1   8
HETATM    8  C3  UNL     1      -3.294  -3.698  16.951  1.00  0.00     0.242 C
BRANCH   8   9
HETATM    9  C2  UNL     1      -4.012  -2.864  15.916  1.00  0.00     0.072 C
BRANCH   9  10
HETATM   10  C1  UNL     1      -3.618  -1.458  16.162  1.00  0.00     0.054 C
HETATM   11  N1  UNL     1      -2.774  -0.890  15.405  1.00  0.00    -0.411 N
ATOM     12  H12 UNL     1      -2.375  -1.417  14.629  1.00  0.00     0.155 HD
ATOM     13  H11 UNL     1      -2.502   0.078  15.574  1.00  0.00     0.155 HD
ENDBRANCH   9  10
ENDBRANCH   8   9
ENDBRANCH   1   8
TORSDOF 3
ENDMDL