MODEL 2
REMARK VINA RESULT: -6.092372692      1.206      1.351
REMARK  3 active torsions:
REMARK  status: ('A' for Active; 'I' for Inactive)
REMARK    1  A    between atoms: C2_2  and  C3_3
REMARK    2  A    between atoms: C3_3  and  N1_4
REMARK       I    between atoms: N1_4  and  C4_6
REMARK       I    between atoms: C4_6  and  N2_8
REMARK    3  A    between atoms: C5_10  and  C6_11
ROOT
HETATM    1  N1  UNL     1      -3.644  -5.168  17.414  1.00  0.00    -0.339 N
ATOM      2  H1  UNL     1      -4.357  -4.447  17.304  1.00  0.00     0.164 HD
HETATM    3  C4  UNL     1      -4.045  -6.476  17.820  1.00  0.00     0.320 C
HETATM    4  O1  UNL     1      -3.177  -7.394  17.963  1.00  0.00    -0.247 OA
HETATM    5  N2  UNL     1      -5.381  -6.810  18.074  1.00  0.00    -0.322 N
ATOM      6  H2  UNL     1      -5.656  -6.951  19.046  1.00  0.00     0.169 HD
HETATM    7  C5  UNL     1      -6.287  -6.951  17.169  1.00  0.00     0.070 C
ENDROOT
BRANCH   1   8
HETATM    8  C3  UNL     1      -2.280  -4.834  17.156  1.00  0.00     0.150 C
BRANCH   8   9
HETATM    9  C2  UNL     1      -2.049  -4.322  15.788  1.00  0.00    -0.018 C
HETATM   10  C1  UNL     1      -3.085  -3.953  15.044  1.00  0.00     0.008 C
ENDBRANCH   8   9
ENDBRANCH   1   8
BRANCH   7  11
HETATM   11  C6  UNL     1      -7.681  -7.301  17.447  1.00  0.00     0.024 A
HETATM   12  C7  UNL     1      -8.066  -8.747  17.056  1.00  0.00     0.010 A
HETATM   13  C8  UNL     1      -8.656  -7.570  16.373  1.00  0.00     0.010 A
ENDBRANCH   7  11
TORSDOF 3
ENDMDL