MODEL 2
REMARK VINA RESULT: -6.781866143      2.806      4.809
REMARK  3 active torsions:
REMARK  status: ('A' for Active; 'I' for Inactive)
REMARK    1  A    between atoms: C5_5  and  C6_6
REMARK    2  A    between atoms: C6_6  and  N1_9
REMARK    3  A    between atoms: N1_9  and  C9_11
ROOT
HETATM    1  C1  UNL     1      -3.373  -0.822  16.046  1.00  0.00     0.012 C
HETATM    2  C2  UNL     1      -3.848  -1.933  16.067  1.00  0.00    -0.112 C
HETATM    3  C3  UNL     1      -4.439  -3.286  16.106  1.00  0.00     0.074 A
HETATM    4  C4  UNL     1      -3.646  -4.326  15.394  1.00  0.00     0.030 A
HETATM    5  C5  UNL     1      -3.728  -4.345  16.892  1.00  0.00     0.052 A
ENDROOT
BRANCH   5   6
HETATM    6  C6  UNL     1      -4.437  -5.538  17.427  1.00  0.00     0.013 C
HETATM    7  C7  UNL     1      -3.791  -6.228  18.334  1.00  0.00    -0.006 C
HETATM    8  C8  UNL     1      -2.425  -5.774  18.750  1.00  0.00     0.038 C
BRANCH   6   9
HETATM    9  N1  UNL     1      -5.725  -5.841  16.928  1.00  0.00    -0.338 N
ATOM     10  H1  UNL     1      -5.911  -5.527  15.976  1.00  0.00     0.168 HD
BRANCH   9  11
HETATM   11  C9  UNL     1      -6.776  -6.509  17.553  1.00  0.00     0.353 C
HETATM   12  O1  UNL     1      -6.832  -7.734  17.705  1.00  0.00    -0.283 OA
ENDBRANCH   9  11
ENDBRANCH   6   9
ENDBRANCH   5   6
TORSDOF 3
ENDMDL