MODEL 5
REMARK VINA RESULT: -5.077369532      1.364      2.385
REMARK  2 active torsions:
REMARK  status: ('A' for Active; 'I' for Inactive)
REMARK    1  A    between atoms: C2_2  and  C3_3
REMARK    2  A    between atoms: C3_3  and  C4_4
ROOT
HETATM    1  C4  UNL     1      -3.827  -5.705  18.041  1.00  0.00     0.197 C
HETATM    2  C5  UNL     1      -2.505  -5.683  18.785  1.00  0.00     0.062 C
HETATM    3  C6  UNL     1      -2.340  -4.367  18.086  1.00  0.00     0.242 C
HETATM    4  N1  UNL     1      -3.230  -4.885  17.062  1.00  0.00    -0.037 N
HETATM    5  C7  UNL     1      -3.990  -3.780  16.515  1.00  0.00     0.267 C
HETATM    6  C8  UNL     1      -2.978  -3.225  15.537  1.00  0.00     0.262 C
HETATM    7  N2  UNL     1      -2.259  -4.379  15.043  1.00  0.00    -0.049 N
ATOM      8  H21 UNL     1      -1.258  -4.212  14.940  1.00  0.00     0.279 HD
ATOM      9  H22 UNL     1      -2.459  -4.585  14.064  1.00  0.00     0.279 HD
HETATM   10  C9  UNL     1      -2.564  -5.496  15.939  1.00  0.00     0.468 C
ENDROOT
BRANCH   1  11
HETATM   11  C3  UNL     1      -4.216  -7.078  17.560  1.00  0.00     0.060 C
BRANCH  11  12
HETATM   12  C2  UNL     1      -5.675  -7.302  17.639  1.00  0.00    -0.035 C
HETATM   13  C1  UNL     1      -6.501  -6.285  17.744  1.00  0.00     0.007 C
ENDBRANCH  11  12
ENDBRANCH   1  11
TORSDOF 2
ENDMDL