MODEL 4
REMARK VINA RESULT: -5.128413599      2.014      5.439
REMARK  3 active torsions:
REMARK  status: ('A' for Active; 'I' for Inactive)
REMARK    1  A    between atoms: C2_2  and  C3_3
REMARK    2  A    between atoms: C3_3  and  N1_4
REMARK       I    between atoms: N1_4  and  C4_6
REMARK       I    between atoms: C4_6  and  N2_8
REMARK    3  A    between atoms: C5_10  and  N3_11
ROOT
HETATM    1  N1  UNL     1      -5.319  -6.178  17.122  1.00  0.00    -0.339 N
ATOM      2  H1  UNL     1      -6.123  -5.596  16.885  1.00  0.00     0.164 HD
HETATM    3  C4  UNL     1      -4.004  -5.745  16.818  1.00  0.00     0.321 C
HETATM    4  O1  UNL     1      -2.962  -6.371  17.062  1.00  0.00    -0.247 OA
HETATM    5  N2  UNL     1      -3.860  -4.473  16.172  1.00  0.00    -0.305 N
ATOM      6  H2  UNL     1      -4.008  -4.412  15.165  1.00  0.00     0.171 HD
HETATM    7  C5  UNL     1      -3.553  -3.414  16.815  1.00  0.00     0.182 C
ENDROOT
BRANCH   1   8
HETATM    8  C3  UNL     1      -5.507  -7.449  17.768  1.00  0.00     0.150 C
BRANCH   8   9
HETATM    9  C2  UNL     1      -6.892  -7.938  17.562  1.00  0.00    -0.018 C
HETATM   10  C1  UNL     1      -7.902  -7.107  17.422  1.00  0.00     0.008 C
ENDBRANCH   8   9
ENDBRANCH   1   8
BRANCH   7  11
HETATM   11  N3  UNL     1      -3.419  -2.181  16.157  1.00  0.00    -0.374 N
HETATM   12  C6  UNL     1      -3.730  -0.697  16.158  1.00  0.00     0.143 A
HETATM   13  C7  UNL     1      -2.966  -1.280  15.076  1.00  0.00     0.143 A
ENDBRANCH   7  11
TORSDOF 3
ENDMDL