MODEL 4
REMARK VINA RESULT: -6.392166566      1.325      1.595
REMARK  3 active torsions:
REMARK  status: ('A' for Active; 'I' for Inactive)
REMARK    1  A    between atoms: C5_6  and  C6_7
REMARK    2  A    between atoms: C6_7  and  C7_8
REMARK    3  A    between atoms: C7_8  and  C8_9
ROOT
HETATM    1  C1  UNL     1      -7.499  -8.174  17.367  1.00  0.00     0.221 C
HETATM    2  N1  UNL     1      -6.755  -7.329  17.568  1.00  0.00    -0.466 NA
HETATM    3  C2  UNL     1      -5.836  -6.297  17.794  1.00  0.00     0.161 C
HETATM    4  C3  UNL     1      -4.471  -6.906  17.979  1.00  0.00     0.040 C
HETATM    5  C4  UNL     1      -3.549  -5.792  17.619  1.00  0.00     0.008 C
HETATM    6  C5  UNL     1      -4.217  -5.100  16.420  1.00  0.00    -0.011 C
HETATM    7  C9  UNL     1      -5.664  -5.436  16.572  1.00  0.00     0.044 C
ENDROOT
BRANCH   6   8
HETATM    8  C6  UNL     1      -3.852  -3.671  16.540  1.00  0.00     0.011 C
BRANCH   8   9
HETATM    9  C7  UNL     1      -2.889  -3.138  15.517  1.00  0.00     0.070 C
BRANCH   9  10
HETATM   10  C8  UNL     1      -1.819  -4.070  15.157  1.00  0.00     0.231 C
HETATM   11  O1  UNL     1      -0.713  -3.638  14.851  1.00  0.00    -0.307 OA
ENDBRANCH   9  10
ENDBRANCH   8   9
ENDBRANCH   6   8
TORSDOF 3
ENDMDL