MODEL 4
REMARK VINA RESULT: -5.301513679      4.174      5.570
REMARK  4 active torsions:
REMARK  status: ('A' for Active; 'I' for Inactive)
REMARK    1  A    between atoms: N2_4  and  C1_6
REMARK    2  A    between atoms: C1_6  and  C2_7
REMARK    3  A    between atoms: C2_7  and  C3_8
REMARK    4  A    between atoms: C3_8  and  S1_9
ROOT
HETATM    1  C2  UNL     1      -6.279  -6.966  17.711  1.00  0.00     0.115 C
ENDROOT
BRANCH   1   2
HETATM    2  C1  UNL     1      -7.007  -7.982  17.390  1.00  0.00    -0.054 C
BRANCH   2   3
HETATM    3  N2  UNL     1      -7.887  -8.864  17.286  1.00  0.00    -0.276 N
HETATM    4  N1  UNL     1      -8.819  -9.616  17.603  1.00  0.00    -0.338 N
ATOM      5  H12 UNL     1      -8.917  -9.298  18.567  1.00  0.00     0.177 HD
ATOM      6  H11 UNL     1      -9.537 -10.335  17.517  1.00  0.00     0.177 HD
ATOM      7  H2  UNL     1      -7.748  -9.146  16.315  1.00  0.00     0.196 HD
ENDBRANCH   2   3
ENDBRANCH   1   2
BRANCH   1   8
HETATM    8  C3  UNL     1      -4.812  -7.046  17.725  1.00  0.00     0.076 C
BRANCH   8   9
HETATM    9  S1  UNL     1      -4.028  -5.475  17.556  1.00  0.00    -0.219 SA
HETATM   10  C4  UNL     1      -2.533  -5.575  16.604  1.00  0.00     0.063 C
HETATM   11  C5  UNL     1      -2.543  -4.343  15.803  1.00  0.00     0.010 C
HETATM   12  C6  UNL     1      -3.800  -3.622  15.842  1.00  0.00     0.010 C
HETATM   13  C7  UNL     1      -4.913  -4.425  16.393  1.00  0.00     0.063 C
ENDBRANCH   8   9
ENDBRANCH   1   8
TORSDOF 4
ENDMDL