MODEL 1
REMARK VINA RESULT: -6.360278970      0.000      0.000
REMARK  2 active torsions:
REMARK  status: ('A' for Active; 'I' for Inactive)
REMARK    1  A    between atoms: C2_2  and  C3_3
REMARK    2  A    between atoms: C3_3  and  N1_4
REMARK       I    between atoms: N1_4  and  C4_6
REMARK       I    between atoms: C4_6  and  N2_8
ROOT
HETATM    1  N1  UNL     1      -4.527  -4.110  16.561  1.00  0.00    -0.340 N
ATOM      2  H1  UNL     1      -5.439  -3.668  16.666  1.00  0.00     0.164 HD
HETATM    3  C4  UNL     1      -4.385  -5.474  16.919  1.00  0.00     0.318 C
HETATM    4  O1  UNL     1      -3.285  -6.026  16.796  1.00  0.00    -0.247 OA
HETATM    5  N2  UNL     1      -5.496  -6.180  17.407  1.00  0.00    -0.334 N
HETATM    6  C5  UNL     1      -6.864  -5.706  17.619  1.00  0.00     0.127 C
HETATM    7  C6  UNL     1      -7.721  -6.916  17.466  1.00  0.00     0.022 C
HETATM    8  C7  UNL     1      -6.805  -8.124  17.414  1.00  0.00     0.022 C
HETATM    9  C8  UNL     1      -5.434  -7.591  17.798  1.00  0.00     0.127 C
ENDROOT
BRANCH   1  10
HETATM   10  C3  UNL     1      -3.428  -3.321  16.052  1.00  0.00     0.150 C
BRANCH  10  11
HETATM   11  C2  UNL     1      -3.821  -1.891  16.142  1.00  0.00    -0.018 C
HETATM   12  C1  UNL     1      -3.185  -0.977  15.457  1.00  0.00     0.008 C
ENDBRANCH  10  11
ENDBRANCH   1  10
TORSDOF 2
ENDMDL