MODEL 3
REMARK VINA RESULT: -4.674468496      2.582      4.032
REMARK  4 active torsions:
REMARK  status: ('A' for Active; 'I' for Inactive)
REMARK    1  A    between atoms: C2_2  and  C3_3
REMARK    2  A    between atoms: C3_3  and  C4_4
REMARK    3  A    between atoms: C4_4  and  N1_5
REMARK    4  A    between atoms: N1_5  and  C5_7
ROOT
HETATM    1  C5  UNL     1       7.605 -14.960 115.386  1.00  0.00     0.385 C
HETATM    2  N2  UNL     1       8.559 -15.505 114.511  1.00  0.00    -0.353 N
ATOM      3  H2  UNL     1       9.547 -15.536 114.767  1.00  0.00     0.163 HD
HETATM    4  C6  UNL     1       8.156 -15.965 113.377  1.00  0.00     0.001 C
HETATM    5  C7  UNL     1       9.139 -16.559 112.409  1.00  0.00     0.064 C
HETATM    6  C8  UNL     1       6.741 -15.959 112.927  1.00  0.00     0.168 C
HETATM    7  C9  UNL     1       6.312 -17.342 112.743  1.00  0.00     0.072 C
HETATM    8  N3  UNL     1       5.950 -18.447 112.582  1.00  0.00    -0.196 NA
HETATM    9  C10 UNL     1       5.850 -15.195 113.875  1.00  0.00     0.209 C
HETATM   10  C11 UNL     1       5.090 -16.106 114.805  1.00  0.00     0.042 C
HETATM   11  N4  UNL     1       6.639 -14.199 114.585  1.00  0.00    -0.031 N
ATOM     12  H41 UNL     1       7.070 -13.506 113.974  1.00  0.00     0.282 HD
ATOM     13  H42 UNL     1       6.077 -13.545 115.131  1.00  0.00     0.282 HD
ENDROOT
BRANCH   1  14
HETATM   14  N1  UNL     1       8.067 -14.235 116.510  1.00  0.00    -0.380 N
ATOM     15  H1  UNL     1       8.209 -13.225 116.475  1.00  0.00     0.157 HD
BRANCH  14  16
HETATM   16  C4  UNL     1       8.325 -14.995 117.705  1.00  0.00     0.117 C
BRANCH  16  17
HETATM   17  C3  UNL     1       7.154 -15.941 117.868  1.00  0.00     0.019 C
BRANCH  17  18
HETATM   18  C2  UNL     1       7.528 -17.358 118.129  1.00  0.00    -0.003 C
HETATM   19  C1  UNL     1       7.272 -18.278 116.974  1.00  0.00     0.005 C
ENDBRANCH  17  18
ENDBRANCH  16  17
ENDBRANCH  14  16
ENDBRANCH   1  14
TORSDOF 4
ENDMDL