MODEL 4
REMARK VINA RESULT: -4.277090853      1.549      1.918
REMARK  3 active torsions:
REMARK  status: ('A' for Active; 'I' for Inactive)
REMARK    1  A    between atoms: C1_4  and  C2_6
REMARK    2  A    between atoms: C4_10  and  S1_11
REMARK    3  A    between atoms: S1_11  and  C5_12
ROOT
HETATM    1  C2  UNL     1       7.201 -16.389 114.977  1.00  0.00     0.063 A
HETATM    2  C3  UNL     1       6.856 -17.671 114.630  1.00  0.00     0.111 A
HETATM    3  N3  UNL     1       7.650 -18.625 114.997  1.00  0.00    -0.353 N
ATOM      4  H3  UNL     1       7.426 -19.590 114.754  1.00  0.00     0.166 HD
HETATM    5  C4  UNL     1       8.739 -18.364 115.676  1.00  0.00     0.113 A
HETATM    6  S2  UNL     1       8.665 -16.643 115.822  1.00  0.00    -0.061 SA
ENDROOT
BRANCH   1   7
HETATM    7  C1  UNL     1       6.492 -15.135 114.691  1.00  0.00     0.128 C
HETATM    8  N1  UNL     1       7.169 -14.049 114.681  1.00  0.00    -0.387 N
ATOM      9  H12 UNL     1       6.677 -13.178 114.482  1.00  0.00     0.157 HD
ATOM     10  H11 UNL     1       8.171 -14.087 114.870  1.00  0.00     0.157 HD
HETATM   11  N2  UNL     1       5.115 -15.084 114.432  1.00  0.00    -0.082 NA
ENDBRANCH   1   7
BRANCH   5  12
HETATM   12  S1  UNL     1      10.000 -19.498 116.305  1.00  0.00    -0.100 SA
BRANCH  12  13
HETATM   13  C5  UNL     1       9.855 -19.745 118.070  1.00  0.00     0.054 A
HETATM   14  C6  UNL     1       8.696 -19.248 118.842  1.00  0.00     0.017 A
HETATM   15  C7  UNL     1       8.820 -20.707 118.626  1.00  0.00     0.017 A
ENDBRANCH  12  13
ENDBRANCH   5  12
TORSDOF 3
ENDMDL