MODEL 3
REMARK VINA RESULT: -4.506522254      2.605      6.455
REMARK  4 active torsions:
REMARK  status: ('A' for Active; 'I' for Inactive)
REMARK    1  A    between atoms: C2_2  and  C9_17
REMARK    2  A    between atoms: C3_3  and  C4_4
REMARK    3  A    between atoms: N1_6  and  N2_8
REMARK    4  A    between atoms: N2_8  and  C6_10
ROOT
HETATM    1  C4  UNL     1       9.797 -19.324 116.443  1.00  0.00     0.022 C
HETATM    2  C5  UNL     1      11.047 -20.006 116.140  1.00  0.00     0.069 C
HETATM    3  N1  UNL     1       8.906 -19.248 115.517  1.00  0.00    -0.303 N
ATOM      4  H1  UNL     1       9.079 -19.656 114.598  1.00  0.00     0.186 HD
ENDROOT
BRANCH   3   5
HETATM    5  N2  UNL     1       7.704 -18.601 115.787  1.00  0.00    -0.271 N
ATOM      6  H2  UNL     1       7.342 -18.605 116.740  1.00  0.00     0.190 HD
BRANCH   5   7
HETATM    7  C6  UNL     1       6.957 -17.927 114.757  1.00  0.00     0.190 C
HETATM    8  N3  UNL     1       6.600 -18.462 113.636  1.00  0.00    -0.360 N
HETATM    9  C7  UNL     1       5.866 -17.534 112.818  1.00  0.00     0.142 C
ATOM     10  H3  UNL     1       6.812 -19.422 113.365  1.00  0.00     0.162 HD
HETATM   11  C8  UNL     1       5.426 -16.497 113.807  1.00  0.00     0.142 C
HETATM   12  N4  UNL     1       6.499 -16.583 114.805  1.00  0.00    -0.360 N
ATOM     13  H4  UNL     1       6.844 -15.834 115.407  1.00  0.00     0.162 HD
ENDBRANCH   5   7
ENDBRANCH   3   5
BRANCH   1  14
HETATM   14  C3  UNL     1       9.515 -18.736 117.726  1.00  0.00     0.029 C
HETATM   15  C2  UNL     1       9.130 -19.253 118.839  1.00  0.00    -0.079 C
HETATM   16  C1  UNL     1       8.875 -20.683 119.054  1.00  0.00     0.044 C
BRANCH  15  17
HETATM   17  C9  UNL     1       8.914 -18.379 120.037  1.00  0.00     0.006 C
HETATM   18  C10 UNL     1       8.818 -19.126 121.327  1.00  0.00     0.014 C
HETATM   19  C11 UNL     1       7.702 -17.508 119.825  1.00  0.00     0.014 C
ENDBRANCH  15  17
ENDBRANCH   1  14
TORSDOF 4
ENDMDL