MODEL 1
REMARK VINA RESULT: -4.588452406      0.000      0.000
REMARK  3 active torsions:
REMARK  status: ('A' for Active; 'I' for Inactive)
REMARK    1  A    between atoms: C2_2  and  C3_3
REMARK    2  A    between atoms: C3_3  and  O1_4
REMARK    3  A    between atoms: O1_4  and  C4_5
ROOT
HETATM    1  C4  UNL     1       7.602 -15.847 115.719  1.00  0.00     0.169 C
HETATM    2  C5  UNL     1       6.817 -16.300 116.948  1.00  0.00     0.036 C
HETATM    3  C6  UNL     1       6.574 -17.763 116.774  1.00  0.00     0.007 C
HETATM    4  C7  UNL     1       7.031 -18.126 115.379  1.00  0.00     0.055 C
HETATM    5  C8  UNL     1       7.137 -16.806 114.680  1.00  0.00     0.163 C
HETATM    6  O2  UNL     1       7.895 -16.826 113.520  1.00  0.00    -0.295 OA
HETATM    7  C9  UNL     1       7.232 -17.125 112.366  1.00  0.00     0.224 C
HETATM    8  N1  UNL     1       7.783 -17.780 111.390  1.00  0.00    -0.365 N
ATOM      9  H11 UNL     1       7.287 -18.004 110.527  1.00  0.00     0.159 HD
ATOM     10  H12 UNL     1       8.746 -18.113 111.419  1.00  0.00     0.159 HD
HETATM   11  N2  UNL     1       5.901 -16.666 112.327  1.00  0.00    -0.293 N
ATOM     12  H2  UNL     1       5.300 -16.567 111.507  1.00  0.00     0.177 HD
HETATM   13  S1  UNL     1       5.498 -16.301 114.002  1.00  0.00    -0.010 SA
ENDROOT
BRANCH   1  14
HETATM   14  O1  UNL     1       7.314 -14.520 115.406  1.00  0.00    -0.378 OA
BRANCH  14  15
HETATM   15  C3  UNL     1       8.412 -13.708 115.706  1.00  0.00     0.195 C
BRANCH  15  16
HETATM   16  C2  UNL     1       8.460 -12.603 114.718  1.00  0.00    -0.011 C
HETATM   17  C1  UNL     1       8.115 -11.394 115.076  1.00  0.00     0.009 C
ENDBRANCH  15  16
ENDBRANCH  14  15
ENDBRANCH   1  14
TORSDOF 3
ENDMDL