MODEL 4
REMARK VINA RESULT: -3.981910435      1.731      2.499
REMARK  4 active torsions:
REMARK  status: ('A' for Active; 'I' for Inactive)
REMARK    1  A    between atoms: C2_2  and  C3_3
REMARK    2  A    between atoms: C6_6  and  N1_7
REMARK    3  A    between atoms: C7_8  and  C8_9
REMARK    4  A    between atoms: C8_9  and  N2_10
ROOT
HETATM    1  N1  UNL     1       8.559 -16.919 114.569  1.00  0.00    -0.304 N
HETATM    2  C7  UNL     1       8.444 -18.006 115.380  1.00  0.00     0.126 A
HETATM    3  N3  UNL     1       9.510 -18.793 115.130  1.00  0.00    -0.285 N
ATOM      4  H3  UNL     1       9.702 -19.685 115.586  1.00  0.00     0.188 HD
HETATM    5  N4  UNL     1      10.265 -18.234 114.207  1.00  0.00    -0.275 N
ATOM      6  H4  UNL     1      11.134 -18.612 113.829  1.00  0.00     0.189 HD
HETATM    7  C9  UNL     1       9.678 -17.064 113.852  1.00  0.00     0.194 A
HETATM    8  S1  UNL     1      10.309 -16.066 112.713  1.00  0.00    -0.039 SA
ENDROOT
BRANCH   1   9
HETATM    9  C6  UNL     1       7.604 -15.882 114.564  1.00  0.00     0.101 C
HETATM   10  C3  UNL     1       6.972 -15.525 113.214  1.00  0.00     0.031 C
HETATM   11  C4  UNL     1       5.812 -14.991 114.072  1.00  0.00     0.012 C
HETATM   12  C5  UNL     1       6.212 -16.128 115.042  1.00  0.00     0.027 C
BRANCH  10  13
HETATM   13  C2  UNL     1       6.522 -16.646 112.391  1.00  0.00    -0.030 C
HETATM   14  C1  UNL     1       6.801 -16.772 111.085  1.00  0.00     0.007 C
ENDBRANCH  10  13
ENDBRANCH   1   9
BRANCH   2  15
HETATM   15  C8  UNL     1       7.394 -18.350 116.364  1.00  0.00     0.307 C
BRANCH  15  16
HETATM   16  N2  UNL     1       7.843 -19.299 117.320  1.00  0.00    -0.073 N
ATOM     17  H23 UNL     1       8.761 -19.667 117.071  1.00  0.00     0.274 HD
ATOM     18  H22 UNL     1       8.082 -18.848 118.204  1.00  0.00     0.274 HD
ATOM     19  H21 UNL     1       7.170 -20.052 117.462  1.00  0.00     0.274 HD
ENDBRANCH  15  16
ENDBRANCH   2  15
TORSDOF 4
ENDMDL