MODEL 5
REMARK VINA RESULT: -4.598070214      1.384      1.571
REMARK  4 active torsions:
REMARK  status: ('A' for Active; 'I' for Inactive)
REMARK    1  A    between atoms: N1_1  and  C1_4
REMARK    2  A    between atoms: C2_9  and  S1_10
REMARK    3  A    between atoms: S1_10  and  C3_11
REMARK    4  A    between atoms: C3_11  and  C4_12
ROOT
HETATM    1  C1  UNL     1       6.930 -16.656 111.118  1.00  0.00     0.239 A
HETATM    2  N2  UNL     1       7.547 -17.788 111.509  1.00  0.00    -0.263 N
ATOM      3  H2  UNL     1       7.746 -18.607 110.934  1.00  0.00     0.190 HD
HETATM    4  N3  UNL     1       7.845 -17.624 112.799  1.00  0.00    -0.271 N
ATOM      5  H3  UNL     1       8.319 -18.310 113.385  1.00  0.00     0.189 HD
HETATM    6  C2  UNL     1       7.421 -16.406 113.208  1.00  0.00     0.205 A
HETATM    7  O1  UNL     1       6.873 -15.859 112.154  1.00  0.00    -0.253 OA
ENDROOT
BRANCH   6   8
HETATM    8  S1  UNL     1       7.633 -15.809 114.859  1.00  0.00    -0.084 SA
BRANCH   8   9
HETATM    9  C3  UNL     1       6.302 -16.227 115.970  1.00  0.00     0.087 C
BRANCH   9  10
HETATM   10  C4  UNL     1       6.664 -17.132 117.090  1.00  0.00    -0.005 C
HETATM   11  C5  UNL     1       7.309 -18.404 116.732  1.00  0.00     0.005 C
HETATM   12  C6  UNL     1       8.511 -18.779 117.555  1.00  0.00     0.000 C
HETATM   13  C7  UNL     1       8.409 -18.489 119.012  1.00  0.00     0.000 C
HETATM   14  C8  UNL     1       7.477 -17.354 119.347  1.00  0.00     0.000 C
HETATM   15  C9  UNL     1       7.534 -16.415 118.134  1.00  0.00     0.005 C
ENDBRANCH   9  10
ENDBRANCH   8   9
ENDBRANCH   6   8
BRANCH   1  16
HETATM   16  N1  UNL     1       6.509 -16.489 109.912  1.00  0.00    -0.364 N
ATOM     17  H12 UNL     1       5.568 -16.559 109.525  1.00  0.00     0.159 HD
ATOM     18  H11 UNL     1       7.140 -16.246 109.148  1.00  0.00     0.159 HD
ENDBRANCH   1  16
TORSDOF 4
ENDMDL