MODEL 2
REMARK VINA RESULT: -4.295887875      4.783      5.873
REMARK  4 active torsions:
REMARK  status: ('A' for Active; 'I' for Inactive)
REMARK    1  A    between atoms: N1_1  and  C1_4
REMARK    2  A    between atoms: C2_9  and  C3_10
REMARK    3  A    between atoms: C3_10  and  C4_11
REMARK    4  A    between atoms: C4_11  and  C5_12
ROOT
HETATM    1  C1  UNL     1      10.381 -20.601 116.911  1.00  0.00     0.158 A
HETATM    2  N2  UNL     1       9.426 -21.047 117.731  1.00  0.00    -0.279 N
ATOM      3  H2  UNL     1       9.477 -21.985 118.128  1.00  0.00     0.189 HD
HETATM    4  N3  UNL     1       8.462 -20.286 118.006  1.00  0.00    -0.296 N
ATOM      5  H3  UNL     1       7.734 -20.626 118.633  1.00  0.00     0.187 HD
HETATM    6  C2  UNL     1       8.358 -19.071 117.516  1.00  0.00     0.069 A
HETATM    7  S2  UNL     1       9.828 -19.033 116.548  1.00  0.00    -0.038 SA
ENDROOT
BRANCH   6   8
HETATM    8  C3  UNL     1       7.390 -17.965 117.637  1.00  0.00     0.067 C
BRANCH   8   9
HETATM    9  C4  UNL     1       6.458 -17.693 116.551  1.00  0.00     0.012 C
BRANCH   9  10
HETATM   10  C5  UNL     1       6.790 -16.681 115.524  1.00  0.00    -0.004 C
HETATM   11  C6  UNL     1       5.442 -16.093 115.070  1.00  0.00     0.015 C
HETATM   12  C7  UNL     1       5.728 -15.207 113.910  1.00  0.00     0.074 C
HETATM   13  S1  UNL     1       7.330 -14.453 114.404  1.00  0.00    -0.169 SA
HETATM   14  C8  UNL     1       7.620 -15.535 115.909  1.00  0.00     0.078 C
ENDBRANCH   9  10
ENDBRANCH   8   9
ENDBRANCH   6   8
BRANCH   1  15
HETATM   15  N1  UNL     1      11.457 -21.241 116.508  1.00  0.00    -0.379 N
ATOM     16  H12 UNL     1      11.860 -22.124 116.825  1.00  0.00     0.158 HD
ATOM     17  H11 UNL     1      12.112 -20.961 115.778  1.00  0.00     0.158 HD
ENDBRANCH   1  15
TORSDOF 4
ENDMDL