MODEL 4
REMARK VINA RESULT: -7.416488728      1.897      5.896
REMARK  6 active torsions:
REMARK  status: ('A' for Active; 'I' for Inactive)
REMARK    1  A    between atoms: C6_6  and  O1_7
REMARK    2  A    between atoms: C10_15  and  C11_16
REMARK    3  A    between atoms: C12_18  and  O3_19
REMARK    4  A    between atoms: C13_21  and  O4_22
REMARK    5  A    between atoms: C14_24  and  O5_25
REMARK    6  A    between atoms: C15_27  and  O6_28
ROOT
HETATM    1  C1  UNL     1       9.789  16.643  39.153  1.00  0.00     0.017 C
HETATM    2  C2  UNL     1       9.623  15.921  40.458  1.00  0.00     0.034 C
HETATM    3  C3  UNL     1       8.674  16.555  41.399  1.00  0.00    -0.024 C
HETATM    4  C4  UNL     1       8.717  17.684  42.032  1.00  0.00    -0.028 C
HETATM    5  C5  UNL     1       9.719  18.769  42.059  1.00  0.00     0.058 C
HETATM    6  C6  UNL     1      10.511  18.776  43.345  1.00  0.00     0.122 C
HETATM    7  C7  UNL     1      11.959  18.969  43.232  1.00  0.00     0.037 C
HETATM    8  C8  UNL     1      12.629  18.605  41.957  1.00  0.00     0.055 C
HETATM    9  C9  UNL     1      12.669  17.142  41.775  1.00  0.00    -0.007 C
HETATM   10  N1  UNL     1      13.236  16.443  42.683  1.00  0.00    -0.405 N
ATOM     11  H11 UNL     1      13.264  15.432  42.557  1.00  0.00     0.155 HD
ATOM     12  H12 UNL     1      13.626  16.938  43.485  1.00  0.00     0.155 HD
HETATM   13  C10 UNL     1      12.100  16.421  40.605  1.00  0.00     0.120 C
HETATM   14  C15 UNL     1      10.960  15.554  41.014  1.00  0.00     0.141 C
ENDROOT
BRANCH  13  15
HETATM   15  C11 UNL     1      13.167  15.675  39.866  1.00  0.00     0.104 A
HETATM   16  O2  UNL     1      14.411  16.075  39.837  1.00  0.00    -0.286 OA
HETATM   17  C12 UNL     1      15.149  15.258  39.128  1.00  0.00     0.220 A
HETATM   18  C13 UNL     1      14.349  14.259  38.661  1.00  0.00     0.160 A
HETATM   19  C14 UNL     1      13.066  14.536  39.143  1.00  0.00     0.135 A
BRANCH  17  20
HETATM   20  O3  UNL     1      16.515  15.355  38.872  1.00  0.00    -0.339 OA
ATOM     21  H3  UNL     1      17.216  15.459  39.504  1.00  0.00     0.220 HD
ENDBRANCH  17  20
BRANCH  18  22
HETATM   22  O4  UNL     1      14.668  13.167  37.870  1.00  0.00    -0.354 OA
ATOM     23  H4  UNL     1      14.378  12.264  37.936  1.00  0.00     0.218 HD
ENDBRANCH  18  22
BRANCH  19  24
HETATM   24  O5  UNL     1      11.931  13.800  38.926  1.00  0.00    -0.356 OA
ATOM     25  H5  UNL     1      11.885  12.875  38.716  1.00  0.00     0.218 HD
ENDBRANCH  19  24
ENDBRANCH  13  15
BRANCH  14  26
HETATM   26  O6  UNL     1      10.916  15.312  42.395  1.00  0.00    -0.394 OA
ATOM     27  H6  UNL     1      10.557  16.045  42.880  1.00  0.00     0.210 HD
ENDBRANCH  14  26
BRANCH   6  28
HETATM   28  O1  UNL     1       9.996  19.678  44.293  1.00  0.00    -0.395 OA
ATOM     29  H1  UNL     1       9.168  20.059  44.023  1.00  0.00     0.210 HD
ENDBRANCH   6  28
TORSDOF 6
ENDMDL