MODEL 5
REMARK VINA RESULT: -6.802812123      3.794      6.126
REMARK  4 active torsions:
REMARK  status: ('A' for Active; 'I' for Inactive)
REMARK       I    between atoms: C2_2  and  N1_4
REMARK    1  A    between atoms: N1_4  and  C3_5
REMARK    2  A    between atoms: C4_6  and  O2_7
REMARK    3  A    between atoms: C6_11  and  O3_12
REMARK    4  A    between atoms: N3_19  and  O4_20
ROOT
HETATM    1  C3  UNL     1      13.741  16.481  38.316  1.00  0.00     0.164 A
HETATM    2  C4  UNL     1      14.864  15.846  38.821  1.00  0.00     0.135 A
HETATM    3  C5  UNL     1      14.812  15.400  40.113  1.00  0.00     0.117 A
HETATM    4  N2  UNL     1      15.973  14.735  40.652  1.00  0.00    -0.096 NA
HETATM    5  C6  UNL     1      13.695  15.566  40.901  1.00  0.00     0.107 A
HETATM    6  C7  UNL     1      12.537  16.205  40.424  1.00  0.00     0.056 A
HETATM    7  C8  UNL     1      11.371  16.435  41.087  1.00  0.00     0.119 A
HETATM    8  C9  UNL     1      10.379  17.078  40.404  1.00  0.00     0.133 A
HETATM    9  S1  UNL     1      11.080  17.349  38.872  1.00  0.00    -0.063 SA
HETATM   10  C10 UNL     1      12.609  16.641  39.136  1.00  0.00     0.066 A
HETATM   11  N3  UNL     1       9.093  17.378  40.988  1.00  0.00    -0.245 N
HETATM   12  C11 UNL     1       8.757  16.930  42.323  1.00  0.00     0.136 C
HETATM   13  C12 UNL     1       8.358  15.453  42.180  1.00  0.00     0.037 C
HETATM   14  C13 UNL     1      10.082  16.983  43.095  1.00  0.00     0.203 C
HETATM   15  O5  UNL     1      10.993  16.107  42.426  1.00  0.00    -0.345 OA
ENDROOT
BRANCH   1  16
HETATM   16  N1  UNL     1      13.623  16.959  37.038  1.00  0.00    -0.367 NA
HETATM   17  C2  UNL     1      13.508  17.423  35.797  1.00  0.00     0.288 C
HETATM   18  C1  UNL     1      14.381  16.775  34.714  1.00  0.00     0.135 C
HETATM   19  O1  UNL     1      12.775  18.343  35.335  1.00  0.00    -0.258 OA
ENDBRANCH   1  16
BRANCH   2  20
HETATM   20  O2  UNL     1      15.946  15.718  37.970  1.00  0.00    -0.356 OA
ATOM     21  H2  UNL     1      15.910  16.205  37.155  1.00  0.00     0.218 HD
ENDBRANCH   2  20
BRANCH   5  22
HETATM   22  O3  UNL     1      13.781  15.067  42.186  1.00  0.00    -0.358 OA
ATOM     23  H3  UNL     1      14.200  14.219  42.276  1.00  0.00     0.217 HD
ENDBRANCH   5  22
BRANCH  11  24
HETATM   24  O4  UNL     1       8.253  18.094  40.208  1.00  0.00    -0.286 OA
ATOM     25  H4  UNL     1       7.951  18.914  40.579  1.00  0.00     0.244 HD
ENDBRANCH  11  24
TORSDOF 4
ENDMDL