MODEL 1
REMARK VINA RESULT: -7.392936641      0.000      0.000
REMARK  2 active torsions:
REMARK  status: ('A' for Active; 'I' for Inactive)
REMARK    1  A    between atoms: O1_2  and  C2_3
REMARK    2  A    between atoms: C6_8  and  O2_9
ROOT
HETATM    1  C2  UNL     1       8.168  14.609  40.760  1.00  0.00     0.122 A
HETATM    2  C3  UNL     1       7.441  14.690  41.927  1.00  0.00     0.090 A
HETATM    3  N1  UNL     1       6.063  14.353  41.918  1.00  0.00    -0.099 NA
HETATM    4  C4  UNL     1       8.007  15.088  43.112  1.00  0.00     0.001 A
HETATM    5  C5  UNL     1       7.252  15.182  44.367  1.00  0.00     0.053 C
HETATM    6  C6  UNL     1       9.372  15.421  43.119  1.00  0.00     0.102 A
HETATM    7  C7  UNL     1      10.120  15.344  41.951  1.00  0.00     0.099 A
HETATM    8  C8  UNL     1       9.511  14.941  40.786  1.00  0.00     0.099 A
HETATM    9  N2  UNL     1      10.517  14.966  39.776  1.00  0.00    -0.336 N
ATOM     10  H2  UNL     1      10.357  14.714  38.801  1.00  0.00     0.168 HD
HETATM   11  C9  UNL     1      11.757  15.383  40.294  1.00  0.00     0.138 A
HETATM   12  C10 UNL     1      12.919  15.488  39.600  1.00  0.00     0.112 C
HETATM   13  N3  UNL     1      14.183  15.906  40.059  1.00  0.00    -0.332 N
ATOM     14  H3  UNL     1      14.340  16.204  41.022  1.00  0.00     0.168 HD
HETATM   15  C11 UNL     1      15.238  15.884  39.081  1.00  0.00     0.144 C
HETATM   16  N4  UNL     1      16.497  15.699  39.208  1.00  0.00    -0.380 N
ATOM     17  H41 UNL     1      17.245  15.683  38.514  1.00  0.00     0.158 HD
ATOM     18  H42 UNL     1      17.026  15.523  40.062  1.00  0.00     0.158 HD
HETATM   19  S1  UNL     1      14.290  16.199  37.550  1.00  0.00    -0.035 SA
HETATM   20  C12 UNL     1      12.938  15.099  38.172  1.00  0.00     0.102 C
HETATM   21  N5  UNL     1      12.382  14.287  37.443  1.00  0.00    -0.391 N
ATOM     22  H51 UNL     1      12.396  14.020  36.459  1.00  0.00     0.157 HD
ATOM     23  H52 UNL     1      11.638  13.681  37.785  1.00  0.00     0.157 HD
HETATM   24  N6  UNL     1      11.515  15.625  41.679  1.00  0.00    -0.331 N
HETATM   25  C13 UNL     1      12.468  16.055  42.675  1.00  0.00     0.158 C
ENDROOT
BRANCH   1  26
HETATM   26  O1  UNL     1       7.573  14.204  39.582  1.00  0.00    -0.352 OA
HETATM   27  C1  UNL     1       7.149  15.232  38.676  1.00  0.00     0.210 C
ENDBRANCH   1  26
BRANCH   6  28
HETATM   28  O2  UNL     1       9.935  15.822  44.313  1.00  0.00    -0.358 OA
ATOM     29  H2  UNL     1      10.868  16.004  44.328  1.00  0.00     0.217 HD
ENDBRANCH   6  28
TORSDOF 2
ENDMDL