MODEL 4
REMARK VINA RESULT: -8.495939408      1.353      1.604
REMARK  2 active torsions:
REMARK  status: ('A' for Active; 'I' for Inactive)
REMARK    1  A    between atoms: C8_10  and  C9_11
REMARK    2  A    between atoms: C12_20  and  O1_21
ROOT
HETATM    1  C1  UNL     1      10.711  16.756  37.184  1.00  0.00     0.039 C
HETATM    2  C2  UNL     1      12.017  17.540  37.438  1.00  0.00     0.128 A
HETATM    3  N1  UNL     1      12.534  17.036  38.667  1.00  0.00    -0.379 N
ATOM      4  H1  UNL     1      11.978  17.165  39.512  1.00  0.00     0.160 HD
HETATM    5  C3  UNL     1      13.771  16.370  38.778  1.00  0.00     0.052 A
HETATM    6  C4  UNL     1      14.537  16.165  37.631  1.00  0.00     0.004 A
HETATM    7  C5  UNL     1      15.741  15.508  37.699  1.00  0.00     0.014 A
HETATM    8  C6  UNL     1      16.162  15.061  38.937  1.00  0.00     0.002 A
HETATM    9  C7  UNL     1      15.405  15.265  40.068  1.00  0.00     0.016 A
HETATM   10  C8  UNL     1      14.174  15.933  40.023  1.00  0.00     0.021 A
HETATM   11  C13 UNL     1      14.066  16.636  36.338  1.00  0.00     0.004 A
HETATM   12  C14 UNL     1      14.585  16.573  35.068  1.00  0.00     0.059 A
HETATM   13  C15 UNL     1      13.690  17.190  34.199  1.00  0.00     0.117 A
HETATM   14  N6  UNL     1      13.798  17.367  32.799  1.00  0.00    -0.083 NA
HETATM   15  N7  UNL     1      12.674  17.599  34.964  1.00  0.00    -0.346 N
ATOM     16  H7  UNL     1      11.852  18.090  34.614  1.00  0.00     0.167 HD
HETATM   17  C16 UNL     1      12.877  17.274  36.273  1.00  0.00     0.044 A
ENDROOT
BRANCH  10  18
HETATM   18  C9  UNL     1      13.439  16.141  41.264  1.00  0.00     0.084 A
HETATM   19  N2  UNL     1      12.994  15.163  42.067  1.00  0.00    -0.327 N
HETATM   20  C10 UNL     1      12.328  15.333  43.199  1.00  0.00     0.194 A
ATOM     21  H2  UNL     1      13.187  14.203  41.781  1.00  0.00     0.168 HD
HETATM   22  N3  UNL     1      11.871  14.256  44.018  1.00  0.00    -0.063 NA
HETATM   23  N4  UNL     1      12.038  16.592  43.640  1.00  0.00    -0.317 N
HETATM   24  C11 UNL     1      12.452  17.631  42.887  1.00  0.00     0.154 A
ATOM     25  H4  UNL     1      11.525  16.742  44.510  1.00  0.00     0.169 HD
HETATM   26  N5  UNL     1      12.167  18.955  43.317  1.00  0.00    -0.080 NA
HETATM   27  C12 UNL     1      13.149  17.440  41.703  1.00  0.00     0.135 A
BRANCH  27  28
HETATM   28  O1  UNL     1      13.584  18.487  40.914  1.00  0.00    -0.356 OA
ATOM     29  H1  UNL     1      13.557  18.364  39.972  1.00  0.00     0.218 HD
ENDBRANCH  27  28
ENDBRANCH  10  18
TORSDOF 2
ENDMDL