MODEL 1
REMARK VINA RESULT: -7.394779800      0.000      0.000
REMARK  4 active torsions:
REMARK  status: ('A' for Active; 'I' for Inactive)
REMARK    1  A    between atoms: N1_1  and  C1_4
REMARK    2  A    between atoms: C6_16  and  N5_17
REMARK    3  A    between atoms: N6_19  and  C7_21
REMARK    4  A    between atoms: C10_24  and  O2_25
ROOT
HETATM    1  C1  UNL     1      10.416  18.781  43.206  1.00  0.00     0.680 A
HETATM    2  N2  UNL     1      11.271  18.756  42.160  1.00  0.00    -0.175 N
ATOM      3  H2  UNL     1      11.460  19.613  41.641  1.00  0.00     0.186 HD
HETATM    4  C2  UNL     1      11.885  17.593  41.794  1.00  0.00     0.151 A
HETATM    5  C3  UNL     1      11.638  16.429  42.489  1.00  0.00     0.146 A
HETATM    6  C4  UNL     1      10.762  16.468  43.553  1.00  0.00     0.290 A
HETATM    7  O1  UNL     1      10.557  15.397  44.166  1.00  0.00    -0.265 OA
HETATM    8  N3  UNL     1      10.195  17.635  43.864  1.00  0.00    -0.154 N
ATOM      9  H3  UNL     1       9.550  17.656  44.653  1.00  0.00     0.187 HD
HETATM   10  N4  UNL     1      12.304  15.251  42.061  1.00  0.00    -0.358 N
ATOM     11  H4  UNL     1      12.126  14.386  42.572  1.00  0.00     0.165 HD
HETATM   12  C5  UNL     1      13.113  15.212  41.077  1.00  0.00     0.109 A
HETATM   13  C6  UNL     1      13.441  16.390  40.279  1.00  0.00     0.238 A
HETATM   14  N7  UNL     1      12.773  17.570  40.706  1.00  0.00    -0.347 N
ATOM     15  H7  UNL     1      12.947  18.439  40.200  1.00  0.00     0.163 HD
ENDROOT
BRANCH  13  16
HETATM   16  N5  UNL     1      14.888  16.526  40.310  1.00  0.00    -0.308 N
HETATM   17  N6  UNL     1      15.678  16.037  39.493  1.00  0.00    -0.303 N
ATOM     18  H6  UNL     1      16.666  16.229  39.661  1.00  0.00     0.186 HD
ATOM     19  H5  UNL     1      15.287  17.073  41.072  1.00  0.00     0.183 HD
BRANCH  17  20
HETATM   20  C7  UNL     1      15.394  15.256  38.371  1.00  0.00     0.049 A
HETATM   21  C8  UNL     1      15.283  13.883  38.427  1.00  0.00     0.034 A
HETATM   22  C9  UNL     1      15.001  13.138  37.303  1.00  0.00     0.040 A
HETATM   23  C10 UNL     1      14.825  13.764  36.088  1.00  0.00     0.083 A
HETATM   24  C11 UNL     1      14.932  15.128  36.014  1.00  0.00     0.047 A
HETATM   25  S1  UNL     1      14.705  15.944  34.441  1.00  0.00    -0.050 SA
HETATM   26  C12 UNL     1      15.215  15.870  37.149  1.00  0.00     0.053 A
BRANCH  23  27
HETATM   27  O2  UNL     1      14.538  13.060  34.914  1.00  0.00    -0.359 OA
ATOM     28  H2  UNL     1      14.060  13.447  34.190  1.00  0.00     0.217 HD
ENDBRANCH  23  27
ENDBRANCH  17  20
ENDBRANCH  13  16
BRANCH   1  29
HETATM   29  N1  UNL     1       9.828  19.871  43.566  1.00  0.00    -0.234 N
ATOM     30  H12 UNL     1       9.334  20.446  42.884  1.00  0.00     0.174 HD
ATOM     31  H11 UNL     1       9.840  20.185  44.537  1.00  0.00     0.174 HD
ENDBRANCH   1  29
TORSDOF 4
ENDMDL