MODEL 2
REMARK VINA RESULT: -7.501585236      2.850      5.811
REMARK  5 active torsions:
REMARK  status: ('A' for Active; 'I' for Inactive)
REMARK    1  A    between atoms: C3_5  and  N2_6
REMARK    2  A    between atoms: N3_9  and  O1_10
REMARK    3  A    between atoms: C11_19  and  O2_20
REMARK    4  A    between atoms: C12_22  and  O3_23
REMARK    5  A    between atoms: C13_25  and  O4_26
ROOT
HETATM    1  C1  UNL     1      16.149  14.965  40.036  1.00  0.00     0.097 C
HETATM    2  C2  UNL     1      14.655  15.086  40.185  1.00  0.00     0.117 A
HETATM    3  N1  UNL     1      13.887  15.009  39.180  1.00  0.00    -0.352 N
ATOM      4  H1  UNL     1      14.328  14.859  38.273  1.00  0.00     0.163 HD
HETATM    5  C3  UNL     1      12.434  15.114  39.196  1.00  0.00     0.215 A
HETATM    6  C8  UNL     1      11.964  15.313  40.587  1.00  0.00     0.026 A
HETATM    7  C9  UNL     1      10.594  15.435  40.850  1.00  0.00    -0.013 A
HETATM    8  C10 UNL     1       9.676  15.326  39.693  1.00  0.00     0.052 C
HETATM    9  C11 UNL     1      10.109  15.630  42.110  1.00  0.00     0.108 A
HETATM   10  C12 UNL     1      10.992  15.713  43.190  1.00  0.00     0.136 A
HETATM   11  C13 UNL     1      12.344  15.596  42.965  1.00  0.00     0.136 A
HETATM   12  C14 UNL     1      12.804  15.400  41.677  1.00  0.00     0.123 A
HETATM   13  O5  UNL     1      14.191  15.282  41.472  1.00  0.00    -0.295 OA
ENDROOT
BRANCH   5  14
HETATM   14  N2  UNL     1      12.042  16.213  38.331  1.00  0.00    -0.205 NA
HETATM   15  C4  UNL     1      12.596  17.463  38.736  1.00  0.00     0.133 C
HETATM   16  C5  UNL     1      12.196  18.492  37.675  1.00  0.00     0.139 C
HETATM   17  N3  UNL     1      12.901  18.142  36.476  1.00  0.00    -0.175 NA
HETATM   18  C6  UNL     1      12.942  16.740  36.191  1.00  0.00     0.190 C
HETATM   19  C7  UNL     1      14.390  16.266  36.145  1.00  0.00     0.052 C
HETATM   20  N4  UNL     1      12.113  15.918  36.999  1.00  0.00    -0.332 N
ATOM     21  H4  UNL     1      11.590  15.137  36.601  1.00  0.00     0.176 HD
BRANCH  17  22
HETATM   22  O1  UNL     1      12.539  18.914  35.452  1.00  0.00    -0.311 OA
ATOM     23  H1  UNL     1      12.091  19.698  35.748  1.00  0.00     0.237 HD
ENDBRANCH  17  22
ENDBRANCH   5  14
BRANCH   9  24
HETATM   24  O2  UNL     1       8.761  15.754  42.375  1.00  0.00    -0.357 OA
ATOM     25  H2  UNL     1       8.404  16.473  42.883  1.00  0.00     0.217 HD
ENDBRANCH   9  24
BRANCH  11  26
HETATM   26  O4  UNL     1      13.196  15.683  44.062  1.00  0.00    -0.356 OA
ATOM     27  H4  UNL     1      12.804  15.706  44.927  1.00  0.00     0.218 HD
ENDBRANCH  11  26
BRANCH  10  28
HETATM   28  O3  UNL     1      10.466  15.913  44.467  1.00  0.00    -0.356 OA
ATOM     29  H3  UNL     1       9.523  15.884  44.578  1.00  0.00     0.218 HD
ENDBRANCH  10  28
TORSDOF 5
ENDMDL