MODEL 1
REMARK VINA RESULT: -7.931900576      0.000      0.000
REMARK  4 active torsions:
REMARK  status: ('A' for Active; 'I' for Inactive)
REMARK    1  A    between atoms: C4_4  and  C5_5
REMARK    2  A    between atoms: N2_7  and  O1_8
REMARK    3  A    between atoms: C10_20  and  O2_21
REMARK    4  A    between atoms: C13_25  and  O3_26
ROOT
HETATM    1  C5  UNL     1      12.144  17.685  39.020  1.00  0.00     0.197 C
HETATM    2  N1  UNL     1      13.050  18.064  40.088  1.00  0.00    -0.116 NA
HETATM    3  N2  UNL     1      12.287  17.943  41.266  1.00  0.00    -0.070 NA
HETATM    4  C6  UNL     1      12.031  16.521  41.453  1.00  0.00     0.182 C
HETATM    5  C7  UNL     1      13.199  15.828  42.045  1.00  0.00     0.083 C
HETATM    6  C8  UNL     1      12.858  14.811  43.099  1.00  0.00     0.127 C
HETATM    7  N3  UNL     1      11.789  15.320  43.944  1.00  0.00    -0.364 N
ATOM      8  H3  UNL     1      11.857  15.297  44.961  1.00  0.00     0.162 HD
HETATM    9  C9  UNL     1      10.646  15.852  43.290  1.00  0.00     0.186 C
HETATM   10  N4  UNL     1       9.371  15.752  43.949  1.00  0.00    -0.064 NA
HETATM   11  N5  UNL     1      10.791  16.394  42.151  1.00  0.00    -0.331 N
ATOM     12  H5  UNL     1       9.957  16.769  41.700  1.00  0.00     0.165 HD
HETATM   13  S1  UNL     1      11.769  16.009  39.694  1.00  0.00    -0.090 SA
ENDROOT
BRANCH   1  14
HETATM   14  C4  UNL     1      12.689  17.678  37.691  1.00  0.00     0.007 A
HETATM   15  C3  UNL     1      13.650  16.689  37.407  1.00  0.00     0.022 A
HETATM   16  C2  UNL     1      14.248  16.552  36.185  1.00  0.00    -0.028 A
HETATM   17  C1  UNL     1      15.256  15.461  36.007  1.00  0.00     0.051 C
HETATM   18  C13 UNL     1      13.925  17.397  35.154  1.00  0.00     0.080 A
HETATM   19  C11 UNL     1      12.995  18.371  35.391  1.00  0.00     0.005 A
HETATM   20  C10 UNL     1      12.389  18.503  36.647  1.00  0.00     0.083 A
HETATM   21  C12 UNL     1      12.619  19.309  34.292  1.00  0.00     0.054 C
BRANCH  18  22
HETATM   22  O3  UNL     1      14.551  17.228  33.930  1.00  0.00    -0.360 OA
ATOM     23  H3  UNL     1      14.502  16.381  33.502  1.00  0.00     0.217 HD
ENDBRANCH  18  22
BRANCH  20  24
HETATM   24  O2  UNL     1      11.461  19.507  36.816  1.00  0.00    -0.359 OA
ATOM     25  H2  UNL     1      11.754  20.406  36.915  1.00  0.00     0.217 HD
ENDBRANCH  20  24
ENDBRANCH   1  14
BRANCH   3  26
HETATM   26  O1  UNL     1      11.172  18.656  41.106  1.00  0.00    -0.294 OA
ATOM     27  H1  UNL     1      10.797  18.425  40.263  1.00  0.00     0.238 HD
ENDBRANCH   3  26
TORSDOF 4
ENDMDL