MODEL 5
REMARK VINA RESULT: -6.845213112      2.304      2.524
REMARK  6 active torsions:
REMARK  status: ('A' for Active; 'I' for Inactive)
REMARK    1  A    between atoms: C3_4  and  O1_5
REMARK    2  A    between atoms: C5_8  and  O2_9
REMARK    3  A    between atoms: C7_12  and  N2_13
REMARK    4  A    between atoms: N3_15  and  C8_17
REMARK    5  A    between atoms: C8_17  and  N4_19
REMARK    6  A    between atoms: N4_19  and  N5_21
ROOT
HETATM    1  N1  UNL     1      16.207  14.453  34.440  1.00  0.00    -0.191 NA
HETATM    2  C1  UNL     1      15.513  14.526  35.373  1.00  0.00     0.105 C
HETATM    3  C2  UNL     1      14.663  14.620  36.526  1.00  0.00     0.116 A
HETATM    4  C3  UNL     1      15.218  14.951  37.781  1.00  0.00     0.106 A
HETATM    5  C4  UNL     1      14.411  15.042  38.890  1.00  0.00     0.076 A
HETATM    6  C5  UNL     1      14.886  15.358  40.130  1.00  0.00     0.086 A
HETATM    7  C6  UNL     1      14.052  15.448  41.254  1.00  0.00     0.087 A
HETATM    8  C7  UNL     1      12.710  15.203  41.059  1.00  0.00     0.124 A
HETATM    9  N6  UNL     1      12.268  14.894  39.828  1.00  0.00    -0.327 N
ATOM     10  H6  UNL     1      11.270  14.718  39.716  1.00  0.00     0.169 HD
HETATM   11  C9  UNL     1      13.040  14.801  38.739  1.00  0.00     0.123 A
HETATM   12  N7  UNL     1      12.547  14.489  37.529  1.00  0.00    -0.331 N
ATOM     13  H7  UNL     1      11.546  14.317  37.437  1.00  0.00     0.168 HD
HETATM   14  C10 UNL     1      13.322  14.395  36.435  1.00  0.00     0.126 A
HETATM   15  S2  UNL     1      12.631  14.003  34.971  1.00  0.00    -0.059 SA
ENDROOT
BRANCH   4  16
HETATM   16  O1  UNL     1      16.537  15.163  37.827  1.00  0.00    -0.358 OA
ATOM     17  H1  UNL     1      16.934  15.585  37.074  1.00  0.00     0.217 HD
ENDBRANCH   4  16
BRANCH   6  18
HETATM   18  O2  UNL     1      16.229  15.606  40.340  1.00  0.00    -0.359 OA
ATOM     19  H2  UNL     1      16.658  16.357  39.945  1.00  0.00     0.217 HD
ENDBRANCH   6  18
BRANCH   8  20
HETATM   20  N2  UNL     1      11.815  15.283  42.176  1.00  0.00    -0.283 N
HETATM   21  N3  UNL     1      10.634  15.696  42.041  1.00  0.00    -0.274 N
ATOM     22  H3  UNL     1      10.284  15.985  41.128  1.00  0.00     0.189 HD
ATOM     23  H2  UNL     1      12.142  14.999  43.100  1.00  0.00     0.188 HD
BRANCH  21  24
HETATM   24  C8  UNL     1       9.799  15.749  43.188  1.00  0.00     0.204 C
HETATM   25  S1  UNL     1       8.319  15.054  43.189  1.00  0.00    -0.038 SA
BRANCH  24  26
HETATM   26  N4  UNL     1      10.252  16.416  44.358  1.00  0.00    -0.282 N
ATOM     27  H4  UNL     1      10.504  15.873  45.184  1.00  0.00     0.189 HD
BRANCH  26  28
HETATM   28  N5  UNL     1      10.355  17.812  44.384  1.00  0.00    -0.343 N
ATOM     29  H52 UNL     1      11.283  18.236  44.399  1.00  0.00     0.176 HD
ATOM     30  H51 UNL     1       9.516  18.393  44.388  1.00  0.00     0.176 HD
ENDBRANCH  26  28
ENDBRANCH  24  26
ENDBRANCH  21  24
ENDBRANCH   8  20
TORSDOF 6
ENDMDL