MODEL 1
REMARK VINA RESULT: -7.883547062      0.000      0.000
REMARK  4 active torsions:
REMARK  status: ('A' for Active; 'I' for Inactive)
REMARK    1  A    between atoms: O1_1  and  C1_3
REMARK    2  A    between atoms: C6_8  and  O2_9
REMARK    3  A    between atoms: C11_19  and  O3_20
REMARK    4  A    between atoms: C12_22  and  C13_23
ROOT
HETATM    1  C1  UNL     1       7.013  14.963  41.885  1.00  0.00     0.140 A
HETATM    2  C2  UNL     1       7.044  14.854  43.277  1.00  0.00     0.057 A
HETATM    3  C3  UNL     1       8.218  15.063  43.960  1.00  0.00     0.018 A
HETATM    4  C4  UNL     1       9.345  15.376  43.244  1.00  0.00    -0.006 A
HETATM    5  C5  UNL     1      10.520  15.582  43.942  1.00  0.00     0.052 A
HETATM    6  C6  UNL     1      11.665  15.898  43.249  1.00  0.00     0.093 A
HETATM    7  C7  UNL     1      11.645  16.007  41.876  1.00  0.00     0.072 A
HETATM    8  C8  UNL     1      10.475  15.804  41.143  1.00  0.00     0.024 A
HETATM    9  C9  UNL     1       9.334  15.488  41.855  1.00  0.00     0.055 A
HETATM   10  N1  UNL     1       8.149  15.271  41.249  1.00  0.00    -0.336 N
ATOM     11  H1  UNL     1       8.117  15.347  40.232  1.00  0.00     0.168 HD
HETATM   12  C10 UNL     1      10.389  15.906  39.691  1.00  0.00     0.187 A
HETATM   13  N2  UNL     1       9.673  17.122  39.313  1.00  0.00    -0.131 NA
HETATM   14  N3  UNL     1      10.793  17.477  38.554  1.00  0.00    -0.104 NA
HETATM   15  C11 UNL     1      11.583  16.333  38.973  1.00  0.00     0.194 A
HETATM   16  C12 UNL     1      12.769  16.735  39.743  1.00  0.00     0.194 C
HETATM   17  N4  UNL     1      12.794  16.329  41.111  1.00  0.00    -0.372 N
ATOM     18  H4  UNL     1      13.701  16.267  41.571  1.00  0.00     0.160 HD
ENDROOT
BRANCH  16  19
HETATM   19  C13 UNL     1      13.987  16.133  39.087  1.00  0.00     0.079 A
HETATM   20  C14 UNL     1      14.881  15.258  39.671  1.00  0.00     0.037 A
HETATM   21  C15 UNL     1      15.832  14.963  38.724  1.00  0.00     0.027 A
HETATM   22  C16 UNL     1      15.489  15.664  37.603  1.00  0.00     0.142 A
HETATM   23  O4  UNL     1      14.404  16.335  37.857  1.00  0.00    -0.325 OA
ENDBRANCH  16  19
BRANCH  15  24
HETATM   24  O3  UNL     1      11.829  15.524  37.843  1.00  0.00    -0.369 OA
ATOM     25  H3  UNL     1      12.495  14.869  38.018  1.00  0.00     0.212 HD
ENDBRANCH  15  24
BRANCH   6  26
HETATM   26  O2  UNL     1      12.833  16.102  43.960  1.00  0.00    -0.358 OA
ATOM     27  H2  UNL     1      13.641  15.731  43.624  1.00  0.00     0.217 HD
ENDBRANCH   6  26
BRANCH   1  28
HETATM   28  O1  UNL     1       5.832  14.754  41.195  1.00  0.00    -0.346 OA
ATOM     29  H1  UNL     1       5.502  13.873  41.065  1.00  0.00     0.219 HD
ENDBRANCH   1  28
TORSDOF 4
ENDMDL