MODEL 1
REMARK VINA RESULT: -7.960356150      0.000      0.000
REMARK  2 active torsions:
REMARK  status: ('A' for Active; 'I' for Inactive)
REMARK    1  A    between atoms: C3_8  and  C4_9
REMARK    2  A    between atoms: C7_12  and  O1_13
ROOT
HETATM    1  N1  UNL     1      16.023  14.870  40.505  1.00  0.00    -0.080 NA
HETATM    2  C1  UNL     1      14.965  15.303  39.614  1.00  0.00     0.143 A
HETATM    3  N2  UNL     1      15.027  14.959  38.345  1.00  0.00    -0.326 N
ATOM      4  H2  UNL     1      15.760  14.404  37.903  1.00  0.00     0.165 HD
HETATM    5  C2  UNL     1      13.890  15.500  37.707  1.00  0.00     0.289 A
HETATM    6  N3  UNL     1      13.161  16.184  38.691  1.00  0.00    -0.336 N
ATOM      7  H3  UNL     1      12.285  16.684  38.538  1.00  0.00     0.164 HD
HETATM    8  C3  UNL     1      13.799  16.075  39.860  1.00  0.00     0.085 A
HETATM    9  N5  UNL     1      13.166  14.402  37.090  1.00  0.00    -0.027 N
ATOM     10  H51 UNL     1      13.047  13.629  37.744  1.00  0.00     0.282 HD
ATOM     11  H52 UNL     1      13.740  13.937  36.386  1.00  0.00     0.282 HD
HETATM   12  C10 UNL     1      11.909  14.805  36.540  1.00  0.00     0.253 C
HETATM   13  C11 UNL     1      11.957  16.035  35.699  1.00  0.00     0.085 C
HETATM   14  S1  UNL     1      10.262  16.718  35.604  1.00  0.00    -0.091 SA
HETATM   15  C12 UNL     1      12.877  17.097  36.202  1.00  0.00     0.040 C
HETATM   16  C13 UNL     1      14.223  16.482  36.598  1.00  0.00     0.138 C
HETATM   17  S2  UNL     1      14.924  15.671  35.157  1.00  0.00    -0.086 SA
ENDROOT
BRANCH   8  18
HETATM   18  C4  UNL     1      13.248  16.703  41.065  1.00  0.00     0.018 A
HETATM   19  C5  UNL     1      13.101  18.107  40.971  1.00  0.00     0.018 A
HETATM   20  C6  UNL     1      12.601  18.864  42.001  1.00  0.00     0.037 A
HETATM   21  C7  UNL     1      12.217  18.291  43.185  1.00  0.00     0.067 A
HETATM   22  C8  UNL     1      12.348  16.954  43.300  1.00  0.00     0.064 A
HETATM   23  C9  UNL     1      12.860  16.184  42.239  1.00  0.00     0.061 A
HETATM   24  N4  UNL     1      12.920  14.823  42.547  1.00  0.00    -0.101 NA
BRANCH  21  25
HETATM   25  O1  UNL     1      11.708  19.082  44.227  1.00  0.00    -0.361 OA
ATOM     26  H1  UNL     1      11.044  18.739  44.813  1.00  0.00     0.217 HD
ENDBRANCH  21  25
ENDBRANCH   8  18
TORSDOF 2
ENDMDL