MODEL 5
REMARK VINA RESULT: -5.884546904      2.896      8.636
REMARK  12 active torsions:
REMARK  status: ('A' for Active; 'I' for Inactive)
REMARK    1  A    between atoms: C2_2  and  N1_3
REMARK       I    between atoms: N1_3  and  C3_5
REMARK    2  A    between atoms: C3_5  and  C4_7
REMARK    3  A    between atoms: C5_10  and  C6_11
REMARK    4  A    between atoms: C6_11  and  C7_12
REMARK    5  A    between atoms: C7_12  and  C8_13
REMARK    6  A    between atoms: C8_13  and  C9_14
REMARK    7  A    between atoms: C9_14  and  C10_15
REMARK    8  A    between atoms: C10_15  and  N3_16
REMARK    9  A    between atoms: C16_28  and  C17_29
REMARK       I    between atoms: C17_29  and  N5_31
REMARK   10  A    between atoms: C21_38  and  C22_39
REMARK   11  A    between atoms: C22_39  and  C23_40
REMARK   12  A    between atoms: C27_47  and  C28_48
ROOT
HETATM    1  C4  UNL     1      -6.428  28.401  -3.196  1.00  0.00     0.093 C
HETATM    2  N2  UNL     1      -7.396  27.310  -3.321  1.00  0.00    -0.344 N
ATOM      3  H2  UNL     1      -8.338  27.701  -3.355  1.00  0.00     0.167 HD
HETATM    4  C5  UNL     1      -7.475  25.946  -3.408  1.00  0.00     0.084 C
HETATM    5  N4  UNL     1      -7.409  25.060  -2.441  1.00  0.00    -0.317 N
ATOM      6  H4  UNL     1      -7.476  24.077  -2.703  1.00  0.00     0.170 HD
HETATM    7  C11 UNL     1      -7.253  25.357  -1.062  1.00  0.00     0.223 C
HETATM    8  O2  UNL     1      -6.193  25.043  -0.471  1.00  0.00    -0.273 OA
HETATM    9  C12 UNL     1      -8.400  26.051  -0.362  1.00  0.00     0.103 C
HETATM   10  C13 UNL     1      -8.181  26.134   1.105  1.00  0.00     0.009 C
HETATM   11  C14 UNL     1      -7.204  27.181   1.557  1.00  0.00     0.003 C
HETATM   12  C15 UNL     1      -7.854  28.503   1.806  1.00  0.00     0.035 C
HETATM   13  C16 UNL     1      -7.082  29.291   2.876  1.00  0.00     0.176 C
HETATM   14  N6  UNL     1      -5.676  29.035   2.767  1.00  0.00    -0.346 N
ATOM     15  H6  UNL     1      -5.336  28.194   3.232  1.00  0.00     0.163 HD
HETATM   16  C20 UNL     1      -4.697  29.814   2.085  1.00  0.00     0.241 C
HETATM   17  O4  UNL     1      -3.486  29.781   2.499  1.00  0.00    -0.271 OA
HETATM   18  C21 UNL     1      -4.944  30.685   0.903  1.00  0.00     0.177 C
HETATM   19  N7  UNL     1      -4.608  30.054  -0.343  1.00  0.00    -0.347 N
ATOM     20  H7  UNL     1      -3.700  30.353  -0.697  1.00  0.00     0.163 HD
HETATM   21  C26 UNL     1      -5.216  29.146  -1.169  1.00  0.00     0.229 C
HETATM   22  O5  UNL     1      -4.656  27.988  -1.279  1.00  0.00    -0.273 OA
HETATM   23  C27 UNL     1      -6.497  29.257  -2.020  1.00  0.00     0.147 C
ENDROOT
BRANCH   4  24
HETATM   24  C6  UNL     1      -7.814  25.318  -4.786  1.00  0.00     0.076 C
BRANCH  24  25
HETATM   25  C7  UNL     1      -6.812  24.263  -5.041  1.00  0.00     0.007 C
BRANCH  25  26
HETATM   26  C8  UNL     1      -5.541  24.690  -5.744  1.00  0.00     0.002 C
BRANCH  26  27
HETATM   27  C9  UNL     1      -4.499  23.636  -5.401  1.00  0.00     0.027 C
BRANCH  27  28
HETATM   28  C10 UNL     1      -4.579  22.388  -6.228  1.00  0.00     0.229 C
BRANCH  28  29
HETATM   29  N3  UNL     1      -3.293  21.986  -6.728  1.00  0.00    -0.079 N
ATOM     30  H33 UNL     1      -2.599  22.723  -6.598  1.00  0.00     0.274 HD
ATOM     31  H32 UNL     1      -2.875  21.266  -6.137  1.00  0.00     0.274 HD
ATOM     32  H31 UNL     1      -3.335  21.686  -7.702  1.00  0.00     0.274 HD
ENDBRANCH  28  29
ENDBRANCH  27  28
ENDBRANCH  26  27
ENDBRANCH  25  26
ENDBRANCH  24  25
ENDBRANCH   4  24
BRANCH   1  33
HETATM   33  C3  UNL     1      -6.055  28.842  -4.547  1.00  0.00     0.265 C
HETATM   34  N1  UNL     1      -6.873  28.684  -5.699  1.00  0.00    -0.356 N
ATOM     35  H1  UNL     1      -7.789  28.243  -5.608  1.00  0.00     0.162 HD
HETATM   36  O1  UNL     1      -4.911  29.387  -4.802  1.00  0.00    -0.266 OA
BRANCH  34  37
HETATM   37  C2  UNL     1      -6.425  29.141  -7.002  1.00  0.00     0.118 C
HETATM   38  C1  UNL     1      -5.803  28.008  -7.783  1.00  0.00     0.026 C
ENDBRANCH  34  37
ENDBRANCH   1  33
BRANCH  23  39
HETATM   39  C28 UNL     1      -6.864  30.686  -2.140  1.00  0.00     0.135 C
HETATM   40 CL1  UNL     1      -7.868  31.389  -0.907  1.00  0.00    -0.129 Cl
ENDBRANCH  23  39
BRANCH  18  41
HETATM   41  C22 UNL     1      -4.351  32.019   1.121  1.00  0.00     0.038 C
BRANCH  41  42
HETATM   42  C23 UNL     1      -3.488  32.724   0.182  1.00  0.00    -0.020 C
HETATM   43  C24 UNL     1      -2.019  32.415   0.666  1.00  0.00     0.009 C
HETATM   44  C25 UNL     1      -3.500  34.266   0.309  1.00  0.00     0.009 C
ENDBRANCH  41  42
ENDBRANCH  18  41
BRANCH  13  45
HETATM   45  C17 UNL     1      -7.592  28.796   4.191  1.00  0.00     0.241 C
HETATM   46  O3  UNL     1      -7.041  27.818   4.766  1.00  0.00    -0.271 OA
HETATM   47  N5  UNL     1      -8.698  29.382   4.837  1.00  0.00    -0.359 N
HETATM   48  C18 UNL     1      -9.252  28.816   6.049  1.00  0.00     0.152 C
HETATM   49  C19 UNL     1      -9.341  30.619   4.360  1.00  0.00     0.152 C
ENDBRANCH  13  45
TORSDOF 12
ENDMDL