MODEL 3
REMARK VINA RESULT: -10.297152154      1.206      1.434
REMARK  14 active torsions:
REMARK  status: ('A' for Active; 'I' for Inactive)
REMARK    1  A    between atoms: C4_4  and  N1_5
REMARK    2  A    between atoms: N1_5  and  S1_7
REMARK    3  A    between atoms: S1_7  and  C5_10
REMARK    4  A    between atoms: C10_15  and  C11_16
REMARK    5  A    between atoms: C11_16  and  N2_17
REMARK    6  A    between atoms: C17_31  and  N6_32
REMARK    7  A    between atoms: N6_32  and  C18_34
REMARK    8  A    between atoms: C18_34  and  C19_35
REMARK    9  A    between atoms: C19_35  and  C20_36
REMARK   10  A    between atoms: C20_36  and  C21_37
REMARK   11  A    between atoms: C21_37  and  C22_38
REMARK   12  A    between atoms: C22_38  and  C23_39
REMARK   13  A    between atoms: C23_39  and  N7_40
REMARK   14  A    between atoms: C27_44  and  N8_45
ROOT
HETATM    1  C1  UNL     1      -6.824  27.569  -6.252  1.00  0.00     0.069 C
HETATM    2  C2  UNL     1      -6.734  26.351  -5.374  1.00  0.00     0.026 A
HETATM    3  C3  UNL     1      -7.284  26.307  -4.165  1.00  0.00     0.074 A
HETATM    4  C4  UNL     1      -7.190  25.135  -3.339  1.00  0.00     0.132 A
HETATM    5  N5  UNL     1      -6.496  24.151  -3.940  1.00  0.00    -0.176 N
ATOM      6  H5  UNL     1      -6.382  23.286  -3.413  1.00  0.00     0.186 HD
HETATM    7  C17 UNL     1      -5.936  24.190  -5.167  1.00  0.00     0.679 A
HETATM    8  N9  UNL     1      -6.047  25.289  -5.902  1.00  0.00    -0.196 N
ATOM      9  H9  UNL     1      -5.632  25.342  -6.832  1.00  0.00     0.184 HD
ENDROOT
BRANCH   4  10
HETATM   10  N1  UNL     1      -7.771  25.182  -2.258  1.00  0.00    -0.265 N
ATOM     11  H1  UNL     1      -8.781  25.276  -2.361  1.00  0.00     0.180 HD
BRANCH  10  12
HETATM   12  S1  UNL     1      -7.289  25.128  -0.650  1.00  0.00     0.264 S
HETATM   13  O1  UNL     1      -6.139  25.981  -0.273  1.00  0.00    -0.200 OA
HETATM   14  O2  UNL     1      -6.926  23.694  -0.279  1.00  0.00    -0.200 OA
BRANCH  12  15
HETATM   15  C5  UNL     1      -8.756  25.531   0.275  1.00  0.00     0.080 A
HETATM   16  C6  UNL     1      -9.707  26.351  -0.239  1.00  0.00     0.026 A
HETATM   17  C7  UNL     1     -10.795  26.783   0.536  1.00  0.00     0.009 A
HETATM   18  C8  UNL     1     -10.918  26.378   1.842  1.00  0.00    -0.054 A
HETATM   19  C9  UNL     1     -12.029  26.894   2.712  1.00  0.00     0.049 C
HETATM   20  C10 UNL     1      -9.953  25.540   2.358  1.00  0.00    -0.033 A
HETATM   21  C16 UNL     1      -8.870  25.110   1.584  1.00  0.00     0.034 A
BRANCH  20  22
HETATM   22  C11 UNL     1     -10.036  25.180   3.807  1.00  0.00     0.160 C
BRANCH  22  23
HETATM   23  N2  UNL     1      -8.936  24.315   4.121  1.00  0.00    -0.372 N
HETATM   24  C12 UNL     1      -8.796  23.476   5.054  1.00  0.00     0.105 A
HETATM   25  C13 UNL     1      -9.747  23.237   6.006  1.00  0.00     0.090 A
HETATM   26  N4  UNL     1      -7.635  22.753   5.024  1.00  0.00    -0.339 N
HETATM   27  C14 UNL     1      -9.519  22.247   6.945  1.00  0.00     0.107 A
HETATM   28 CL1  UNL     1     -10.684  21.901   8.194  1.00  0.00    -0.064 Cl
HETATM   29  N3  UNL     1      -8.361  21.570   6.865  1.00  0.00    -0.343 N
HETATM   30  C15 UNL     1      -7.405  21.785   5.935  1.00  0.00     0.183 A
ATOM     31  H3  UNL     1      -8.192  20.840   7.556  1.00  0.00     0.167 HD
ATOM     32  H4  UNL     1      -6.937  22.948   4.307  1.00  0.00     0.168 HD
ATOM     33  H2  UNL     1      -8.139  24.389   3.489  1.00  0.00     0.161 HD
ENDBRANCH  22  23
ENDBRANCH  20  22
ENDBRANCH  12  15
ENDBRANCH  10  12
ENDBRANCH   4  10
BRANCH   7  34
HETATM   34  N6  UNL     1      -5.295  23.107  -5.592  1.00  0.00    -0.226 N
ATOM     35  H6  UNL     1      -5.836  22.255  -5.741  1.00  0.00     0.177 HD
BRANCH  34  36
HETATM   36  C18 UNL     1      -3.906  23.068  -5.849  1.00  0.00     0.138 C
BRANCH  36  37
HETATM   37  C19 UNL     1      -3.525  21.961  -6.787  1.00  0.00     0.020 C
BRANCH  37  38
HETATM   38  C20 UNL     1      -2.067  21.671  -6.710  1.00  0.00     0.002 C
BRANCH  38  39
HETATM   39  C21 UNL     1      -1.586  21.222  -8.106  1.00  0.00     0.002 C
BRANCH  39  40
HETATM   40  C22 UNL     1      -0.054  21.325  -8.168  1.00  0.00     0.030 C
BRANCH  40  41
HETATM   41  C23 UNL     1       0.501  22.000  -6.957  1.00  0.00     0.272 C
BRANCH  41  42
HETATM   42  N7  UNL     1       1.897  22.376  -7.133  1.00  0.00     0.090 N
HETATM   43  C24 UNL     1       2.347  21.531  -8.258  1.00  0.00     0.272 C
HETATM   44  C25 UNL     1       3.278  22.257  -9.176  1.00  0.00     0.032 C
HETATM   45  C26 UNL     1       4.231  23.138  -8.415  1.00  0.00     0.036 C
HETATM   46  C27 UNL     1       3.466  24.122  -7.582  1.00  0.00     0.211 C
HETATM   47  C28 UNL     1       2.003  23.764  -7.612  1.00  0.00     0.305 C
BRANCH  46  48
HETATM   48  N8  UNL     1       3.718  25.489  -8.016  1.00  0.00    -0.073 N
ATOM     49  H83 UNL     1       4.717  25.680  -8.089  1.00  0.00     0.274 HD
ATOM     50  H82 UNL     1       3.461  25.625  -8.993  1.00  0.00     0.274 HD
ATOM     51  H81 UNL     1       3.251  26.163  -7.408  1.00  0.00     0.274 HD
ENDBRANCH  46  48
ENDBRANCH  41  42
ENDBRANCH  40  41
ENDBRANCH  39  40
ENDBRANCH  38  39
ENDBRANCH  37  38
ENDBRANCH  36  37
ENDBRANCH  34  36
ENDBRANCH   7  34
TORSDOF 14
ENDMDL