MODEL 2
REMARK VINA RESULT: -9.782915010      1.142      1.288
REMARK  14 active torsions:
REMARK  status: ('A' for Active; 'I' for Inactive)
REMARK    1  A    between atoms: N1_2  and  C2_3
REMARK    2  A    between atoms: N1_2  and  C23_35
REMARK    3  A    between atoms: C2_3  and  C3_4
REMARK    4  A    between atoms: C3_4  and  O1_5
REMARK    5  A    between atoms: C3_4  and  C4_7
REMARK    6  A    between atoms: C4_7  and  O2_8
REMARK    7  A    between atoms: O2_8  and  C5_9
REMARK    8  A    between atoms: C9_14  and  C10_15
REMARK    9  A    between atoms: N2_16  and  N3_18
REMARK       I    between atoms: N3_18  and  C11_20
REMARK       I    between atoms: C11_20  and  N4_22
REMARK   10  A    between atoms: N4_22  and  C12_24
REMARK   11  A    between atoms: C23_35  and  C24_36
REMARK   12  A    between atoms: C24_36  and  O4_37
REMARK   13  A    between atoms: O4_37  and  N5_38
REMARK   14  A    between atoms: N7_43  and  O5_45
ROOT
HETATM    1  C5  UNL     1      -6.428  24.997  -3.538  1.00  0.00     0.070 A
HETATM    2  C6  UNL     1      -6.522  26.157  -4.296  1.00  0.00     0.055 A
HETATM    3  C7  UNL     1      -6.119  26.174  -5.603  1.00  0.00     0.014 A
HETATM    4 BR1  UNL     1      -6.279  27.794  -6.586  1.00  0.00    -0.051 Br
HETATM    5  C8  UNL     1      -5.612  25.015  -6.167  1.00  0.00     0.032 A
HETATM    6  C9  UNL     1      -5.495  23.848  -5.479  1.00  0.00    -0.015 A
HETATM    7  C22 UNL     1      -5.924  23.889  -4.143  1.00  0.00     0.049 A
ENDROOT
BRANCH   1   8
HETATM    8  O2  UNL     1      -6.839  24.991  -2.215  1.00  0.00    -0.349 OA
BRANCH   8   9
HETATM    9  C4  UNL     1      -7.557  26.062  -1.656  1.00  0.00     0.208 C
BRANCH   9  10
HETATM   10  C3  UNL     1      -7.055  26.218  -0.214  1.00  0.00     0.155 C
BRANCH  10  11
HETATM   11  C2  UNL     1      -8.266  26.460   0.628  1.00  0.00     0.130 C
BRANCH  11  12
HETATM   12  N1  UNL     1      -8.125  26.110   2.007  1.00  0.00    -0.271 NA
HETATM   13  C1  UNL     1      -8.437  27.247   2.845  1.00  0.00     0.118 C
BRANCH  12  14
HETATM   14  C23 UNL     1      -8.843  24.980   2.422  1.00  0.00     0.105 C
HETATM   15  N7  UNL     1      -8.325  23.815   2.177  1.00  0.00    -0.260 N
ATOM     16  H7  UNL     1      -7.425  23.787   1.698  1.00  0.00     0.195 HD
BRANCH  14  17
HETATM   17  C24 UNL     1     -10.140  25.029   3.120  1.00  0.00     0.274 C
BRANCH  17  18
HETATM   18  O4  UNL     1     -10.066  24.269   4.327  1.00  0.00    -0.258 OA
BRANCH  18  19
HETATM   19  N5  UNL     1     -10.977  23.280   4.600  1.00  0.00    -0.214 N
HETATM   20  N6  UNL     1     -11.826  22.843   3.773  1.00  0.00    -0.326 N
ATOM     21  H62 UNL     1     -11.820  23.265   2.845  1.00  0.00     0.178 HD
ATOM     22  H61 UNL     1     -12.503  22.107   3.976  1.00  0.00     0.178 HD
ATOM     23  H5  UNL     1     -10.968  22.869   5.534  1.00  0.00     0.215 HD
ENDBRANCH  18  19
ENDBRANCH  17  18
ENDBRANCH  14  17
BRANCH  15  24
HETATM   24  O5  UNL     1      -8.898  22.630   2.516  1.00  0.00    -0.289 OA
ATOM     25  H5  UNL     1      -9.480  22.504   3.256  1.00  0.00     0.244 HD
ENDBRANCH  15  24
ENDBRANCH  12  14
ENDBRANCH  11  12
ENDBRANCH  10  11
BRANCH  10  26
HETATM   26  O1  UNL     1      -6.382  25.048   0.087  1.00  0.00    -0.392 OA
ATOM     27  H1  UNL     1      -6.408  24.812   1.007  1.00  0.00     0.210 HD
ENDBRANCH  10  26
ENDBRANCH   9  10
ENDBRANCH   8   9
ENDBRANCH   1   8
BRANCH   6  28
HETATM   28  C10 UNL     1      -4.986  22.620  -6.024  1.00  0.00     0.118 C
HETATM   29  N2  UNL     1      -3.828  22.284  -6.285  1.00  0.00    -0.307 N
ATOM     30  H2  UNL     1      -3.769  21.339  -6.666  1.00  0.00     0.186 HD
BRANCH  29  31
HETATM   31  N3  UNL     1      -2.634  22.874  -6.184  1.00  0.00    -0.252 N
HETATM   32  C11 UNL     1      -1.443  22.304  -6.795  1.00  0.00     0.335 C
HETATM   33  O3  UNL     1      -1.634  21.235  -7.443  1.00  0.00    -0.246 OA
HETATM   34  N4  UNL     1      -0.244  22.936  -6.634  1.00  0.00    -0.334 N
ATOM     35  H4  UNL     1      -0.281  23.776  -6.056  1.00  0.00     0.165 HD
ATOM     36  H3  UNL     1      -2.555  23.748  -5.664  1.00  0.00     0.191 HD
BRANCH  34  37
HETATM   37  C12 UNL     1       1.066  22.617  -7.144  1.00  0.00     0.109 C
HETATM   38  C13 UNL     1       1.815  23.961  -7.347  1.00  0.00     0.029 C
HETATM   39  C14 UNL     1       3.314  23.770  -7.364  1.00  0.00     0.002 C
HETATM   40  C15 UNL     1       3.927  23.566  -8.710  1.00  0.00     0.000 C
HETATM   41  C16 UNL     1       5.127  22.644  -8.564  1.00  0.00     0.000 C
HETATM   42  C17 UNL     1       4.811  21.207  -8.922  1.00  0.00     0.000 C
HETATM   43  C18 UNL     1       4.269  20.421  -7.799  1.00  0.00     0.004 C
HETATM   44  C19 UNL     1       2.835  20.149  -7.663  1.00  0.00     0.027 C
HETATM   45  C20 UNL     1       1.879  20.666  -8.635  1.00  0.00    -0.029 C
HETATM   46  C21 UNL     1       0.999  21.809  -8.360  1.00  0.00    -0.006 C
ENDBRANCH  34  37
ENDBRANCH  29  31
ENDBRANCH   6  28
TORSDOF 14
ENDMDL