MODEL 5
REMARK VINA RESULT: -8.081137364      2.160      3.428
REMARK  12 active torsions:
REMARK  status: ('A' for Active; 'I' for Inactive)
REMARK    1  A    between atoms: N1_2  and  C3_4
REMARK    2  A    between atoms: C3_4  and  C4_5
REMARK    3  A    between atoms: C4_5  and  N2_6
REMARK    4  A    between atoms: N2_6  and  C5_8
REMARK    5  A    between atoms: C11_16  and  C12_17
REMARK    6  A    between atoms: C12_17  and  N5_21
REMARK    7  A    between atoms: C16_26  and  C17_27
REMARK       I    between atoms: C17_27  and  N6_29
REMARK    8  A    between atoms: N6_29  and  C18_31
REMARK    9  A    between atoms: C18_31  and  C19_32
REMARK   10  A    between atoms: C19_32  and  N7_33
REMARK   11  A    between atoms: C24_40  and  N9_41
REMARK   12  A    between atoms: C25_43  and  C26_44
ROOT
HETATM    1  C5  UNL     1      -4.967  31.085  -6.060  1.00  0.00     0.043 A
HETATM    2  C6  UNL     1      -5.053  32.001  -7.149  1.00  0.00     0.030 A
HETATM    3  C7  UNL     1      -5.742  31.629  -8.261  1.00  0.00     0.005 A
HETATM    4  C8  UNL     1      -6.336  30.407  -8.333  1.00  0.00     0.030 A
HETATM    5  C9  UNL     1      -6.248  29.517  -7.260  1.00  0.00     0.046 A
HETATM    6  N3  UNL     1      -6.869  28.336  -7.378  1.00  0.00    -0.364 N
ATOM      7  H3  UNL     1      -7.371  28.105  -8.235  1.00  0.00     0.165 HD
HETATM    8  C10 UNL     1      -6.828  27.469  -6.379  1.00  0.00     0.106 A
HETATM    9  C11 UNL     1      -6.156  27.733  -5.174  1.00  0.00     0.050 A
HETATM   10  C24 UNL     1      -5.512  28.938  -5.004  1.00  0.00     0.062 A
HETATM   11  C32 UNL     1      -5.558  29.848  -6.096  1.00  0.00     0.045 A
ENDROOT
BRANCH   9  12
HETATM   12  C12 UNL     1      -5.948  26.548  -4.363  1.00  0.00     0.111 C
HETATM   13  N4  UNL     1      -6.028  26.641  -3.127  1.00  0.00    -0.385 N
ATOM     14  H42 UNL     1      -6.156  27.593  -2.783  1.00  0.00     0.157 HD
ATOM     15  H41 UNL     1      -5.882  25.807  -2.557  1.00  0.00     0.157 HD
BRANCH  12  16
HETATM   16  N5  UNL     1      -5.768  25.209  -4.847  1.00  0.00    -0.351 N
HETATM   17  C13 UNL     1      -6.152  24.089  -3.922  1.00  0.00     0.162 C
HETATM   18  C14 UNL     1      -7.051  23.276  -4.813  1.00  0.00     0.190 C
HETATM   19  F1  UNL     1      -8.305  23.848  -4.904  1.00  0.00    -0.248 F
HETATM   20  C15 UNL     1      -6.356  23.363  -6.133  1.00  0.00     0.073 C
HETATM   21  C16 UNL     1      -5.355  24.538  -6.004  1.00  0.00     0.180 C
BRANCH  21  22
HETATM   22  C17 UNL     1      -4.034  23.851  -5.804  1.00  0.00     0.240 C
HETATM   23  O1  UNL     1      -3.154  24.296  -5.006  1.00  0.00    -0.271 OA
HETATM   24  N6  UNL     1      -3.725  22.661  -6.512  1.00  0.00    -0.358 N
ATOM     25  H6  UNL     1      -4.386  22.250  -7.171  1.00  0.00     0.162 HD
BRANCH  24  26
HETATM   26  C18 UNL     1      -2.424  22.047  -6.262  1.00  0.00     0.152 C
BRANCH  26  27
HETATM   27  C19 UNL     1      -1.852  21.414  -7.487  1.00  0.00     0.292 C
BRANCH  27  28
HETATM   28  N7  UNL     1      -0.504  21.834  -7.700  1.00  0.00     0.093 N
HETATM   29  C20 UNL     1       0.312  20.664  -8.054  1.00  0.00     0.291 C
HETATM   30  C21 UNL     1       1.689  21.110  -8.417  1.00  0.00     0.144 C
HETATM   31  N8  UNL     1       2.271  22.021  -7.482  1.00  0.00    -0.418 N
HETATM   32  C22 UNL     1       1.414  23.075  -7.031  1.00  0.00     0.144 C
ATOM     33  H8  UNL     1       3.233  21.927  -7.158  1.00  0.00     0.153 HD
HETATM   34  C23 UNL     1       0.111  22.457  -6.552  1.00  0.00     0.291 C
ENDBRANCH  27  28
ENDBRANCH  26  27
ENDBRANCH  24  26
ENDBRANCH  21  22
ENDBRANCH  12  16
ENDBRANCH   9  12
BRANCH  10  35
HETATM   35  N9  UNL     1      -5.199  29.457  -3.882  1.00  0.00    -0.368 N
HETATM   36  C25 UNL     1      -5.732  29.941  -2.727  1.00  0.00     0.066 C
ATOM     37  H9  UNL     1      -4.184  29.540  -3.833  1.00  0.00     0.165 HD
BRANCH  36  38
HETATM   38  C26 UNL     1      -5.468  29.386  -1.383  1.00  0.00     0.024 C
HETATM   39  C27 UNL     1      -6.853  29.172  -0.667  1.00  0.00     0.010 C
HETATM   40  C28 UNL     1      -6.518  28.417   0.591  1.00  0.00     0.001 C
HETATM   41  C29 UNL     1      -5.872  29.443   1.524  1.00  0.00     0.000 C
HETATM   42  C30 UNL     1      -4.568  29.824   0.924  1.00  0.00     0.001 C
HETATM   43  C31 UNL     1      -4.658  30.298  -0.518  1.00  0.00     0.010 C
ENDBRANCH  36  38
ENDBRANCH  10  35
BRANCH   1  44
HETATM   44  N2  UNL     1      -4.062  31.417  -5.042  1.00  0.00    -0.387 N
ATOM     45  H2  UNL     1      -3.527  30.645  -4.644  1.00  0.00     0.159 HD
BRANCH  44  46
HETATM   46  C4  UNL     1      -3.803  32.719  -4.494  1.00  0.00     0.150 C
BRANCH  46  47
HETATM   47  C3  UNL     1      -3.346  32.783  -3.096  1.00  0.00     0.290 C
BRANCH  47  48
HETATM   48  N1  UNL     1      -2.014  32.279  -2.834  1.00  0.00     0.081 N
HETATM   49  C1  UNL     1      -1.059  33.198  -3.510  1.00  0.00     0.309 C
HETATM   50  C2  UNL     1      -1.729  32.453  -1.376  1.00  0.00     0.309 C
ENDBRANCH  47  48
ENDBRANCH  46  47
ENDBRANCH  44  46
ENDBRANCH   1  44
TORSDOF 12
ENDMDL