MODEL 5
REMARK VINA RESULT: -8.612913753      1.949      2.711
REMARK  15 active torsions:
REMARK  status: ('A' for Active; 'I' for Inactive)
REMARK    1  A    between atoms: C2_2  and  C3_3
REMARK    2  A    between atoms: C3_3  and  C4_4
REMARK    3  A    between atoms: C4_4  and  C5_5
REMARK    4  A    between atoms: C6_8  and  N2_9
REMARK    5  A    between atoms: N2_9  and  C7_11
REMARK    6  A    between atoms: C7_11  and  C8_12
REMARK    7  A    between atoms: C8_12  and  C9_13
REMARK    8  A    between atoms: C8_12  and  N3_20
REMARK    9  A    between atoms: C9_13  and  C10_14
REMARK   10  A    between atoms: N3_20  and  S1_22
REMARK   11  A    between atoms: S1_22  and  C16_25
REMARK   12  A    between atoms: N4_32  and  N5_33
REMARK   13  A    between atoms: C23_37  and  C24_38
REMARK   14  A    between atoms: C24_38  and  C25_39
REMARK   15  A    between atoms: C25_39  and  O3_40
ROOT
HETATM    1  C5  UNL     1      -6.799  28.686  -0.479  1.00  0.00     0.074 A
HETATM    2  N1  UNL     1      -6.176  28.760  -1.665  1.00  0.00    -0.188 N
ATOM      3  H1  UNL     1      -5.541  29.502  -1.960  1.00  0.00     0.184 HD
HETATM    4  C6  UNL     1      -6.537  27.675  -2.409  1.00  0.00     0.700 A
HETATM    5  N4  UNL     1      -7.389  26.953  -1.637  1.00  0.00    -0.091 N
HETATM    6  C22 UNL     1      -7.569  27.542  -0.457  1.00  0.00     0.097 A
HETATM    7  C23 UNL     1      -8.314  27.162   0.548  1.00  0.00     0.011 C
ENDROOT
BRANCH   4   8
HETATM    8  N2  UNL     1      -6.091  27.492  -3.575  1.00  0.00    -0.222 N
ATOM      9  H2  UNL     1      -5.130  27.157  -3.643  1.00  0.00     0.177 HD
BRANCH   8  10
HETATM   10  C7  UNL     1      -6.773  27.696  -4.809  1.00  0.00     0.164 C
BRANCH  10  11
HETATM   11  C8  UNL     1      -6.056  26.948  -5.947  1.00  0.00     0.112 C
BRANCH  11  12
HETATM   12  C9  UNL     1      -5.500  27.961  -6.915  1.00  0.00     0.032 C
BRANCH  12  13
HETATM   13  C10 UNL     1      -6.547  28.712  -7.690  1.00  0.00    -0.013 C
HETATM   14  C11 UNL     1      -6.447  28.317  -9.141  1.00  0.00     0.005 C
HETATM   15  C12 UNL     1      -7.285  29.206 -10.028  1.00  0.00     0.000 C
HETATM   16  C13 UNL     1      -6.839  30.627  -9.828  1.00  0.00     0.000 C
HETATM   17  C14 UNL     1      -7.140  31.028  -8.421  1.00  0.00     0.000 C
HETATM   18  C15 UNL     1      -6.290  30.194  -7.495  1.00  0.00     0.005 C
ENDBRANCH  12  13
ENDBRANCH  11  12
BRANCH  11  19
HETATM   19  N3  UNL     1      -5.019  26.172  -5.326  1.00  0.00    -0.309 N
ATOM     20  H3  UNL     1      -4.101  26.562  -5.110  1.00  0.00     0.172 HD
BRANCH  19  21
HETATM   21  S1  UNL     1      -5.425  24.559  -4.974  1.00  0.00     0.259 S
HETATM   22  O1  UNL     1      -6.761  24.282  -5.645  1.00  0.00    -0.201 OA
HETATM   23  O2  UNL     1      -5.563  24.299  -3.501  1.00  0.00    -0.201 OA
BRANCH  21  24
HETATM   24  C16 UNL     1      -4.252  23.494  -5.662  1.00  0.00     0.079 A
HETATM   25  C17 UNL     1      -2.897  23.736  -5.440  1.00  0.00     0.027 A
HETATM   26  C18 UNL     1      -1.938  22.907  -5.979  1.00  0.00     0.025 A
HETATM   27  C19 UNL     1      -2.270  21.814  -6.753  1.00  0.00     0.034 A
HETATM   28 CL1  UNL     1      -1.047  20.765  -7.436  1.00  0.00    -0.084 Cl
HETATM   29  C20 UNL     1      -3.615  21.586  -6.966  1.00  0.00     0.025 A
HETATM   30  C21 UNL     1      -4.584  22.413  -6.427  1.00  0.00     0.027 A
ENDBRANCH  21  24
ENDBRANCH  19  21
ENDBRANCH  11  19
ENDBRANCH  10  11
ENDBRANCH   8  10
ENDBRANCH   4   8
BRANCH   5  31
HETATM   31  N5  UNL     1      -7.938  25.770  -2.099  1.00  0.00    -0.324 N
ATOM     32  H52 UNL     1      -8.904  25.582  -2.367  1.00  0.00     0.178 HD
ATOM     33  H51 UNL     1      -7.365  24.932  -2.204  1.00  0.00     0.178 HD
ENDBRANCH   5  31
BRANCH   1  34
HETATM   34  C4  UNL     1      -6.664  29.595   0.489  1.00  0.00     0.006 C
BRANCH  34  35
HETATM   35  C3  UNL     1      -7.050  31.010   0.291  1.00  0.00     0.029 C
BRANCH  35  36
HETATM   36  C2  UNL     1      -8.516  31.127   0.048  1.00  0.00    -0.001 C
HETATM   37  C1  UNL     1      -9.280  30.824   1.319  1.00  0.00     0.005 C
ENDBRANCH  35  36
ENDBRANCH  34  35
ENDBRANCH   1  34
BRANCH   7  38
HETATM   38  C24 UNL     1      -9.159  25.977   0.668  1.00  0.00     0.067 C
BRANCH  38  39
HETATM   39  C25 UNL     1      -8.354  24.875   1.333  1.00  0.00     0.064 C
HETATM   40  C26 UNL     1      -7.064  25.400   1.885  1.00  0.00     0.057 C
HETATM   41  C27 UNL     1      -6.928  25.154   3.375  1.00  0.00     0.116 C
HETATM   42  N6  UNL     1      -7.192  23.804   3.767  1.00  0.00    -0.421 N
HETATM   43  C28 UNL     1      -8.252  23.160   3.056  1.00  0.00     0.116 C
ATOM     44  H6  UNL     1      -6.661  23.334   4.502  1.00  0.00     0.153 HD
HETATM   45  C29 UNL     1      -9.144  24.226   2.455  1.00  0.00     0.057 C
BRANCH  39  46
HETATM   46  O3  UNL     1      -8.073  23.858   0.428  1.00  0.00    -0.389 OA
ATOM     47  H3  UNL     1      -8.569  23.076   0.639  1.00  0.00     0.210 HD
ENDBRANCH  39  46
ENDBRANCH  38  39
ENDBRANCH   7  38
TORSDOF 15
ENDMDL