MODEL 1
REMARK VINA RESULT: -9.017914284      0.000      0.000
REMARK  14 active torsions:
REMARK  status: ('A' for Active; 'I' for Inactive)
REMARK    1  A    between atoms: C2_2  and  C3_3
REMARK    2  A    between atoms: C3_3  and  N1_4
REMARK    3  A    between atoms: C6_7  and  N2_8
REMARK    4  A    between atoms: N2_8  and  C7_10
REMARK    5  A    between atoms: C8_13  and  N4_14
REMARK    6  A    between atoms: N4_14  and  C9_16
REMARK    7  A    between atoms: C9_16  and  C10_17
REMARK    8  A    between atoms: C10_17  and  C11_18
REMARK    9  A    between atoms: C11_18  and  N5_19
REMARK       I    between atoms: N5_19  and  C12_21
REMARK   10  A    between atoms: C12_21  and  C13_23
REMARK   11  A    between atoms: C13_23  and  C14_24
REMARK   12  A    between atoms: C14_24  and  C15_25
REMARK   13  A    between atoms: C15_25  and  N6_26
REMARK   14  A    between atoms: C25_43  and  O3_44
ROOT
HETATM    1  C7  UNL     1      -7.143  26.309  -2.355  1.00  0.00     0.153 A
HETATM    2  N3  UNL     1      -7.500  25.133  -2.864  1.00  0.00    -0.174 N
ATOM      3  H3  UNL     1      -7.728  24.371  -2.224  1.00  0.00     0.186 HD
HETATM    4  C8  UNL     1      -7.571  24.907  -4.195  1.00  0.00     0.680 A
HETATM    5  N7  UNL     1      -7.274  25.907  -5.001  1.00  0.00    -0.188 N
ATOM      6  H7  UNL     1      -7.332  25.727  -6.003  1.00  0.00     0.184 HD
HETATM    7  C16 UNL     1      -6.892  27.172  -4.614  1.00  0.00     0.097 A
HETATM    8  C17 UNL     1      -6.522  28.115  -5.620  1.00  0.00     0.003 A
HETATM    9  C18 UNL     1      -5.904  27.561  -6.760  1.00  0.00     0.016 A
HETATM   10  C19 UNL     1      -5.572  28.302  -7.867  1.00  0.00     0.023 A
HETATM   11  C20 UNL     1      -5.843  29.649  -7.895  1.00  0.00     0.044 A
HETATM   12 BR1  UNL     1      -5.381  30.701  -9.428  1.00  0.00    -0.048 Br
HETATM   13  C21 UNL     1      -6.446  30.188  -6.789  1.00  0.00     0.093 A
HETATM   14  C22 UNL     1      -6.794  29.448  -5.644  1.00  0.00    -0.009 A
HETATM   15  C23 UNL     1      -7.466  30.394  -4.723  1.00  0.00     0.069 C
HETATM   16  C24 UNL     1      -7.907  31.505  -5.705  1.00  0.00     0.180 C
HETATM   17  O2  UNL     1      -6.809  31.530  -6.614  1.00  0.00    -0.349 OA
HETATM   18  C25 UNL     1      -6.831  27.349  -3.261  1.00  0.00     0.138 A
ENDROOT
BRANCH   4  19
HETATM   19  N4  UNL     1      -7.922  23.748  -4.674  1.00  0.00    -0.226 N
ATOM     20  H4  UNL     1      -8.765  23.276  -4.349  1.00  0.00     0.177 HD
BRANCH  19  21
HETATM   21  C9  UNL     1      -7.076  23.156  -5.682  1.00  0.00     0.139 C
BRANCH  21  22
HETATM   22  C10 UNL     1      -5.755  22.689  -5.101  1.00  0.00     0.040 C
BRANCH  22  23
HETATM   23  C11 UNL     1      -4.601  23.449  -5.738  1.00  0.00     0.124 C
BRANCH  23  24
HETATM   24  N5  UNL     1      -3.717  22.531  -6.394  1.00  0.00    -0.361 N
HETATM   25  C12 UNL     1      -2.330  22.583  -6.176  1.00  0.00     0.217 C
HETATM   26  O1  UNL     1      -1.847  23.443  -5.395  1.00  0.00    -0.274 OA
ATOM     27  H5  UNL     1      -4.100  21.830  -7.028  1.00  0.00     0.162 HD
BRANCH  25  28
HETATM   28  C13 UNL     1      -1.453  21.616  -6.876  1.00  0.00     0.104 C
BRANCH  28  29
HETATM   29  C14 UNL     1      -0.387  22.331  -7.654  1.00  0.00     0.036 C
BRANCH  29  30
HETATM   30  C15 UNL     1       0.935  22.002  -6.950  1.00  0.00     0.230 C
BRANCH  30  31
HETATM   31  N6  UNL     1       1.187  23.061  -6.005  1.00  0.00    -0.079 N
ATOM     32  H63 UNL     1       0.423  23.734  -5.946  1.00  0.00     0.274 HD
ATOM     33  H62 UNL     1       1.161  22.746  -5.035  1.00  0.00     0.274 HD
ATOM     34  H61 UNL     1       2.077  23.487  -6.262  1.00  0.00     0.274 HD
ENDBRANCH  30  31
ENDBRANCH  29  30
ENDBRANCH  28  29
ENDBRANCH  25  28
ENDBRANCH  23  24
ENDBRANCH  22  23
ENDBRANCH  21  22
ENDBRANCH  19  21
ENDBRANCH   4  19
BRANCH   1  35
HETATM   35  N2  UNL     1      -7.061  26.588  -1.112  1.00  0.00    -0.369 N
ATOM     36  H2  UNL     1      -6.117  26.604  -0.727  1.00  0.00     0.161 HD
BRANCH  35  37
HETATM   37  C6  UNL     1      -8.101  26.879  -0.191  1.00  0.00     0.086 C
HETATM   38  C5  UNL     1      -7.681  27.797   0.925  1.00  0.00     0.055 C
HETATM   39  C4  UNL     1      -7.676  27.024   2.211  1.00  0.00     0.275 C
HETATM   40  N1  UNL     1      -6.907  25.821   2.140  1.00  0.00     0.091 N
HETATM   41  C27 UNL     1      -7.369  24.947   1.116  1.00  0.00     0.275 C
HETATM   42  C26 UNL     1      -8.557  25.542   0.410  1.00  0.00     0.055 C
BRANCH  40  43
HETATM   43  C3  UNL     1      -6.759  25.182   3.434  1.00  0.00     0.299 C
BRANCH  43  44
HETATM   44  C2  UNL     1      -7.496  23.905   3.526  1.00  0.00    -0.007 C
HETATM   45  C1  UNL     1      -7.358  23.108   4.589  1.00  0.00     0.008 C
ENDBRANCH  43  44
ENDBRANCH  40  43
ENDBRANCH  35  37
ENDBRANCH   1  35
BRANCH  18  46
HETATM   46  O3  UNL     1      -6.451  28.557  -2.711  1.00  0.00    -0.355 OA
ATOM     47  H3  UNL     1      -5.569  28.853  -2.902  1.00  0.00     0.218 HD
ENDBRANCH  18  46
TORSDOF 14
ENDMDL