MODEL 5
REMARK VINA RESULT: -6.645682159      2.973      8.290
REMARK  15 active torsions:
REMARK  status: ('A' for Active; 'I' for Inactive)
REMARK    1  A    between atoms: C3_3  and  C4_4
REMARK    2  A    between atoms: C5_5  and  C6_6
REMARK    3  A    between atoms: C7_7  and  C8_8
REMARK    4  A    between atoms: C8_8  and  C9_9
REMARK       I    between atoms: C9_9  and  N1_11
REMARK       I    between atoms: N1_11  and  C10_13
REMARK    5  A    between atoms: C10_13  and  C11_15
REMARK    6  A    between atoms: C11_15  and  N2_16
REMARK    7  A    between atoms: C15_20  and  C16_21
REMARK    8  A    between atoms: C16_21  and  C17_22
REMARK    9  A    between atoms: C16_21  and  N3_29
REMARK   10  A    between atoms: C17_22  and  C18_23
REMARK       I    between atoms: N3_29  and  C24_31
REMARK   11  A    between atoms: C24_31  and  C25_33
REMARK   12  A    between atoms: C25_33  and  N4_36
REMARK   13  A    between atoms: C28_41  and  C29_42
REMARK   14  A    between atoms: C29_42  and  O5_43
REMARK   15  A    between atoms: C30_45  and  O6_46
ROOT
HETATM    1  C1  UNL     1      -7.122  32.778  -1.900  1.00  0.00     0.112 C
HETATM    2  C2  UNL     1      -8.070  32.143  -0.992  1.00  0.00    -0.106 C
HETATM    3  C3  UNL     1      -8.863  31.595  -0.238  1.00  0.00    -0.079 C
ENDROOT
BRANCH   3   4
HETATM    4  C4  UNL     1      -9.814  30.946   0.623  1.00  0.00     0.061 C
HETATM    5  C5  UNL     1     -10.010  29.644   0.591  1.00  0.00    -0.008 C
BRANCH   5   6
HETATM    6  C6  UNL     1     -10.925  28.857   1.387  1.00  0.00     0.075 C
HETATM    7  C7  UNL     1     -11.213  27.470   0.921  1.00  0.00     0.141 C
HETATM    8  O4  UNL     1     -12.416  27.420   0.215  1.00  0.00    -0.374 OA
HETATM    9  C28 UNL     1     -13.443  27.449   1.186  1.00  0.00     0.177 C
HETATM   10  C30 UNL     1     -13.121  28.427   2.293  1.00  0.00     0.183 C
HETATM   11  C31 UNL     1     -12.286  29.550   1.639  1.00  0.00     0.211 C
HETATM   12  F1  UNL     1     -12.939  29.850   0.487  1.00  0.00    -0.246 F
BRANCH   7  13
HETATM   13  C8  UNL     1     -10.094  26.786   0.163  1.00  0.00     0.136 C
BRANCH  13  14
HETATM   14  C9  UNL     1      -9.203  26.022   1.076  1.00  0.00     0.226 C
HETATM   15  O1  UNL     1      -9.466  26.051   2.347  1.00  0.00    -0.273 OA
HETATM   16  N1  UNL     1      -8.093  25.259   0.734  1.00  0.00    -0.296 N
HETATM   17  C10 UNL     1      -7.560  24.994  -0.531  1.00  0.00     0.252 C
ATOM     18  H1  UNL     1      -7.596  24.833   1.517  1.00  0.00     0.171 HD
HETATM   19  O2  UNL     1      -6.549  24.200  -0.639  1.00  0.00    -0.271 OA
BRANCH  17  20
HETATM   20  C11 UNL     1      -8.073  25.557  -1.778  1.00  0.00     0.376 C
BRANCH  20  21
HETATM   21  N2  UNL     1      -6.904  25.943  -2.650  1.00  0.00     0.107 N
HETATM   22  C12 UNL     1      -6.525  24.728  -3.365  1.00  0.00     0.274 C
HETATM   23  C13 UNL     1      -6.479  25.073  -4.813  1.00  0.00     0.033 C
HETATM   24  C14 UNL     1      -7.441  26.232  -4.947  1.00  0.00     0.043 C
HETATM   25  C15 UNL     1      -7.395  26.921  -3.593  1.00  0.00     0.269 C
BRANCH  25  26
HETATM   26  C16 UNL     1      -6.482  28.102  -3.605  1.00  0.00     0.023 C
BRANCH  26  27
HETATM   27  C17 UNL     1      -6.559  29.048  -2.460  1.00  0.00     0.059 C
BRANCH  27  28
HETATM   28  C18 UNL     1      -5.967  28.657  -1.147  1.00  0.00    -0.009 C
HETATM   29  C19 UNL     1      -6.790  28.608   0.069  1.00  0.00     0.005 C
HETATM   30  C20 UNL     1      -5.978  29.022   1.316  1.00  0.00     0.000 C
HETATM   31  C21 UNL     1      -5.509  30.458   1.136  1.00  0.00     0.000 C
HETATM   32  C22 UNL     1      -4.716  30.609  -0.141  1.00  0.00     0.000 C
HETATM   33  C23 UNL     1      -4.620  29.342  -0.918  1.00  0.00     0.005 C
ENDBRANCH  27  28
ENDBRANCH  26  27
BRANCH  26  34
HETATM   34  N3  UNL     1      -6.370  28.713  -4.911  1.00  0.00    -0.330 N
HETATM   35  C24 UNL     1      -5.462  29.516  -5.531  1.00  0.00     0.257 C
HETATM   36  O3  UNL     1      -4.407  29.958  -5.017  1.00  0.00    -0.270 OA
ATOM     37  H3  UNL     1      -7.163  28.489  -5.513  1.00  0.00     0.168 HD
BRANCH  35  38
HETATM   38  C25 UNL     1      -5.671  29.955  -6.961  1.00  0.00     0.196 C
HETATM   39  C26 UNL     1      -5.282  28.890  -7.953  1.00  0.00     0.056 C
HETATM   40  C27 UNL     1      -4.816  31.202  -7.223  1.00  0.00     0.056 C
BRANCH  38  41
HETATM   41  N4  UNL     1      -7.026  30.355  -7.225  1.00  0.00    -0.062 N
ATOM     42  H43 UNL     1      -7.404  30.901  -6.450  1.00  0.00     0.275 HD
ATOM     43  H42 UNL     1      -7.062  31.063  -7.958  1.00  0.00     0.275 HD
ATOM     44  H41 UNL     1      -7.633  29.566  -7.447  1.00  0.00     0.275 HD
ENDBRANCH  38  41
ENDBRANCH  35  38
ENDBRANCH  26  34
ENDBRANCH  25  26
ENDBRANCH  20  21
ENDBRANCH  17  20
ENDBRANCH  13  14
ENDBRANCH   7  13
BRANCH   9  45
HETATM   45  C29 UNL     1     -14.792  27.643   0.568  1.00  0.00     0.198 C
BRANCH  45  46
HETATM   46  O5  UNL     1     -14.826  26.905  -0.624  1.00  0.00    -0.398 OA
ATOM     47  H5  UNL     1     -14.993  27.512  -1.335  1.00  0.00     0.209 HD
ENDBRANCH  45  46
ENDBRANCH   9  45
BRANCH  10  48
HETATM   48  O6  UNL     1     -14.220  29.008   2.874  1.00  0.00    -0.390 OA
ATOM     49  H6  UNL     1     -14.103  29.920   3.111  1.00  0.00     0.210 HD
ENDBRANCH  10  48
ENDBRANCH   5   6
ENDBRANCH   3   4
TORSDOF 15
ENDMDL