MODEL 3
REMARK VINA RESULT: -6.766418686      1.606      2.574
REMARK  12 active torsions:
REMARK  status: ('A' for Active; 'I' for Inactive)
REMARK    1  A    between atoms: C2_2  and  C3_3
REMARK    2  A    between atoms: C3_3  and  C5_5
REMARK    3  A    between atoms: C7_10  and  C8_11
REMARK    4  A    between atoms: C8_11  and  C9_12
REMARK    5  A    between atoms: C9_12  and  S1_13
REMARK    6  A    between atoms: C11_17  and  O2_18
REMARK    7  A    between atoms: C12_20  and  C13_21
REMARK    8  A    between atoms: C13_21  and  C14_22
REMARK    9  A    between atoms: C14_22  and  C15_23
REMARK   10  A    between atoms: C15_23  and  N3_24
REMARK   11  A    between atoms: C21_36  and  C22_37
REMARK   12  A    between atoms: C22_37  and  C25_40
ROOT
HETATM    1  C5  UNL     1      -6.241  25.112  -4.379  1.00  0.00     0.188 C
HETATM    2  N1  UNL     1      -5.446  25.312  -3.214  1.00  0.00    -0.345 N
ATOM      3  H1  UNL     1      -4.455  25.105  -3.338  1.00  0.00     0.163 HD
HETATM    4  C6  UNL     1      -5.788  25.741  -1.933  1.00  0.00     0.241 C
HETATM    5  O1  UNL     1      -4.902  26.288  -1.227  1.00  0.00    -0.271 OA
HETATM    6  C7  UNL     1      -7.125  25.625  -1.263  1.00  0.00     0.176 C
HETATM    7  N2  UNL     1      -7.788  26.861  -1.036  1.00  0.00    -0.356 N
ATOM      8  H2  UNL     1      -8.180  27.214  -1.910  1.00  0.00     0.162 HD
HETATM    9  C11 UNL     1      -8.069  27.735  -0.005  1.00  0.00     0.159 C
HETATM   10  C12 UNL     1      -7.332  28.782   0.704  1.00  0.00     0.062 C
HETATM   11  N6  UNL     1      -7.207  30.042  -0.028  1.00  0.00    -0.327 N
ATOM     12  H6  UNL     1      -7.568  30.867   0.451  1.00  0.00     0.168 HD
HETATM   13  C17 UNL     1      -6.665  30.273  -1.286  1.00  0.00     0.222 C
HETATM   14  O3  UNL     1      -7.440  30.855  -2.133  1.00  0.00    -0.273 OA
HETATM   15  C18 UNL     1      -5.321  29.947  -1.797  1.00  0.00     0.103 C
HETATM   16  C19 UNL     1      -5.187  29.883  -3.276  1.00  0.00     0.012 C
HETATM   17  C20 UNL     1      -6.353  29.394  -4.055  1.00  0.00     0.034 C
HETATM   18  C21 UNL     1      -5.977  28.458  -5.177  1.00  0.00     0.141 C
HETATM   19  O4  UNL     1      -6.765  27.365  -5.332  1.00  0.00    -0.314 OA
HETATM   20  C26 UNL     1      -7.122  26.217  -4.789  1.00  0.00     0.282 C
HETATM   21  O5  UNL     1      -8.379  26.023  -4.590  1.00  0.00    -0.263 OA
ENDROOT
BRANCH  10  22
HETATM   22  C13 UNL     1      -6.095  28.456   1.447  1.00  0.00     0.063 C
BRANCH  22  23
HETATM   23  C14 UNL     1      -6.119  28.763   2.924  1.00  0.00     0.026 C
BRANCH  23  24
HETATM   24  C15 UNL     1      -7.509  29.098   3.415  1.00  0.00     0.122 C
BRANCH  24  25
HETATM   25  N3  UNL     1      -8.007  28.141   4.360  1.00  0.00    -0.367 N
HETATM   26  C16 UNL     1      -9.256  27.758   4.227  1.00  0.00     0.196 C
HETATM   27  N4  UNL     1      -9.750  26.809   5.163  1.00  0.00    -0.067 NA
HETATM   28  N5  UNL     1     -10.071  28.274   3.191  1.00  0.00    -0.067 NA
ATOM     29  H3  UNL     1      -7.415  27.772   5.104  1.00  0.00     0.161 HD
ENDBRANCH  24  25
ENDBRANCH  23  24
ENDBRANCH  22  23
ENDBRANCH  10  22
BRANCH   9  30
HETATM   30  O2  UNL     1      -9.290  27.615   0.461  1.00  0.00    -0.345 OA
ATOM     31  H2  UNL     1      -9.433  28.091   1.270  1.00  0.00     0.219 HD
ENDBRANCH   9  30
BRANCH   6  32
HETATM   32  C8  UNL     1      -7.041  24.659  -0.098  1.00  0.00     0.045 C
BRANCH  32  33
HETATM   33  C9  UNL     1      -8.435  24.193   0.293  1.00  0.00     0.076 C
BRANCH  33  34
HETATM   34  S1  UNL     1      -8.590  24.266   2.105  1.00  0.00    -0.173 SA
HETATM   35  C10 UNL     1      -7.114  24.962   2.862  1.00  0.00     0.089 C
ENDBRANCH  33  34
ENDBRANCH  32  33
ENDBRANCH   6  32
BRANCH   1  36
HETATM   36  C3  UNL     1      -5.420  24.700  -5.590  1.00  0.00     0.014 C
HETATM   37  C4  UNL     1      -6.108  23.503  -6.207  1.00  0.00     0.012 C
BRANCH  36  38
HETATM   38  C2  UNL     1      -4.029  24.276  -5.200  1.00  0.00     0.002 C
HETATM   39  C1  UNL     1      -3.642  23.010  -5.936  1.00  0.00     0.005 C
ENDBRANCH  36  38
ENDBRANCH   1  36
BRANCH  18  40
HETATM   40  C22 UNL     1      -6.115  29.256  -6.486  1.00  0.00    -0.008 C
HETATM   41  C23 UNL     1      -7.162  30.325  -6.256  1.00  0.00     0.018 C
HETATM   42  C24 UNL     1      -4.806  30.013  -6.752  1.00  0.00     0.018 C
BRANCH  40  43
HETATM   43  C25 UNL     1      -6.503  28.433  -7.659  1.00  0.00     0.126 C
HETATM   44 CL1  UNL     1      -5.147  28.420  -8.853  1.00  0.00    -0.130 Cl
ENDBRANCH  40  43
ENDBRANCH  18  40
TORSDOF 12
ENDMDL