MODEL 5
REMARK VINA RESULT: -8.958864347      2.024      5.616
REMARK  12 active torsions:
REMARK  status: ('A' for Active; 'I' for Inactive)
REMARK    1  A    between atoms: C2_2  and  C3_3
REMARK    2  A    between atoms: C3_3  and  C4_4
REMARK    3  A    between atoms: C4_4  and  N1_5
REMARK       I    between atoms: N1_5  and  C5_7
REMARK    4  A    between atoms: C5_7  and  C6_9
REMARK    5  A    between atoms: C6_9  and  N2_10
REMARK    6  A    between atoms: C6_9  and  C24_42
REMARK       I    between atoms: N2_10  and  C7_12
REMARK    7  A    between atoms: C7_12  and  O3_14
REMARK    8  A    between atoms: O3_14  and  C8_15
REMARK    9  A    between atoms: C10_17  and  N3_18
REMARK       I    between atoms: N3_18  and  C11_20
REMARK   10  A    between atoms: C11_20  and  C12_22
REMARK   11  A    between atoms: C15_25  and  C16_26
REMARK   12  A    between atoms: C16_26  and  C17_28
REMARK       I    between atoms: C17_28  and  N4_30
ROOT
HETATM    1  C8  UNL     1      -9.116  25.389   1.397  1.00  0.00     0.147 C
HETATM    2  C9  UNL     1     -10.558  25.701   1.036  1.00  0.00     0.058 C
HETATM    3  C10 UNL     1     -10.785  27.150   1.421  1.00  0.00     0.087 C
HETATM    4  C14 UNL     1      -9.449  27.797   1.548  1.00  0.00     0.040 C
HETATM    5  C15 UNL     1      -8.397  26.685   1.474  1.00  0.00     0.097 C
ENDROOT
BRANCH   1   6
HETATM    6  O3  UNL     1      -8.554  24.447   0.506  1.00  0.00    -0.298 OA
BRANCH   6   7
HETATM    7  C7  UNL     1      -7.721  24.794  -0.527  1.00  0.00     0.361 C
HETATM    8  N2  UNL     1      -8.116  25.452  -1.702  1.00  0.00    -0.323 N
ATOM      9  H2  UNL     1      -9.094  25.717  -1.825  1.00  0.00     0.165 HD
HETATM   10  O2  UNL     1      -6.504  24.487  -0.395  1.00  0.00    -0.238 OA
BRANCH   8  11
HETATM   11  C6  UNL     1      -7.159  25.763  -2.743  1.00  0.00     0.183 C
BRANCH  11  12
HETATM   12  C5  UNL     1      -7.284  24.821  -3.871  1.00  0.00     0.240 C
HETATM   13  N1  UNL     1      -6.364  23.829  -4.255  1.00  0.00    -0.359 N
ATOM     14  H1  UNL     1      -5.500  23.716  -3.725  1.00  0.00     0.162 HD
HETATM   15  O1  UNL     1      -8.338  24.887  -4.616  1.00  0.00    -0.271 OA
BRANCH  13  16
HETATM   16  C4  UNL     1      -6.623  22.953  -5.405  1.00  0.00     0.122 C
BRANCH  16  17
HETATM   17  C3  UNL     1      -5.596  23.099  -6.476  1.00  0.00     0.019 C
BRANCH  17  18
HETATM   18  C2  UNL     1      -4.219  23.071  -5.896  1.00  0.00    -0.003 C
HETATM   19  C1  UNL     1      -3.307  22.101  -6.620  1.00  0.00     0.005 C
ENDBRANCH  17  18
ENDBRANCH  16  17
ENDBRANCH  13  16
ENDBRANCH  11  12
BRANCH  11  20
HETATM   20  C24 UNL     1      -7.051  27.185  -3.104  1.00  0.00     0.018 C
HETATM   21  C25 UNL     1      -6.249  27.980  -2.065  1.00  0.00     0.007 C
HETATM   22  C26 UNL     1      -6.195  29.394  -2.514  1.00  0.00     0.000 C
HETATM   23  C27 UNL     1      -6.931  29.730  -3.763  1.00  0.00     0.000 C
HETATM   24  C28 UNL     1      -6.646  28.766  -4.897  1.00  0.00     0.000 C
HETATM   25  C29 UNL     1      -6.248  27.411  -4.385  1.00  0.00     0.007 C
ENDBRANCH  11  20
ENDBRANCH   8  11
ENDBRANCH   6   7
ENDBRANCH   1   6
BRANCH   5  26
HETATM   26  C16 UNL     1      -7.443  26.810   2.601  1.00  0.00     0.223 C
HETATM   27  O5  UNL     1      -7.208  27.966   3.031  1.00  0.00    -0.287 OA
BRANCH  26  28
HETATM   28  C17 UNL     1      -6.779  25.688   3.220  1.00  0.00     0.291 C
HETATM   29  O6  UNL     1      -5.696  25.314   2.664  1.00  0.00    -0.264 OA
HETATM   30  N4  UNL     1      -7.213  24.986   4.358  1.00  0.00    -0.328 N
HETATM   31  C18 UNL     1      -8.429  25.330   5.016  1.00  0.00     0.188 C
HETATM   32  C22 UNL     1      -6.349  23.894   4.844  1.00  0.00     0.160 C
HETATM   33  C19 UNL     1      -8.740  24.558   6.216  1.00  0.00     0.075 A
HETATM   34  N5  UNL     1      -9.437  24.415   7.336  1.00  0.00    -0.300 N
HETATM   35  C20 UNL     1      -8.127  23.376   6.515  1.00  0.00     0.121 A
HETATM   36  N6  UNL     1      -8.843  23.261   7.634  1.00  0.00    -0.295 N
ATOM     37  H5  UNL     1     -10.155  24.976   7.794  1.00  0.00     0.186 HD
ATOM     38  H6  UNL     1      -8.908  22.582   8.391  1.00  0.00     0.187 HD
HETATM   39  C21 UNL     1      -7.107  22.867   5.581  1.00  0.00     0.201 C
HETATM   40  O7  UNL     1      -6.928  21.632   5.453  1.00  0.00    -0.288 OA
HETATM   41  C23 UNL     1      -5.230  24.453   5.697  1.00  0.00     0.041 C
ENDBRANCH  26  28
ENDBRANCH   5  26
BRANCH   3  42
HETATM   42  N3  UNL     1     -11.696  27.804   0.515  1.00  0.00    -0.356 N
HETATM   43  C11 UNL     1     -13.084  27.642   0.640  1.00  0.00     0.217 C
HETATM   44  O4  UNL     1     -13.526  26.913   1.565  1.00  0.00    -0.274 OA
ATOM     45  H3  UNL     1     -11.325  28.393  -0.230  1.00  0.00     0.162 HD
BRANCH  43  46
HETATM   46  C12 UNL     1     -14.026  28.302  -0.283  1.00  0.00     0.098 C
HETATM   47  C13 UNL     1     -14.685  27.243  -1.136  1.00  0.00     0.014 C
ENDBRANCH  43  46
ENDBRANCH   3  42
TORSDOF 12
ENDMDL