MODEL 4
REMARK VINA RESULT: -7.028041842      1.806      2.928
REMARK  14 active torsions:
REMARK  status: ('A' for Active; 'I' for Inactive)
REMARK    1  A    between atoms: C2_2  and  C3_3
REMARK    2  A    between atoms: C3_3  and  C4_4
REMARK    3  A    between atoms: C4_4  and  C5_5
REMARK    4  A    between atoms: C5_5  and  C6_6
REMARK    5  A    between atoms: C6_6  and  C7_7
REMARK    6  A    between atoms: C15_17  and  O3_18
REMARK    7  A    between atoms: C16_22  and  C17_23
REMARK    8  A    between atoms: C17_23  and  O4_24
REMARK    9  A    between atoms: C19_27  and  C20_28
REMARK   10  A    between atoms: C23_35  and  C24_36
REMARK   11  A    between atoms: C24_36  and  C25_37
REMARK   12  A    between atoms: C25_37  and  C26_38
REMARK   13  A    between atoms: C26_38  and  N3_39
REMARK   14  A    between atoms: C28_44  and  O6_45
ROOT
HETATM    1  C7  UNL     1      -9.872  27.179   1.304  1.00  0.00     0.166 A
HETATM    2  O1  UNL     1     -10.046  28.447   1.795  1.00  0.00    -0.307 OA
HETATM    3  C8  UNL     1      -8.937  29.252   1.440  1.00  0.00     0.295 A
HETATM    4  O2  UNL     1      -8.776  30.435   1.814  1.00  0.00    -0.259 OA
HETATM    5  C9  UNL     1      -8.035  28.483   0.577  1.00  0.00     0.060 A
HETATM    6  C10 UNL     1      -6.820  28.787  -0.115  1.00  0.00    -0.003 A
HETATM    7  C11 UNL     1      -6.227  27.848  -0.935  1.00  0.00     0.029 A
HETATM    8  C12 UNL     1      -6.827  26.627  -1.065  1.00  0.00     0.016 A
HETATM    9  C13 UNL     1      -8.029  26.353  -0.361  1.00  0.00     0.026 A
HETATM   10  C14 UNL     1      -8.646  27.259   0.459  1.00  0.00    -0.011 A
HETATM   11  C15 UNL     1      -6.458  25.432  -1.867  1.00  0.00     0.146 C
HETATM   12  N1  UNL     1      -6.127  25.319  -3.251  1.00  0.00    -0.364 N
ATOM     13  H1  UNL     1      -5.214  24.917  -3.462  1.00  0.00     0.162 HD
HETATM   14  C16 UNL     1      -6.921  25.701  -4.375  1.00  0.00     0.107 C
HETATM   15  C18 UNL     1      -7.243  27.168  -4.483  1.00  0.00     0.035 C
HETATM   16  C19 UNL     1      -6.077  28.031  -4.850  1.00  0.00     0.025 C
HETATM   17  C21 UNL     1      -6.338  29.485  -4.421  1.00  0.00     0.110 C
HETATM   18  C22 UNL     1      -5.053  30.174  -4.152  1.00  0.00     0.222 C
HETATM   19  O5  UNL     1      -4.273  30.191  -5.182  1.00  0.00    -0.273 OA
HETATM   20  N2  UNL     1      -4.594  30.775  -2.996  1.00  0.00    -0.327 N
ATOM     21  H2  UNL     1      -3.735  30.359  -2.638  1.00  0.00     0.168 HD
HETATM   22  C23 UNL     1      -5.076  31.866  -2.193  1.00  0.00     0.063 C
HETATM   23  C28 UNL     1      -4.760  31.723  -0.746  1.00  0.00     0.165 C
HETATM   24  N6  UNL     1      -5.119  30.686   0.138  1.00  0.00    -0.340 N
HETATM   25  C29 UNL     1      -3.999  30.149   0.995  1.00  0.00     0.158 C
HETATM   26  C30 UNL     1      -6.418  30.167   0.247  1.00  0.00     0.105 C
ENDROOT
BRANCH  22  27
HETATM   27  C24 UNL     1      -6.356  32.495  -2.541  1.00  0.00     0.063 C
BRANCH  27  28
HETATM   28  C25 UNL     1      -7.587  31.861  -1.937  1.00  0.00     0.026 C
BRANCH  28  29
HETATM   29  C26 UNL     1      -8.521  32.911  -1.362  1.00  0.00     0.122 C
BRANCH  29  30
HETATM   30  N3  UNL     1      -9.480  32.180  -0.567  1.00  0.00    -0.367 N
HETATM   31  C27 UNL     1     -10.750  32.195  -0.740  1.00  0.00     0.196 C
HETATM   32  N4  UNL     1     -11.336  32.966  -1.778  1.00  0.00    -0.067 NA
HETATM   33  N5  UNL     1     -11.638  31.444   0.101  1.00  0.00    -0.067 NA
ATOM     34  H3  UNL     1      -9.117  31.604   0.193  1.00  0.00     0.161 HD
ENDBRANCH  29  30
ENDBRANCH  28  29
ENDBRANCH  27  28
ENDBRANCH  22  27
BRANCH  23  35
HETATM   35  O6  UNL     1      -4.049  32.672  -0.185  1.00  0.00    -0.344 OA
ATOM     36  H6  UNL     1      -3.228  32.908  -0.600  1.00  0.00     0.219 HD
ENDBRANCH  23  35
BRANCH  16  37
HETATM   37  C20 UNL     1      -5.837  27.940  -6.327  1.00  0.00     0.227 C
HETATM   38  F1  UNL     1      -7.035  27.780  -7.022  1.00  0.00    -0.255 F
ENDBRANCH  16  37
BRANCH  14  39
HETATM   39  C17 UNL     1      -8.197  24.891  -4.560  1.00  0.00     0.189 C
BRANCH  39  40
HETATM   40  O4  UNL     1      -7.921  23.526  -4.449  1.00  0.00    -0.399 OA
ATOM     41  H4  UNL     1      -7.193  23.293  -5.014  1.00  0.00     0.209 HD
ENDBRANCH  39  40
ENDBRANCH  14  39
BRANCH   1  42
HETATM   42  C6  UNL     1     -11.013  26.581   0.546  1.00  0.00     0.037 C
BRANCH  42  43
HETATM   43  C5  UNL     1     -12.107  27.573   0.264  1.00  0.00     0.003 C
BRANCH  43  44
HETATM   44  C4  UNL     1     -13.275  27.269   1.152  1.00  0.00     0.000 C
BRANCH  44  45
HETATM   45  C3  UNL     1     -14.607  27.631   0.540  1.00  0.00    -0.000 C
BRANCH  45  46
HETATM   46  C2  UNL     1     -14.350  28.272  -0.830  1.00  0.00    -0.005 C
HETATM   47  C1  UNL     1     -14.725  29.736  -0.811  1.00  0.00     0.005 C
ENDBRANCH  45  46
ENDBRANCH  44  45
ENDBRANCH  43  44
ENDBRANCH  42  43
ENDBRANCH   1  42
BRANCH  11  48
HETATM   48  O3  UNL     1      -6.413  24.259  -1.264  1.00  0.00    -0.346 OA
ATOM     49  H3  UNL     1      -5.590  23.785  -1.259  1.00  0.00     0.219 HD
ENDBRANCH  11  48
TORSDOF 14
ENDMDL