MODEL 4
REMARK VINA RESULT: -7.738452651      2.478      4.753
REMARK  10 active torsions:
REMARK  status: ('A' for Active; 'I' for Inactive)
REMARK    1  A    between atoms: O1_2  and  C2_3
REMARK    2  A    between atoms: C2_3  and  C3_5
REMARK    3  A    between atoms: C3_5  and  C4_6
REMARK    4  A    between atoms: C8_10  and  O3_11
REMARK    5  A    between atoms: O3_11  and  C9_12
REMARK    6  A    between atoms: C9_12  and  C10_14
REMARK    7  A    between atoms: C10_14  and  O5_17
REMARK    8  A    between atoms: C16_22  and  C17_23
REMARK    9  A    between atoms: C17_23  and  C19_25
REMARK   10  A    between atoms: C24_30  and  O6_32
ROOT
HETATM    1  C4  UNL     1      18.476  -5.919 -42.474  1.00  0.00    -0.030 C
HETATM    2  C5  UNL     1      17.887  -7.279 -42.334  1.00  0.00     0.016 C
HETATM    3  C6  UNL     1      19.612  -5.836 -41.438  1.00  0.00     0.012 C
HETATM    4  C7  UNL     1      20.912  -6.365 -41.791  1.00  0.00     0.034 C
HETATM    5  C8  UNL     1      20.915  -6.933 -43.204  1.00  0.00     0.143 C
HETATM    6  C13 UNL     1      20.399  -5.857 -44.083  1.00  0.00     0.018 C
HETATM    7  C14 UNL     1      21.292  -4.634 -43.712  1.00  0.00     0.021 C
HETATM    8  C15 UNL     1      18.924  -5.479 -43.803  1.00  0.00     0.012 C
HETATM    9  C16 UNL     1      18.165  -5.474 -45.034  1.00  0.00    -0.005 C
HETATM   10  C22 UNL     1      18.966  -4.528 -45.991  1.00  0.00     0.008 C
HETATM   11  C23 UNL     1      20.214  -5.145 -46.479  1.00  0.00     0.038 C
HETATM   12  C24 UNL     1      20.753  -6.135 -45.481  1.00  0.00     0.064 C
HETATM   13  C25 UNL     1      20.595  -7.503 -46.027  1.00  0.00     0.047 C
ENDROOT
BRANCH   5  14
HETATM   14  O3  UNL     1      22.221  -7.343 -43.549  1.00  0.00    -0.313 OA
BRANCH  14  15
HETATM   15  C9  UNL     1      22.800  -8.509 -43.148  1.00  0.00     0.293 C
HETATM   16  O4  UNL     1      22.317  -9.537 -43.636  1.00  0.00    -0.262 OA
BRANCH  15  17
HETATM   17  C10 UNL     1      23.915  -8.585 -42.199  1.00  0.00     0.138 C
HETATM   18  C11 UNL     1      25.192  -8.913 -42.891  1.00  0.00     0.056 C
HETATM   19  C12 UNL     1      24.077  -7.303 -41.397  1.00  0.00     0.056 C
BRANCH  17  20
HETATM   20  O5  UNL     1      23.670  -9.625 -41.291  1.00  0.00    -0.380 OA
ATOM     21  H5  UNL     1      24.464  -9.799 -40.801  1.00  0.00     0.211 HD
ENDBRANCH  17  20
ENDBRANCH  15  17
ENDBRANCH  14  15
ENDBRANCH   5  14
BRANCH  12  22
HETATM   22  O6  UNL     1      22.163  -5.891 -45.590  1.00  0.00    -0.389 OA
ATOM     23  H6  UNL     1      22.303  -5.541 -46.463  1.00  0.00     0.210 HD
ENDBRANCH  12  22
BRANCH   1  24
HETATM   24  C3  UNL     1      17.512  -4.942 -41.785  1.00  0.00     0.120 C
BRANCH  24  25
HETATM   25  C2  UNL     1      16.174  -5.532 -41.522  1.00  0.00     0.259 C
HETATM   26  O2  UNL     1      15.844  -6.133 -40.466  1.00  0.00    -0.265 OA
BRANCH  25  27
HETATM   27  O1  UNL     1      15.161  -5.446 -42.487  1.00  0.00    -0.326 OA
HETATM   28  C1  UNL     1      14.821  -6.538 -43.322  1.00  0.00     0.213 C
ENDBRANCH  25  27
ENDBRANCH  24  25
ENDBRANCH   1  24
BRANCH   9  29
HETATM   29  C17 UNL     1      16.783  -5.116 -45.305  1.00  0.00    -0.011 C
HETATM   30  C18 UNL     1      16.730  -3.905 -46.316  1.00  0.00     0.011 C
BRANCH  29  31
HETATM   31  C19 UNL     1      15.939  -6.086 -46.153  1.00  0.00    -0.019 C
HETATM   32  C20 UNL     1      15.580  -5.352 -47.472  1.00  0.00     0.010 C
HETATM   33  C21 UNL     1      16.709  -7.326 -46.524  1.00  0.00     0.010 C
ENDBRANCH  29  31
ENDBRANCH   9  29
TORSDOF 10
ENDMDL