MODEL 3
REMARK VINA RESULT: -7.869051083      1.765      2.118
REMARK  7 active torsions:
REMARK  status: ('A' for Active; 'I' for Inactive)
REMARK       I    between atoms: C2_2  and  N1_4
REMARK    1  A    between atoms: N1_4  and  C3_6
REMARK    2  A    between atoms: C3_6  and  C4_7
REMARK    3  A    between atoms: C4_7  and  C5_8
REMARK    4  A    between atoms: C5_8  and  O3_10
REMARK    5  A    between atoms: O3_10  and  C6_11
REMARK    6  A    between atoms: C9_14  and  C10_15
REMARK    7  A    between atoms: C10_15  and  O4_16
ROOT
HETATM    1  C6  UNL     1      20.439  -4.912 -42.569  1.00  0.00     0.160 C
HETATM    2  C7  UNL     1      19.540  -5.402 -41.459  1.00  0.00     0.043 C
HETATM    3  C8  UNL     1      18.088  -5.049 -41.669  1.00  0.00     0.077 C
HETATM    4  C9  UNL     1      17.331  -6.129 -42.426  1.00  0.00     0.219 C
HETATM    5  O5  UNL     1      18.085  -7.167 -42.814  1.00  0.00    -0.197 OA
HETATM    6  O6  UNL     1      18.062  -7.630 -43.989  1.00  0.00    -0.218 OA
HETATM    7  C11 UNL     1      17.853  -6.688 -45.026  1.00  0.00     0.151 C
HETATM    8  C12 UNL     1      17.568  -7.497 -46.241  1.00  0.00     0.020 C
HETATM    9  C13 UNL     1      18.361  -7.437 -47.284  1.00  0.00    -0.084 C
HETATM   10  C14 UNL     1      17.981  -8.298 -48.465  1.00  0.00     0.043 C
HETATM   11  C15 UNL     1      19.580  -6.618 -47.438  1.00  0.00     0.034 C
HETATM   12  C16 UNL     1      19.356  -5.381 -46.602  1.00  0.00     0.016 C
HETATM   13  C17 UNL     1      18.976  -5.743 -45.188  1.00  0.00     0.053 C
HETATM   14  C18 UNL     1      20.206  -6.348 -44.592  1.00  0.00    -0.014 C
HETATM   15  C19 UNL     1      20.821  -6.006 -43.500  1.00  0.00    -0.058 C
HETATM   16  C20 UNL     1      22.062  -6.801 -43.126  1.00  0.00     0.046 C
HETATM   17  C21 UNL     1      16.550  -6.019 -44.618  1.00  0.00     0.096 C
HETATM   18  C22 UNL     1      16.135  -4.958 -45.602  1.00  0.00     0.049 C
HETATM   19  C23 UNL     1      15.504  -7.119 -44.656  1.00  0.00     0.049 C
HETATM   20  O7  UNL     1      16.570  -5.496 -43.371  1.00  0.00    -0.337 OA
ENDROOT
BRANCH   1  21
HETATM   21  O3  UNL     1      21.529  -4.156 -42.132  1.00  0.00    -0.311 OA
BRANCH  21  22
HETATM   22  C5  UNL     1      21.511  -3.062 -41.327  1.00  0.00     0.261 C
HETATM   23  O2  UNL     1      21.818  -1.961 -41.841  1.00  0.00    -0.265 OA
BRANCH  22  24
HETATM   24  C4  UNL     1      21.148  -3.144 -39.891  1.00  0.00     0.131 C
BRANCH  24  25
HETATM   25  C3  UNL     1      22.075  -3.995 -39.093  1.00  0.00     0.132 C
BRANCH  25  26
HETATM   26  N1  UNL     1      22.647  -5.084 -39.854  1.00  0.00    -0.361 N
HETATM   27  C2  UNL     1      23.169  -6.249 -39.287  1.00  0.00     0.213 C
HETATM   28  C1  UNL     1      23.749  -7.344 -40.125  1.00  0.00     0.117 C
HETATM   29  O1  UNL     1      23.176  -6.432 -38.043  1.00  0.00    -0.274 OA
ATOM     30  H1  UNL     1      22.672  -4.996 -40.870  1.00  0.00     0.162 HD
ENDBRANCH  25  26
ENDBRANCH  24  25
ENDBRANCH  22  24
ENDBRANCH  21  22
ENDBRANCH   1  21
BRANCH   4  31
HETATM   31  C10 UNL     1      16.314  -6.688 -41.408  1.00  0.00     0.235 C
BRANCH  31  32
HETATM   32  O4  UNL     1      15.655  -5.611 -40.812  1.00  0.00    -0.395 OA
ATOM     33  H4  UNL     1      15.001  -5.956 -40.215  1.00  0.00     0.209 HD
ENDBRANCH  31  32
ENDBRANCH   4  31
TORSDOF 7
ENDMDL