MODEL 5
REMARK VINA RESULT: -5.863221428      3.982      8.503
REMARK  8 active torsions:
REMARK  status: ('A' for Active; 'I' for Inactive)
REMARK    1  A    between atoms: O1_2  and  C2_3
REMARK    2  A    between atoms: C7_8  and  O2_9
REMARK    3  A    between atoms: C11_13  and  C12_14
REMARK    4  A    between atoms: C12_14  and  O3_17
REMARK    5  A    between atoms: N1_27  and  C22_28
REMARK    6  A    between atoms: C22_28  and  C23_29
REMARK    7  A    between atoms: C23_29  and  C24_30
REMARK    8  A    between atoms: C24_30  and  O4_31
ROOT
HETATM    1  C2  UNL     1      22.527  -7.998 -43.658  1.00  0.00     0.102 A
HETATM    2  C3  UNL     1      22.410  -8.689 -44.843  1.00  0.00     0.047 A
HETATM    3  C4  UNL     1      23.416  -9.533 -45.311  1.00  0.00    -0.041 A
HETATM    4  C5  UNL     1      24.539  -9.645 -44.529  1.00  0.00    -0.028 A
HETATM    5  C6  UNL     1      24.660  -8.946 -43.331  1.00  0.00     0.049 A
HETATM    6  C7  UNL     1      23.652  -8.106 -42.871  1.00  0.00     0.102 A
HETATM    7  C9  UNL     1      25.447 -10.610 -45.211  1.00  0.00     0.068 C
HETATM    8  C10 UNL     1      26.880 -10.439 -44.915  1.00  0.00     0.036 C
HETATM    9  C11 UNL     1      27.249 -11.246 -43.712  1.00  0.00     0.030 C
HETATM   10  C15 UNL     1      26.787 -12.677 -43.998  1.00  0.00     0.082 C
HETATM   11  S1  UNL     1      25.079 -12.249 -44.547  1.00  0.00    -0.151 SA
HETATM   12  C16 UNL     1      25.055 -10.443 -46.639  1.00  0.00     0.254 C
HETATM   13  C17 UNL     1      23.550 -10.346 -46.546  1.00  0.00     0.055 C
HETATM   14  C18 UNL     1      22.828 -11.639 -46.547  1.00  0.00     0.017 C
HETATM   15  C19 UNL     1      23.428 -12.638 -47.517  1.00  0.00     0.011 C
HETATM   16  C20 UNL     1      22.347 -13.119 -48.516  1.00  0.00     0.011 C
HETATM   17  C21 UNL     1      24.503 -12.042 -48.376  1.00  0.00     0.277 C
HETATM   18  N1  UNL     1      25.521 -11.377 -47.586  1.00  0.00     0.096 N
ENDROOT
BRANCH   9  19
HETATM   19  C12 UNL     1      28.733 -11.280 -43.464  1.00  0.00     0.055 C
HETATM   20  C13 UNL     1      29.273 -12.667 -43.333  1.00  0.00     0.045 C
HETATM   21  C14 UNL     1      29.149 -10.483 -42.251  1.00  0.00     0.045 C
BRANCH  19  22
HETATM   22  O3  UNL     1      29.404 -10.696 -44.562  1.00  0.00    -0.390 OA
ATOM     23  H3  UNL     1      30.307 -10.523 -44.322  1.00  0.00     0.210 HD
ENDBRANCH  19  22
ENDBRANCH   9  19
BRANCH  18  24
HETATM   24  C22 UNL     1      26.462 -10.705 -48.472  1.00  0.00     0.275 C
BRANCH  24  25
HETATM   25  C23 UNL     1      27.855 -11.185 -48.354  1.00  0.00     0.056 C
BRANCH  25  26
HETATM   26  C24 UNL     1      28.839 -10.018 -48.407  1.00  0.00     0.165 C
BRANCH  26  27
HETATM   27  O4  UNL     1      29.627  -9.980 -47.258  1.00  0.00    -0.401 OA
ATOM     28  H4  UNL     1      29.914 -10.852 -47.015  1.00  0.00     0.209 HD
ENDBRANCH  26  27
ENDBRANCH  25  26
ENDBRANCH  24  25
ENDBRANCH  18  24
BRANCH   6  29
HETATM   29  O2  UNL     1      23.750  -7.399 -41.681  1.00  0.00    -0.353 OA
HETATM   30  C8  UNL     1      23.555  -8.125 -40.481  1.00  0.00     0.210 C
ENDBRANCH   6  29
BRANCH   1  31
HETATM   31  O1  UNL     1      21.518  -7.162 -43.204  1.00  0.00    -0.353 OA
HETATM   32  C1  UNL     1      21.155  -5.955 -43.794  1.00  0.00     0.210 C
ENDBRANCH   1  31
TORSDOF 8
ENDMDL