MODEL 1
REMARK VINA RESULT: -7.697439883      0.000      0.000
REMARK  6 active torsions:
REMARK  status: ('A' for Active; 'I' for Inactive)
REMARK    1  A    between atoms: O1_2  and  C2_3
REMARK    2  A    between atoms: C4_5  and  C5_6
REMARK    3  A    between atoms: N1_8  and  N2_10
REMARK       I    between atoms: N2_10  and  C7_11
REMARK       I    between atoms: C7_11  and  N3_13
REMARK    4  A    between atoms: N3_13  and  N4_15
REMARK    5  A    between atoms: C20_28  and  O3_29
REMARK    6  A    between atoms: C22_31  and  O4_32
ROOT
HETATM    1  N2  UNL     1      17.438  -6.127 -45.577  1.00  0.00    -0.264 NA
HETATM    2  C7  UNL     1      16.647  -6.296 -46.666  1.00  0.00     0.430 C
HETATM    3  O2  UNL     1      15.622  -5.551 -46.914  1.00  0.00    -0.227 OA
HETATM    4  N3  UNL     1      16.950  -7.351 -47.582  1.00  0.00    -0.240 N
ATOM      5  H3  UNL     1      17.773  -7.909 -47.352  1.00  0.00     0.192 HD
ENDROOT
BRANCH   1   6
HETATM    6  N1  UNL     1      18.188  -5.965 -44.543  1.00  0.00    -0.234 N
HETATM    7  C5  UNL     1      18.060  -5.844 -43.299  1.00  0.00     0.045 C
HETATM    8  C6  UNL     1      16.741  -5.866 -42.664  1.00  0.00     0.071 C
ATOM      9  H1  UNL     1      19.170  -5.924 -44.811  1.00  0.00     0.201 HD
BRANCH   7  10
HETATM   10  C4  UNL     1      19.260  -5.671 -42.486  1.00  0.00    -0.006 A
HETATM   11  C3  UNL     1      20.480  -6.179 -42.876  1.00  0.00     0.053 A
HETATM   12  C2  UNL     1      21.642  -6.028 -42.142  1.00  0.00     0.105 A
HETATM   13  C22 UNL     1      21.562  -5.331 -40.959  1.00  0.00     0.135 A
HETATM   14  C20 UNL     1      20.341  -4.798 -40.527  1.00  0.00     0.105 A
HETATM   15  C19 UNL     1      19.208  -4.974 -41.293  1.00  0.00     0.053 A
BRANCH  12  16
HETATM   16  O1  UNL     1      22.875  -6.532 -42.516  1.00  0.00    -0.353 OA
HETATM   17  C1  UNL     1      22.988  -7.930 -42.711  1.00  0.00     0.210 C
ENDBRANCH  12  16
BRANCH  13  18
HETATM   18  O4  UNL     1      22.702  -5.160 -40.196  1.00  0.00    -0.351 OA
HETATM   19  C23 UNL     1      23.151  -6.208 -39.338  1.00  0.00     0.210 C
ENDBRANCH  13  18
BRANCH  14  20
HETATM   20  O3  UNL     1      20.353  -4.113 -39.330  1.00  0.00    -0.353 OA
HETATM   21  C21 UNL     1      20.990  -2.855 -39.273  1.00  0.00     0.210 C
ENDBRANCH  14  20
ENDBRANCH   7  10
ENDBRANCH   1   6
BRANCH   4  22
HETATM   22  N4  UNL     1      16.313  -7.704 -48.685  1.00  0.00    -0.318 N
HETATM   23  C8  UNL     1      15.076  -8.426 -48.495  1.00  0.00     0.144 C
HETATM   24  C9  UNL     1      15.158  -9.696 -49.272  1.00  0.00     0.030 C
HETATM   25  C10 UNL     1      15.327  -9.368 -50.738  1.00  0.00    -0.041 C
HETATM   26  C11 UNL     1      13.979  -9.009 -51.272  1.00  0.00     0.015 C
HETATM   27  C12 UNL     1      15.706 -10.706 -51.400  1.00  0.00     0.015 C
HETATM   28  C13 UNL     1      16.433  -8.428 -51.017  1.00  0.00     0.018 C
HETATM   29  C14 UNL     1      16.424  -7.811 -52.364  1.00  0.00     0.007 C
HETATM   30  C18 UNL     1      16.616  -7.319 -49.977  1.00  0.00     0.107 C
HETATM   31  C15 UNL     1      17.316  -6.574 -52.352  1.00  0.00     0.001 C
HETATM   32  C16 UNL     1      16.637  -5.471 -51.584  1.00  0.00     0.002 C
HETATM   33  C17 UNL     1      15.840  -6.071 -50.446  1.00  0.00     0.027 C
ENDBRANCH   4  22
TORSDOF 6
ENDMDL