MODEL 3
REMARK VINA RESULT: -8.666937143      0.935      1.368
REMARK  7 active torsions:
REMARK  status: ('A' for Active; 'I' for Inactive)
REMARK    1  A    between atoms: C2_2  and  N1_3
REMARK    2  A    between atoms: C2_2  and  C11_18
REMARK    3  A    between atoms: N1_3  and  C3_5
REMARK    4  A    between atoms: C3_5  and  C4_6
REMARK    5  A    between atoms: C14_21  and  N5_22
REMARK       I    between atoms: N5_22  and  C15_23
REMARK    6  A    between atoms: C15_23  and  O2_25
REMARK    7  A    between atoms: O2_25  and  C16_26
ROOT
HETATM    1  C1  UNL     1      19.384  -4.365 -45.536  1.00  0.00     0.032 C
HETATM    2  C2  UNL     1      19.896  -5.522 -44.755  1.00  0.00     0.081 C
ENDROOT
BRANCH   2   3
HETATM    3  N1  UNL     1      19.086  -5.615 -43.501  1.00  0.00    -0.391 N
ATOM      4  H1  UNL     1      19.475  -5.677 -42.560  1.00  0.00     0.159 HD
BRANCH   3   5
HETATM    5  C3  UNL     1      17.709  -5.605 -43.803  1.00  0.00     0.134 C
BRANCH   5   6
HETATM    6  C4  UNL     1      17.303  -6.961 -44.324  1.00  0.00     0.139 A
HETATM    7  N2  UNL     1      17.518  -8.168 -43.770  1.00  0.00    -0.283 N
HETATM    8  N3  UNL     1      16.961  -9.078 -44.554  1.00  0.00    -0.287 N
ATOM      9  H2  UNL     1      18.020  -8.349 -42.900  1.00  0.00     0.188 HD
HETATM   10  C5  UNL     1      16.395  -8.504 -45.602  1.00  0.00     0.099 A
ATOM     11  H3  UNL     1      16.968 -10.083 -44.375  1.00  0.00     0.188 HD
HETATM   12  N4  UNL     1      16.604  -7.184 -45.490  1.00  0.00    -0.320 N
HETATM   13  C10 UNL     1      15.691  -9.274 -46.674  1.00  0.00     0.078 C
HETATM   14  C6  UNL     1      16.145  -6.138 -46.342  1.00  0.00     0.132 C
HETATM   15  C7  UNL     1      14.691  -6.291 -46.781  1.00  0.00     0.020 C
HETATM   16  C8  UNL     1      14.632  -7.411 -47.772  1.00  0.00     0.002 C
HETATM   17  C9  UNL     1      14.353  -8.675 -47.027  1.00  0.00     0.007 C
ENDBRANCH   5   6
ENDBRANCH   3   5
ENDBRANCH   2   3
BRANCH   2  18
HETATM   18  C11 UNL     1      21.381  -5.454 -44.400  1.00  0.00     0.019 C
HETATM   19  C12 UNL     1      21.960  -6.764 -44.915  1.00  0.00     0.011 C
HETATM   20  C13 UNL     1      21.619  -7.978 -44.128  1.00  0.00     0.048 C
HETATM   21  C14 UNL     1      22.483  -7.907 -42.841  1.00  0.00     0.238 C
HETATM   22  C20 UNL     1      22.468  -6.512 -42.393  1.00  0.00     0.166 C
HETATM   23  O3  UNL     1      23.365  -6.124 -41.581  1.00  0.00    -0.294 OA
HETATM   24  C21 UNL     1      21.455  -5.526 -42.872  1.00  0.00     0.060 C
HETATM   25  C22 UNL     1      21.831  -4.187 -42.312  1.00  0.00     0.018 C
BRANCH  21  26
HETATM   26  N5  UNL     1      23.718  -8.490 -43.129  1.00  0.00    -0.377 NA
HETATM   27  C15 UNL     1      24.918  -9.053 -43.407  1.00  0.00     0.436 C
HETATM   28  O1  UNL     1      26.010  -9.248 -43.576  1.00  0.00    -0.221 OA
BRANCH  27  29
HETATM   29  O2  UNL     1      24.311 -10.597 -43.575  1.00  0.00    -0.283 OA
BRANCH  29  30
HETATM   30  C16 UNL     1      24.307 -10.991 -44.880  1.00  0.00     0.062 C
HETATM   31  C17 UNL     1      24.216  -9.918 -45.933  1.00  0.00     0.046 C
HETATM   32  C18 UNL     1      22.999 -11.829 -45.062  1.00  0.00     0.046 C
HETATM   33  C19 UNL     1      25.418 -11.936 -45.309  1.00  0.00     0.046 C
ENDBRANCH  29  30
ENDBRANCH  27  29
ENDBRANCH  21  26
ENDBRANCH   2  18
TORSDOF 7
ENDMDL