MODEL 1
REMARK VINA RESULT: -7.598518782      0.000      0.000
REMARK  7 active torsions:
REMARK  status: ('A' for Active; 'I' for Inactive)
REMARK    1  A    between atoms: C2_2  and  C4_4
REMARK    2  A    between atoms: C9_9  and  N1_10
REMARK    3  A    between atoms: C13_14  and  C14_15
REMARK    4  A    between atoms: C14_15  and  C15_16
REMARK    5  A    between atoms: N3_27  and  C22_28
REMARK    6  A    between atoms: C22_28  and  C23_29
REMARK    7  A    between atoms: C23_29  and  O3_30
ROOT
HETATM    1  C4  UNL     1      20.714  -4.851 -41.983  1.00  0.00     0.010 C
HETATM    2  C5  UNL     1      21.360  -6.022 -41.279  1.00  0.00     0.032 C
HETATM    3  C6  UNL     1      22.413  -6.545 -42.214  1.00  0.00     0.094 C
HETATM    4  C7  UNL     1      21.757  -6.975 -43.468  1.00  0.00     0.053 C
HETATM    5  C8  UNL     1      20.309  -7.378 -43.333  1.00  0.00     0.049 C
HETATM    6  C9  UNL     1      19.367  -6.234 -43.604  1.00  0.00     0.242 C
HETATM    7  C16 UNL     1      19.405  -5.146 -42.615  1.00  0.00     0.130 C
HETATM    8  C17 UNL     1      18.415  -5.366 -41.530  1.00  0.00     0.066 C
HETATM    9  N2  UNL     1      17.626  -5.533 -40.698  1.00  0.00    -0.197 NA
HETATM   10  C18 UNL     1      22.572  -8.184 -43.852  1.00  0.00     0.015 A
HETATM   11  S1  UNL     1      22.900  -9.296 -45.097  1.00  0.00    -0.104 SA
HETATM   12  C19 UNL     1      24.075 -10.255 -44.314  1.00  0.00     0.052 A
HETATM   13  C20 UNL     1      24.179  -9.671 -43.083  1.00  0.00     0.037 A
HETATM   14  C21 UNL     1      23.391  -8.583 -42.838  1.00  0.00     0.044 A
HETATM   15  N3  UNL     1      23.151  -7.660 -41.738  1.00  0.00    -0.372 N
ENDROOT
BRANCH   1  16
HETATM   16  C2  UNL     1      20.473  -3.798 -40.892  1.00  0.00    -0.017 C
HETATM   17  C1  UNL     1      21.303  -2.571 -41.125  1.00  0.00     0.010 C
HETATM   18  C3  UNL     1      20.790  -4.326 -39.518  1.00  0.00     0.010 C
ENDBRANCH   1  16
BRANCH   6  19
HETATM   19  N1  UNL     1      19.536  -5.857 -44.974  1.00  0.00     0.099 N
HETATM   20  C10 UNL     1      19.681  -4.452 -45.206  1.00  0.00     0.273 C
HETATM   21  C11 UNL     1      19.591  -4.338 -46.718  1.00  0.00     0.032 C
HETATM   22  C12 UNL     1      18.804  -5.535 -47.148  1.00  0.00     0.038 C
HETATM   23  C13 UNL     1      18.660  -6.419 -45.901  1.00  0.00     0.233 C
BRANCH  23  24
HETATM   24  C14 UNL     1      17.216  -6.510 -45.612  1.00  0.00     0.148 C
BRANCH  24  25
HETATM   25  C15 UNL     1      16.846  -7.960 -45.611  1.00  0.00     0.174 C
HETATM   26  O1  UNL     1      17.062  -8.718 -44.612  1.00  0.00    -0.648 OA
HETATM   27  O2  UNL     1      16.244  -8.547 -46.705  1.00  0.00    -0.648 OA
ENDBRANCH  24  25
ENDBRANCH  23  24
ENDBRANCH   6  19
BRANCH  15  28
HETATM   28  C22 UNL     1      23.589  -7.831 -40.373  1.00  0.00     0.149 C
BRANCH  28  29
HETATM   29  C23 UNL     1      23.852  -6.442 -39.792  1.00  0.00     0.183 C
BRANCH  29  30
HETATM   30  O3  UNL     1      23.391  -6.331 -38.488  1.00  0.00    -0.399 OA
ATOM     31  H3  UNL     1      24.056  -5.984 -37.905  1.00  0.00     0.209 HD
ENDBRANCH  29  30
ENDBRANCH  28  29
ENDBRANCH  15  28
TORSDOF 7
ENDMDL