MODEL 3
REMARK VINA RESULT: -8.672302818      1.619      3.228
REMARK  8 active torsions:
REMARK  status: ('A' for Active; 'I' for Inactive)
REMARK    1  A    between atoms: C7_7  and  C8_8
REMARK    2  A    between atoms: C8_8  and  O1_9
REMARK    3  A    between atoms: N1_17  and  C15_18
REMARK    4  A    between atoms: C15_18  and  C16_19
REMARK    5  A    between atoms: N2_27  and  C23_28
REMARK    6  A    between atoms: C23_28  and  C24_29
REMARK    7  A    between atoms: C24_29  and  C25_30
REMARK    8  A    between atoms: C25_30  and  N3_31
ROOT
HETATM    1  C1  UNL     1      23.943  -7.997 -42.513  1.00  0.00     0.077 C
HETATM    2  C2  UNL     1      22.518  -7.600 -42.671  1.00  0.00     0.052 A
HETATM    3  C3  UNL     1      21.857  -6.691 -41.879  1.00  0.00     0.065 A
HETATM    4  C4  UNL     1      20.551  -6.595 -42.346  1.00  0.00     0.073 A
HETATM    5  C5  UNL     1      20.482  -7.461 -43.407  1.00  0.00     0.103 A
HETATM    6  C6  UNL     1      19.289  -7.592 -44.084  1.00  0.00     0.055 A
HETATM    7  C7  UNL     1      18.179  -6.863 -43.694  1.00  0.00     0.047 A
HETATM    8  C22 UNL     1      18.334  -6.024 -42.626  1.00  0.00     0.257 A
HETATM    9  O2  UNL     1      17.328  -5.339 -42.246  1.00  0.00    -0.267 OA
HETATM   10  N2  UNL     1      19.504  -5.873 -41.938  1.00  0.00    -0.311 N
HETATM   11  O3  UNL     1      21.657  -8.031 -43.569  1.00  0.00    -0.313 OA
ENDROOT
BRANCH   7  12
HETATM   12  C8  UNL     1      16.861  -6.990 -44.413  1.00  0.00     0.094 C
HETATM   13  C9  UNL     1      16.940  -8.138 -45.350  1.00  0.00     0.079 C
HETATM   14  C10 UNL     1      15.840  -8.109 -46.437  1.00  0.00     0.226 C
HETATM   15  C11 UNL     1      14.515  -8.098 -45.678  1.00  0.00     0.038 C
HETATM   16  N1  UNL     1      15.909  -6.888 -47.126  1.00  0.00     0.098 N
HETATM   17  C12 UNL     1      14.218  -6.633 -45.529  1.00  0.00     0.038 C
HETATM   18  C13 UNL     1      15.401  -5.942 -46.112  1.00  0.00     0.226 C
HETATM   19  C14 UNL     1      16.546  -5.708 -45.174  1.00  0.00     0.079 C
BRANCH  12  20
HETATM   20  O1  UNL     1      15.921  -7.153 -43.388  1.00  0.00    -0.385 OA
ATOM     21  H1  UNL     1      15.267  -7.733 -43.758  1.00  0.00     0.211 HD
ENDBRANCH  12  20
BRANCH  16  22
HETATM   22  C15 UNL     1      15.185  -6.663 -48.304  1.00  0.00     0.278 C
BRANCH  22  23
HETATM   23  C16 UNL     1      15.448  -7.505 -49.503  1.00  0.00     0.014 C
HETATM   24  C17 UNL     1      16.780  -7.026 -50.131  1.00  0.00     0.006 C
HETATM   25  C18 UNL     1      16.481  -5.881 -51.066  1.00  0.00     0.000 C
HETATM   26  C19 UNL     1      15.760  -6.337 -52.320  1.00  0.00     0.000 C
HETATM   27  C20 UNL     1      15.089  -7.670 -51.973  1.00  0.00     0.000 C
HETATM   28  C21 UNL     1      14.455  -7.453 -50.601  1.00  0.00     0.006 C
ENDBRANCH  22  23
ENDBRANCH  16  22
ENDBRANCH   7  12
BRANCH  10  29
HETATM   29  C23 UNL     1      19.543  -4.932 -40.870  1.00  0.00     0.134 C
BRANCH  29  30
HETATM   30  C24 UNL     1      20.625  -3.935 -40.819  1.00  0.00     0.047 C
BRANCH  30  31
HETATM   31  C25 UNL     1      21.112  -3.511 -39.495  1.00  0.00     0.231 C
BRANCH  31  32
HETATM   32  N3  UNL     1      22.176  -4.309 -38.927  1.00  0.00    -0.079 N
ATOM     33  H33 UNL     1      21.965  -4.524 -37.953  1.00  0.00     0.274 HD
ATOM     34  H32 UNL     1      22.158  -5.247 -39.330  1.00  0.00     0.274 HD
ATOM     35  H31 UNL     1      23.115  -3.918 -39.001  1.00  0.00     0.274 HD
ENDBRANCH  31  32
ENDBRANCH  30  31
ENDBRANCH  29  30
ENDBRANCH  10  29
TORSDOF 8
ENDMDL