MODEL 4
REMARK VINA RESULT: -7.342737152      2.738      7.489
REMARK  6 active torsions:
REMARK  status: ('A' for Active; 'I' for Inactive)
REMARK    1  A    between atoms: C2_2  and  C3_3
REMARK    2  A    between atoms: C3_3  and  C4_4
REMARK    3  A    between atoms: C4_4  and  O1_5
REMARK    4  A    between atoms: C4_4  and  C5_7
REMARK    5  A    between atoms: C12_14  and  O2_15
REMARK    6  A    between atoms: O2_15  and  S1_16
ROOT
HETATM    1  C5  UNL     1      18.194  -6.340 -45.985  1.00  0.00     0.043 C
HETATM    2  C6  UNL     1      18.447  -5.806 -47.376  1.00  0.00     0.026 C
HETATM    3  C7  UNL     1      19.511  -6.713 -45.349  1.00  0.00     0.027 C
HETATM    4  C8  UNL     1      19.344  -7.158 -43.912  1.00  0.00     0.026 C
HETATM    5  C9  UNL     1      20.558  -7.783 -43.344  1.00  0.00    -0.003 C
HETATM    6  C10 UNL     1      21.192  -8.614 -44.474  1.00  0.00     0.008 C
HETATM    7  C11 UNL     1      22.227  -9.580 -43.879  1.00  0.00     0.034 C
HETATM    8  C12 UNL     1      23.340  -8.656 -43.364  1.00  0.00     0.149 C
HETATM    9  C13 UNL     1      22.705  -7.841 -42.268  1.00  0.00     0.016 C
HETATM   10  C14 UNL     1      23.727  -7.147 -41.451  1.00  0.00     0.013 C
HETATM   11  C15 UNL     1      21.617  -6.900 -42.812  1.00  0.00    -0.002 C
HETATM   12  C16 UNL     1      21.228  -6.022 -41.670  1.00  0.00     0.032 C
HETATM   13  C17 UNL     1      20.380  -4.845 -42.022  1.00  0.00     0.169 C
HETATM   14  O6  UNL     1      19.505  -5.009 -43.036  1.00  0.00    -0.380 OA
HETATM   15  C18 UNL     1      18.710  -6.101 -43.046  1.00  0.00     0.068 C
HETATM   16  C19 UNL     1      18.324  -6.673 -41.728  1.00  0.00     0.047 C
HETATM   17  C20 UNL     1      17.390  -5.654 -43.696  1.00  0.00     0.117 C
HETATM   18  C21 UNL     1      17.556  -5.330 -45.111  1.00  0.00     0.140 C
HETATM   19  O7  UNL     1      17.205  -4.281 -45.629  1.00  0.00    -0.297 OA
ENDROOT
BRANCH   1  20
HETATM   20  C4  UNL     1      17.245  -7.506 -46.135  1.00  0.00     0.133 C
BRANCH  20  21
HETATM   21  C3  UNL     1      15.964  -6.955 -46.695  1.00  0.00     0.032 C
BRANCH  21  22
HETATM   22  C2  UNL     1      14.786  -7.567 -46.004  1.00  0.00    -0.002 C
HETATM   23  C1  UNL     1      13.678  -6.579 -45.772  1.00  0.00     0.005 C
ENDBRANCH  21  22
ENDBRANCH  20  21
BRANCH  20  24
HETATM   24  O1  UNL     1      17.757  -8.508 -46.931  1.00  0.00    -0.394 OA
ATOM     25  H1  UNL     1      18.697  -8.424 -47.036  1.00  0.00     0.210 HD
ENDBRANCH  20  24
ENDBRANCH   1  20
BRANCH   8  26
HETATM   26  O2  UNL     1      24.373  -9.377 -42.813  1.00  0.00    -0.251 OA
BRANCH  26  27
HETATM   27  S1  UNL     1      25.549  -9.817 -43.910  1.00  0.00     0.251 S
HETATM   28  O3  UNL     1      25.991 -11.249 -43.733  1.00  0.00    -0.572 OA
HETATM   29  O4  UNL     1      25.115  -9.659 -45.331  1.00  0.00    -0.572 OA
HETATM   30  O5  UNL     1      26.860  -8.768 -43.683  1.00  0.00    -0.572 OA
ENDBRANCH  26  27
ENDBRANCH   8  26
TORSDOF 6
ENDMDL