MODEL 2
REMARK VINA RESULT: -8.443410264      1.045      1.277
REMARK  5 active torsions:
REMARK  status: ('A' for Active; 'I' for Inactive)
REMARK    1  A    between atoms: C2_2  and  S1_3
REMARK    2  A    between atoms: S1_3  and  C3_4
REMARK    3  A    between atoms: C3_4  and  C4_5
REMARK    4  A    between atoms: C7_8  and  N1_9
REMARK       I    between atoms: N1_9  and  C8_11
REMARK    5  A    between atoms: C8_11  and  C9_13
REMARK       I    between atoms: N3_23  and  C17_24
ROOT
HETATM    1  C9  UNL     1      19.197  -4.409 -45.853  1.00  0.00     0.079 C
HETATM    2  C10 UNL     1      20.148  -5.306 -46.571  1.00  0.00     0.019 C
HETATM    3  C11 UNL     1      21.243  -5.709 -45.612  1.00  0.00    -0.003 C
HETATM    4  C12 UNL     1      21.021  -7.152 -45.210  1.00  0.00     0.011 C
HETATM    5  C13 UNL     1      22.036  -7.577 -44.194  1.00  0.00     0.060 C
HETATM    6  C14 UNL     1      22.133  -6.562 -43.087  1.00  0.00     0.044 A
HETATM    7  C15 UNL     1      21.654  -5.280 -43.237  1.00  0.00     0.038 A
HETATM    8  N2  UNL     1      21.915  -4.670 -42.049  1.00  0.00    -0.353 N
ATOM      9  H2  UNL     1      21.686  -3.703 -41.816  1.00  0.00     0.166 HD
HETATM   10  C16 UNL     1      22.520  -5.548 -41.232  1.00  0.00     0.193 A
HETATM   11  N3  UNL     1      22.671  -6.747 -41.862  1.00  0.00    -0.265 N
HETATM   12  C17 UNL     1      23.269  -7.909 -41.307  1.00  0.00     0.340 C
HETATM   13  N4  UNL     1      23.792  -7.948 -39.996  1.00  0.00    -0.039 NA
HETATM   14  O2  UNL     1      23.337  -8.943 -42.011  1.00  0.00    -0.250 OA
HETATM   15  C18 UNL     1      21.020  -4.775 -44.447  1.00  0.00     0.042 C
HETATM   16  C19 UNL     1      19.510  -4.718 -44.382  1.00  0.00     0.025 C
ENDROOT
BRANCH   1  17
HETATM   17  C8  UNL     1      17.797  -4.621 -46.185  1.00  0.00     0.222 C
HETATM   18  N1  UNL     1      17.348  -5.887 -46.628  1.00  0.00    -0.353 N
ATOM     19  H1  UNL     1      18.028  -6.643 -46.707  1.00  0.00     0.163 HD
HETATM   20  O1  UNL     1      16.972  -3.686 -46.083  1.00  0.00    -0.273 OA
BRANCH  18  21
HETATM   21  C7  UNL     1      15.967  -6.161 -46.974  1.00  0.00     0.121 C
HETATM   22  C6  UNL     1      15.383  -7.018 -45.872  1.00  0.00     0.066 C
HETATM   23  C4  UNL     1      14.325  -7.780 -46.638  1.00  0.00     0.069 C
HETATM   24  C5  UNL     1      13.000  -7.059 -46.456  1.00  0.00     0.047 C
HETATM   25  O3  UNL     1      14.713  -7.869 -47.943  1.00  0.00    -0.367 OA
HETATM   26  C20 UNL     1      15.821  -7.072 -48.164  1.00  0.00     0.075 C
HETATM   27  C21 UNL     1      17.009  -7.972 -48.359  1.00  0.00     0.048 C
HETATM   28  C22 UNL     1      15.564  -6.262 -49.417  1.00  0.00     0.048 C
BRANCH  23  29
HETATM   29  C3  UNL     1      14.239  -9.171 -46.051  1.00  0.00     0.111 C
BRANCH  29  30
HETATM   30  S1  UNL     1      14.330 -10.412 -47.354  1.00  0.00    -0.167 SA
BRANCH  30  31
HETATM   31  C2  UNL     1      15.741 -11.510 -47.155  1.00  0.00     0.069 C
HETATM   32  C1  UNL     1      15.527 -12.558 -46.095  1.00  0.00     0.016 C
ENDBRANCH  30  31
ENDBRANCH  29  30
ENDBRANCH  23  29
ENDBRANCH  18  21
ENDBRANCH   1  17
TORSDOF 5
ENDMDL