MODEL 2
REMARK VINA RESULT: -6.939097364      2.727      5.886
REMARK  7 active torsions:
REMARK  status: ('A' for Active; 'I' for Inactive)
REMARK    1  A    between atoms: O1_2  and  C2_3
REMARK    2  A    between atoms: C3_4  and  C4_5
REMARK    3  A    between atoms: C4_5  and  C5_6
REMARK    4  A    between atoms: C5_6  and  C6_7
REMARK    5  A    between atoms: C6_7  and  C7_8
REMARK    6  A    between atoms: C14_17  and  C15_18
REMARK    7  A    between atoms: C21_29  and  O6_30
ROOT
HETATM    1  C2  UNL     1      21.789  -6.973 -42.481  1.00  0.00     0.163 C
HETATM    2  C3  UNL     1      21.944  -7.522 -43.942  1.00  0.00     0.022 C
HETATM    3  C8  UNL     1      21.749  -6.174 -44.580  1.00  0.00    -0.004 C
HETATM    4  C9  UNL     1      21.862  -6.227 -46.032  1.00  0.00     0.011 C
HETATM    5  C10 UNL     1      20.338  -5.801 -44.059  1.00  0.00     0.035 C
HETATM    6  C11 UNL     1      19.307  -6.414 -44.840  1.00  0.00     0.006 A
HETATM    7  C12 UNL     1      17.918  -6.242 -44.890  1.00  0.00    -0.000 A
HETATM    8  C13 UNL     1      17.071  -5.411 -44.022  1.00  0.00     0.018 C
HETATM    9  C14 UNL     1      17.065  -5.815 -42.541  1.00  0.00     0.055 C
HETATM   10  C16 UNL     1      18.423  -5.566 -42.057  1.00  0.00     0.166 C
HETATM   11  O4  UNL     1      18.607  -5.002 -40.793  1.00  0.00    -0.347 OA
HETATM   12  C17 UNL     1      19.999  -4.714 -40.787  1.00  0.00     0.158 C
HETATM   13  C18 UNL     1      20.552  -5.095 -39.422  1.00  0.00     0.078 C
HETATM   14  C19 UNL     1      19.969  -3.160 -40.722  1.00  0.00     0.078 C
HETATM   15  O5  UNL     1      20.733  -5.002 -41.842  1.00  0.00    -0.339 OA
HETATM   16  C20 UNL     1      20.575  -6.156 -42.610  1.00  0.00     0.123 C
HETATM   17  C21 UNL     1      19.325  -6.759 -42.037  1.00  0.00     0.185 C
HETATM   18  C22 UNL     1      18.709  -5.602 -45.965  1.00  0.00    -0.039 A
HETATM   19  C23 UNL     1      18.515  -6.210 -47.343  1.00  0.00     0.015 C
HETATM   20  C24 UNL     1      18.627  -4.115 -45.978  1.00  0.00     0.015 C
ENDROOT
BRANCH   2  21
HETATM   21  C4  UNL     1      23.302  -8.115 -44.025  1.00  0.00     0.008 C
BRANCH  21  22
HETATM   22  C5  UNL     1      23.593  -9.372 -43.324  1.00  0.00     0.011 C
BRANCH  22  23
HETATM   23  C6  UNL     1      25.015  -9.314 -42.736  1.00  0.00     0.113 C
BRANCH  23  24
HETATM   24  C7  UNL     1      26.066  -9.322 -43.767  1.00  0.00     0.172 C
HETATM   25  O2  UNL     1      27.070  -8.573 -43.695  1.00  0.00    -0.648 OA
HETATM   26  O3  UNL     1      25.992 -10.163 -44.870  1.00  0.00    -0.648 OA
ENDBRANCH  23  24
ENDBRANCH  22  23
ENDBRANCH  21  22
ENDBRANCH   2  21
BRANCH   1  27
HETATM   27  O1  UNL     1      22.890  -6.139 -42.316  1.00  0.00    -0.387 OA
HETATM   28  C1  UNL     1      23.522  -6.295 -41.099  1.00  0.00     0.202 C
ENDBRANCH   1  27
BRANCH  17  29
HETATM   29  O6  UNL     1      18.882  -7.919 -42.561  1.00  0.00    -0.390 OA
ATOM     30  H6  UNL     1      18.698  -8.645 -41.977  1.00  0.00     0.210 HD
ENDBRANCH  17  29
BRANCH   9  31
HETATM   31  C15 UNL     1      15.964  -5.152 -41.832  1.00  0.00     0.060 C
HETATM   32  N1  UNL     1      15.442  -5.683 -40.819  1.00  0.00    -0.411 N
ATOM     33  H12 UNL     1      15.799  -6.583 -40.500  1.00  0.00     0.155 HD
ATOM     34  H11 UNL     1      14.677  -5.222 -40.326  1.00  0.00     0.155 HD
ENDBRANCH   9  31
TORSDOF 7
ENDMDL