MODEL 1
REMARK VINA RESULT: -5.961381306      0.000      0.000
REMARK  3 active torsions:
REMARK  status: ('A' for Active; 'I' for Inactive)
REMARK    1  A    between atoms: N1_7  and  N2_9
REMARK       I    between atoms: N2_9  and  C7_11
REMARK    2  A    between atoms: C7_11  and  C8_13
REMARK    3  A    between atoms: N3_16  and  O2_18
ROOT
HETATM    1  C1  UNL     1      15.119  27.145 -39.876  1.00  0.00     0.016 C
HETATM    2  C2  UNL     1      14.003  27.443 -40.813  1.00  0.00     0.035 C
HETATM    3  C3  UNL     1      14.135  26.471 -41.981  1.00  0.00     0.011 C
HETATM    4  C4  UNL     1      12.977  26.559 -42.933  1.00  0.00     0.007 C
HETATM    5  C5  UNL     1      12.029  27.695 -42.579  1.00  0.00     0.061 C
HETATM    6  C6  UNL     1      11.562  27.535 -41.151  1.00  0.00     0.050 C
HETATM    7  N1  UNL     1      10.347  27.615 -40.858  1.00  0.00    -0.300 N
ATOM      8  H1  UNL     1       9.731  27.797 -41.651  1.00  0.00     0.186 HD
HETATM    9  C9  UNL     1      12.681  27.305 -40.207  1.00  0.00     0.059 C
HETATM   10  N3  UNL     1      12.360  27.027 -39.012  1.00  0.00    -0.271 N
ATOM     11  H3  UNL     1      11.367  26.975 -38.782  1.00  0.00     0.194 HD
ENDROOT
BRANCH   7  12
HETATM   12  N2  UNL     1       9.706  27.499 -39.651  1.00  0.00    -0.269 N
HETATM   13  C7  UNL     1       8.826  26.416 -39.421  1.00  0.00     0.249 C
HETATM   14  O1  UNL     1       8.647  25.575 -40.324  1.00  0.00    -0.271 OA
ATOM     15  H2  UNL     1       9.864  28.193 -38.921  1.00  0.00     0.190 HD
BRANCH  13  16
HETATM   16  C8  UNL     1       8.089  26.208 -38.158  1.00  0.00     0.219 C
HETATM   17 CL1  UNL     1       9.120  25.271 -37.045  1.00  0.00    -0.121 Cl
ENDBRANCH  13  16
ENDBRANCH   7  12
BRANCH  10  18
HETATM   18  O2  UNL     1      13.260  26.794 -38.017  1.00  0.00    -0.290 OA
ATOM     19  H2  UNL     1      13.334  27.326 -37.234  1.00  0.00     0.244 HD
ENDBRANCH  10  18
TORSDOF 3
ENDMDL