MODEL 1
REMARK VINA RESULT: -6.328794884      0.000      0.000
REMARK  3 active torsions:
REMARK  status: ('A' for Active; 'I' for Inactive)
REMARK    1  A    between atoms: C1_2  and  C2_7
REMARK    2  A    between atoms: N2_3  and  O1_5
REMARK    3  A    between atoms: C3_11  and  C4_12
ROOT
HETATM    1  C2  UNL     1      11.337  26.223 -44.147  1.00  0.00     0.165 A
HETATM    2  O2  UNL     1      12.335  25.356 -44.263  1.00  0.00    -0.233 OA
HETATM    3  N3  UNL     1      13.317  25.620 -43.502  1.00  0.00    -0.263 N
ATOM      4  H3  UNL     1      14.181  25.082 -43.437  1.00  0.00     0.194 HD
HETATM    5  C3  UNL     1      13.024  26.737 -42.789  1.00  0.00     0.061 A
HETATM    6  C9  UNL     1      11.771  27.108 -43.203  1.00  0.00     0.098 A
HETATM    7 CL1  UNL     1      10.818  28.484 -42.678  1.00  0.00    -0.079 Cl
ENDROOT
BRANCH   1   8
HETATM    8  C1  UNL     1      10.080  26.191 -44.905  1.00  0.00     0.173 C
HETATM    9  N1  UNL     1       8.899  25.987 -44.153  1.00  0.00    -0.078 NA
HETATM   10  N2  UNL     1      10.080  26.384 -46.150  1.00  0.00    -0.253 N
ATOM     11  H2  UNL     1       9.209  26.404 -46.679  1.00  0.00     0.195 HD
BRANCH  10  12
HETATM   12  O1  UNL     1      11.311  26.568 -46.779  1.00  0.00    -0.288 OA
ATOM     13  H1  UNL     1      11.451  27.384 -47.246  1.00  0.00     0.244 HD
ENDBRANCH  10  12
ENDBRANCH   1   8
BRANCH   5  14
HETATM   14  C4  UNL     1      13.873  27.395 -41.769  1.00  0.00     0.039 C
HETATM   15  C5  UNL     1      14.843  26.298 -41.199  1.00  0.00     0.011 C
HETATM   16  C6  UNL     1      15.525  27.184 -40.169  1.00  0.00     0.001 C
HETATM   17  C7  UNL     1      14.352  27.941 -39.514  1.00  0.00     0.001 C
HETATM   18  C8  UNL     1      13.149  27.630 -40.434  1.00  0.00     0.011 C
ENDBRANCH   5  14
TORSDOF 3
ENDMDL