MODEL 1
REMARK VINA RESULT: -4.873270926      0.000      0.000
REMARK  3 active torsions:
REMARK  status: ('A' for Active; 'I' for Inactive)
REMARK       I    between atoms: N1_2  and  C2_4
REMARK       I    between atoms: C2_4  and  N2_6
REMARK    1  A    between atoms: C3_8  and  C4_9
REMARK    2  A    between atoms: C4_9  and  C5_10
REMARK    3  A    between atoms: C9_14  and  O2_15
ROOT
HETATM    1  C1  UNL     1       8.593  30.170 -35.949  1.00  0.00     0.151 C
HETATM    2  N1  UNL     1       8.774  29.663 -37.283  1.00  0.00    -0.346 N
ATOM      3  H1  UNL     1       8.334  30.137 -38.072  1.00  0.00     0.163 HD
HETATM    4  C2  UNL     1       9.559  28.513 -37.499  1.00  0.00     0.334 C
HETATM    5  O1  UNL     1      10.085  27.954 -36.508  1.00  0.00    -0.246 OA
HETATM    6  N2  UNL     1       9.767  27.971 -38.819  1.00  0.00    -0.210 N
HETATM    7  S1  UNL     1      10.618  26.655 -39.416  1.00  0.00    -0.001 SA
HETATM    8  C3  UNL     1       9.974  27.296 -40.860  1.00  0.00     0.053 A
HETATM    9  C9  UNL     1       9.387  28.273 -40.077  1.00  0.00     0.172 A
ENDROOT
BRANCH   9  10
HETATM   10  O2  UNL     1       8.573  29.351 -40.487  1.00  0.00    -0.344 OA
ATOM     11  H2  UNL     1       8.855  30.162 -40.894  1.00  0.00     0.219 HD
ENDBRANCH   9  10
BRANCH   8  12
HETATM   12  C4  UNL     1      10.081  26.872 -42.273  1.00  0.00     0.060 C
BRANCH  12  13
HETATM   13  C5  UNL     1      11.113  27.604 -43.067  1.00  0.00    -0.047 C
HETATM   14  C6  UNL     1      10.718  29.019 -43.391  1.00  0.00     0.015 C
HETATM   15  C7  UNL     1      12.429  27.547 -42.323  1.00  0.00     0.015 C
HETATM   16  C8  UNL     1      11.231  26.886 -44.411  1.00  0.00     0.015 C
ENDBRANCH  12  13
ENDBRANCH   8  12
TORSDOF 3
ENDMDL