MODEL 2
REMARK VINA RESULT: -5.212521928      2.968      3.916
REMARK  7 active torsions:
REMARK  status: ('A' for Active; 'I' for Inactive)
REMARK    1  A    between atoms: C2_2  and  C3_3
REMARK    2  A    between atoms: C4_6  and  C5_7
REMARK    3  A    between atoms: C6_9  and  N1_10
REMARK    4  A    between atoms: N1_10  and  C8_12
REMARK    5  A    between atoms: C8_12  and  O1_13
REMARK    6  A    between atoms: C8_12  and  N2_15
REMARK    7  A    between atoms: N2_15  and  N3_17
ROOT
HETATM    1  C3  UNL     1      12.522  27.157 -40.303  1.00  0.00    -0.065 C
HETATM    2  S1  UNL     1      11.159  26.945 -39.961  1.00  0.00    -0.001 SA
HETATM    3  S2  UNL     1       9.176  26.628 -39.563  1.00  0.00     0.001 SA
ENDROOT
BRANCH   1   4
HETATM    4  C2  UNL     1      13.847  27.390 -40.661  1.00  0.00    -0.006 C
HETATM    5  C1  UNL     1      14.750  28.239 -39.769  1.00  0.00     0.058 C
HETATM    6  C4  UNL     1      14.410  26.931 -41.731  1.00  0.00     0.059 C
BRANCH   6   7
HETATM    7  C5  UNL     1      13.697  26.074 -42.740  1.00  0.00     0.133 C
HETATM    8  F1  UNL     1      14.133  24.823 -42.834  1.00  0.00    -0.205 F
HETATM    9  C6  UNL     1      12.746  26.632 -43.402  1.00  0.00     0.136 C
BRANCH   9  10
HETATM   10  N1  UNL     1      11.838  26.312 -44.376  1.00  0.00    -0.324 N
HETATM   11  C7  UNL     1      10.388  26.144 -43.884  1.00  0.00     0.159 C
BRANCH  10  12
HETATM   12  C8  UNL     1      11.944  26.106 -45.734  1.00  0.00     0.237 C
BRANCH  12  13
HETATM   13  O1  UNL     1      10.888  26.526 -46.436  1.00  0.00    -0.331 OA
ATOM     14  H1  UNL     1      10.051  26.368 -46.015  1.00  0.00     0.221 HD
ENDBRANCH  12  13
BRANCH  12  15
HETATM   15  N2  UNL     1      12.915  25.551 -46.542  1.00  0.00    -0.272 N
ATOM     16  H2  UNL     1      13.766  25.154 -46.142  1.00  0.00     0.190 HD
BRANCH  15  17
HETATM   17  N3  UNL     1      12.693  25.549 -47.976  1.00  0.00    -0.342 N
ATOM     18  H32 UNL     1      11.748  25.657 -48.346  1.00  0.00     0.176 HD
ATOM     19  H31 UNL     1      13.502  25.438 -48.588  1.00  0.00     0.176 HD
ENDBRANCH  15  17
ENDBRANCH  12  15
ENDBRANCH  10  12
ENDBRANCH   9  10
ENDBRANCH   6   7
ENDBRANCH   1   4
TORSDOF 7
ENDMDL