MODEL 1
REMARK VINA RESULT: -4.769177760      0.000      0.000
REMARK  3 active torsions:
REMARK  status: ('A' for Active; 'I' for Inactive)
REMARK    1  A    between atoms: C2_2  and  C3_4
REMARK    2  A    between atoms: N1_5  and  N2_7
REMARK    3  A    between atoms: N2_7  and  C4_9
ROOT
HETATM    1  C4  UNL     1       8.050  27.585 -35.891  1.00  0.00     0.180 A
HETATM    2  N3  UNL     1       7.242  26.644 -36.381  1.00  0.00    -0.277 N
ATOM      3  H3  UNL     1       6.234  26.699 -36.228  1.00  0.00     0.189 HD
HETATM    4  N4  UNL     1       7.744  25.678 -37.041  1.00  0.00    -0.282 N
ATOM      5  H4  UNL     1       7.142  24.948 -37.423  1.00  0.00     0.188 HD
HETATM    6  C5  UNL     1       9.063  25.627 -37.228  1.00  0.00     0.160 A
HETATM    7  S1  UNL     1       9.973  24.513 -38.028  1.00  0.00    -0.051 SA
HETATM    8  S2  UNL     1       9.588  27.052 -36.404  1.00  0.00    -0.020 SA
ENDROOT
BRANCH   1   9
HETATM    9  N2  UNL     1       7.766  28.639 -35.202  1.00  0.00    -0.279 N
ATOM     10  H2  UNL     1       6.794  28.923 -35.091  1.00  0.00     0.189 HD
BRANCH   9  11
HETATM   11  N1  UNL     1       8.771  29.386 -34.612  1.00  0.00    -0.308 N
HETATM   12  C3  UNL     1       9.184  30.519 -35.023  1.00  0.00     0.130 C
ATOM     13  H1  UNL     1       9.218  28.997 -33.780  1.00  0.00     0.186 HD
BRANCH  12  14
HETATM   14  C2  UNL     1      10.255  31.197 -34.303  1.00  0.00     0.041 C
HETATM   15  C1  UNL     1      10.681  30.737 -33.140  1.00  0.00     0.038 C
HETATM   16 CL1  UNL     1      11.009  32.645 -34.963  1.00  0.00    -0.084 Cl
ENDBRANCH  12  14
ENDBRANCH   9  11
ENDBRANCH   1   9
TORSDOF 3
ENDMDL