MODEL 1
REMARK VINA RESULT: -5.342805392      0.000      0.000
REMARK  2 active torsions:
REMARK  status: ('A' for Active; 'I' for Inactive)
REMARK    1  A    between atoms: C4_8  and  C5_9
REMARK    2  A    between atoms: C5_9  and  C6_11
ROOT
HETATM    1  N1  UNL     1      13.249  28.496 -39.770  1.00  0.00    -0.093 NA
HETATM    2  C1  UNL     1      12.100  27.645 -39.670  1.00  0.00     0.104 A
HETATM    3  S1  UNL     1      11.724  26.572 -38.399  1.00  0.00    -0.060 SA
HETATM    4  C2  UNL     1      10.268  25.951 -38.983  1.00  0.00     0.101 A
HETATM    5 CL1  UNL     1       9.243  24.750 -38.201  1.00  0.00    -0.074 Cl
HETATM    6  C3  UNL     1      10.094  26.603 -40.182  1.00  0.00     0.091 A
HETATM    7  N2  UNL     1       8.904  26.237 -40.943  1.00  0.00    -0.099 NA
HETATM    8  C4  UNL     1      11.038  27.487 -40.552  1.00  0.00     0.068 A
ENDROOT
BRANCH   8   9
HETATM    9  C5  UNL     1      11.044  28.257 -41.812  1.00  0.00     0.168 C
HETATM   10  O1  UNL     1      10.287  29.286 -41.872  1.00  0.00    -0.292 OA
BRANCH   9  11
HETATM   11  C6  UNL     1      11.838  27.946 -43.012  1.00  0.00     0.061 C
HETATM   12  C7  UNL     1      12.584  26.659 -43.062  1.00  0.00     0.012 C
HETATM   13  C8  UNL     1      11.549  26.092 -44.006  1.00  0.00     0.002 C
HETATM   14  C9  UNL     1      10.966  27.465 -44.159  1.00  0.00     0.012 C
ENDBRANCH   9  11
ENDBRANCH   8   9
TORSDOF 2
ENDMDL