MODEL 3
REMARK VINA RESULT: -5.942385800      2.197      3.360
REMARK  4 active torsions:
REMARK  status: ('A' for Active; 'I' for Inactive)
REMARK    1  A    between atoms: O1_1  and  N1_3
REMARK    2  A    between atoms: C1_5  and  O2_6
REMARK    3  A    between atoms: C1_5  and  C2_8
REMARK    4  A    between atoms: C3_9  and  C4_10
ROOT
HETATM    1  C2  UNL     1      13.058  26.487 -42.643  1.00  0.00     0.004 C
HETATM    2  C3  UNL     1      12.033  27.174 -42.285  1.00  0.00     0.020 C
HETATM    3  C5  UNL     1      11.887  27.678 -40.858  1.00  0.00     0.192 C
HETATM    4  C6  UNL     1      13.189  28.090 -40.265  1.00  0.00     0.074 C
HETATM    5  C7  UNL     1      14.404  27.626 -41.013  1.00  0.00     0.010 C
HETATM    6  C8  UNL     1      14.081  26.233 -41.539  1.00  0.00     0.044 C
HETATM    7  O3  UNL     1      11.052  28.789 -40.851  1.00  0.00    -0.349 OA
HETATM    8  C9  UNL     1      10.264  28.686 -39.712  1.00  0.00     0.198 C
HETATM    9  C10 UNL     1      10.742  27.448 -39.012  1.00  0.00     0.198 C
HETATM   10  O4  UNL     1      11.306  26.712 -40.049  1.00  0.00    -0.349 OA
ENDROOT
BRANCH   1  11
HETATM   11  C1  UNL     1      13.334  25.947 -43.942  1.00  0.00     0.166 C
HETATM   12  N1  UNL     1      12.616  25.869 -44.969  1.00  0.00    -0.247 N
ATOM     13  H1  UNL     1      11.665  26.238 -44.932  1.00  0.00     0.196 HD
BRANCH  12  14
HETATM   14  O1  UNL     1      13.055  25.312 -46.130  1.00  0.00    -0.288 OA
ATOM     15  H1  UNL     1      12.463  25.001 -46.805  1.00  0.00     0.244 HD
ENDBRANCH  12  14
BRANCH  11  16
HETATM   16  O2  UNL     1      14.650  25.391 -44.127  1.00  0.00    -0.344 OA
ATOM     17  H2  UNL     1      15.019  25.030 -43.329  1.00  0.00     0.219 HD
ENDBRANCH  11  16
ENDBRANCH   1  11
BRANCH   2  18
HETATM   18  C4  UNL     1      10.937  27.530 -43.172  1.00  0.00     0.262 C
HETATM   19  F1  UNL     1      11.205  28.687 -43.907  1.00  0.00    -0.251 F
ENDBRANCH   2  18
TORSDOF 4
ENDMDL