MODEL 1
REMARK VINA RESULT: -5.285019808      0.000      0.000
REMARK  4 active torsions:
REMARK  status: ('A' for Active; 'I' for Inactive)
REMARK    1  A    between atoms: C2_2  and  C3_3
REMARK       I    between atoms: C3_3  and  N1_5
REMARK    2  A    between atoms: N2_7  and  C4_9
REMARK    3  A    between atoms: C5_11  and  N3_12
REMARK    4  A    between atoms: C7_17  and  O2_18
ROOT
HETATM    1  C4  UNL     1      10.086  26.191 -37.470  1.00  0.00     0.143 A
HETATM    2  S1  UNL     1       9.598  27.361 -36.339  1.00  0.00    -0.031 SA
HETATM    3  C5  UNL     1       7.972  26.879 -36.158  1.00  0.00     0.148 A
HETATM    4  N4  UNL     1       7.876  25.833 -36.982  1.00  0.00    -0.315 N
ATOM      5  H4  UNL     1       6.995  25.329 -37.083  1.00  0.00     0.170 HD
HETATM    6  C7  UNL     1       8.934  25.467 -37.656  1.00  0.00     0.178 A
ENDROOT
BRANCH   1   7
HETATM    7  N2  UNL     1      11.362  25.955 -38.113  1.00  0.00    -0.288 N
HETATM    8  N1  UNL     1      11.704  26.533 -39.164  1.00  0.00    -0.269 N
HETATM    9  C3  UNL     1      10.961  27.483 -39.893  1.00  0.00     0.235 C
ATOM     10  H1  UNL     1      12.623  26.292 -39.537  1.00  0.00     0.190 HD
HETATM   11  O1  UNL     1       9.859  27.861 -39.451  1.00  0.00    -0.272 OA
ATOM     12  H2  UNL     1      12.007  25.289 -37.689  1.00  0.00     0.188 HD
BRANCH   9  13
HETATM   13  C2  UNL     1      11.470  28.027 -41.160  1.00  0.00     0.100 C
HETATM   14  C1  UNL     1      12.814  27.314 -41.429  1.00  0.00     0.014 C
ENDBRANCH   9  13
ENDBRANCH   1   7
BRANCH   6  15
HETATM   15  O2  UNL     1       8.936  24.362 -38.569  1.00  0.00    -0.344 OA
ATOM     16  H2  UNL     1       9.255  23.516 -38.278  1.00  0.00     0.219 HD
ENDBRANCH   6  15
BRANCH   3  17
HETATM   17  N3  UNL     1       7.023  27.396 -35.403  1.00  0.00    -0.375 N
HETATM   18  C6  UNL     1       7.006  28.835 -35.292  1.00  0.00     0.148 C
ATOM     19  H3  UNL     1       6.338  26.811 -34.923  1.00  0.00     0.161 HD
ENDBRANCH   3  17
TORSDOF 4
ENDMDL