MODEL 3
REMARK VINA RESULT: -7.618937192      4.770      9.242
REMARK  7 active torsions:
REMARK  status: ('A' for Active; 'I' for Inactive)
REMARK    1  A    between atoms: C5_10  and  N3_11
REMARK    2  A    between atoms: C7_15  and  C8_16
REMARK    3  A    between atoms: C11_19  and  N4_20
REMARK       I    between atoms: N4_20  and  C12_22
REMARK    4  A    between atoms: C12_22  and  O2_24
REMARK    5  A    between atoms: O2_24  and  N5_25
REMARK    6  A    between atoms: C15_34  and  N10_35
REMARK    7  A    between atoms: C18_40  and  O3_41
ROOT
HETATM    1  C8  UNL     1      29.684   4.712   8.534  1.00  0.00     0.010 A
HETATM    2  C9  UNL     1      30.298   3.886   9.436  1.00  0.00     0.017 A
HETATM    3  C10 UNL     1      31.591   4.141   9.886  1.00  0.00     0.031 A
HETATM    4  C11 UNL     1      32.277   5.228   9.430  1.00  0.00     0.045 A
HETATM    5  C16 UNL     1      31.641   6.074   8.502  1.00  0.00    -0.001 A
HETATM    6  C17 UNL     1      32.402   7.240   8.025  1.00  0.00     0.054 C
HETATM    7  C18 UNL     1      30.378   5.824   8.065  1.00  0.00     0.085 A
ENDROOT
BRANCH   4   8
HETATM    8  N4  UNL     1      33.575   5.546   9.838  1.00  0.00    -0.301 N
HETATM    9  C12 UNL     1      34.153   5.382  11.102  1.00  0.00     0.388 C
HETATM   10  O1  UNL     1      33.612   4.913  12.121  1.00  0.00    -0.236 OA
ATOM     11  H4  UNL     1      34.179   5.951   9.122  1.00  0.00     0.171 HD
BRANCH   9  12
HETATM   12  O2  UNL     1      35.500   5.779  11.289  1.00  0.00    -0.156 OA
BRANCH  12  13
HETATM   13  N5  UNL     1      36.510   4.857  11.106  1.00  0.00    -0.009 N
HETATM   14  C13 UNL     1      36.894   4.517   9.865  1.00  0.00     0.240 A
HETATM   15  N6  UNL     1      36.267   5.102   8.734  1.00  0.00    -0.060 NA
HETATM   16  N7  UNL     1      37.877   3.620   9.647  1.00  0.00    -0.302 N
HETATM   17  C14 UNL     1      38.522   3.021  10.678  1.00  0.00     0.209 A
ATOM     18  H7  UNL     1      38.140   3.388   8.689  1.00  0.00     0.171 HD
HETATM   19  N8  UNL     1      39.558   2.076  10.456  1.00  0.00    -0.063 NA
HETATM   20  N9  UNL     1      38.133   3.366  11.916  1.00  0.00    -0.161 N
HETATM   21  C15 UNL     1      37.137   4.274  12.140  1.00  0.00     0.708 A
ATOM     22  H9  UNL     1      38.596   2.935  12.716  1.00  0.00     0.187 HD
BRANCH  21  23
HETATM   23  N10 UNL     1      36.782   4.588  13.330  1.00  0.00    -0.232 N
ATOM     24 2H10 UNL     1      35.811   4.813  13.549  1.00  0.00     0.174 HD
ATOM     25 1H10 UNL     1      37.491   4.612  14.063  1.00  0.00     0.174 HD
ENDBRANCH  21  23
ENDBRANCH  12  13
ENDBRANCH   9  12
ENDBRANCH   4   8
BRANCH   7  26
HETATM   26  O3  UNL     1      29.725   6.617   7.167  1.00  0.00    -0.359 OA
ATOM     27  H3  UNL     1      29.420   6.196   6.372  1.00  0.00     0.217 HD
ENDBRANCH   7  26
BRANCH   1  28
HETATM   28  C7  UNL     1      28.284   4.444   8.082  1.00  0.00     0.006 A
HETATM   29  C2  UNL     1      27.280   4.910   8.906  1.00  0.00    -0.007 A
HETATM   30  C1  UNL     1      27.359   5.653  10.197  1.00  0.00     0.057 C
HETATM   31  S1  UNL     1      25.868   4.442   8.105  1.00  0.00    -0.075 SA
HETATM   32  C3  UNL     1      26.564   3.663   6.741  1.00  0.00     0.090 A
HETATM   33  N1  UNL     1      26.019   3.034   5.654  1.00  0.00    -0.346 N
HETATM   34  C6  UNL     1      27.905   3.799   6.963  1.00  0.00     0.053 A
HETATM   35  C4  UNL     1      26.819   2.502   4.720  1.00  0.00     0.182 A
ATOM     36  H1  UNL     1      25.006   2.972   5.556  1.00  0.00     0.167 HD
HETATM   37  N2  UNL     1      28.113   2.618   4.908  1.00  0.00    -0.338 N
HETATM   38  C5  UNL     1      28.732   3.230   5.966  1.00  0.00     0.113 A
ATOM     39  H2  UNL     1      28.719   2.212   4.194  1.00  0.00     0.168 HD
BRANCH  38  40
HETATM   40  N3  UNL     1      29.973   3.224   5.945  1.00  0.00    -0.385 N
ATOM     41  H32 UNL     1      30.579   2.404   5.930  1.00  0.00     0.157 HD
ATOM     42  H31 UNL     1      30.423   4.139   5.944  1.00  0.00     0.157 HD
ENDBRANCH  38  40
ENDBRANCH   1  28
TORSDOF 7
ENDMDL