MODEL 3
REMARK VINA RESULT: -7.489289478      1.017      1.131
REMARK  6 active torsions:
REMARK  status: ('A' for Active; 'I' for Inactive)
REMARK    1  A    between atoms: C3_3  and  N1_4
REMARK    2  A    between atoms: N5_16  and  N6_18
REMARK    3  A    between atoms: C9_20  and  C10_21
REMARK    4  A    between atoms: C12_24  and  N7_25
REMARK    5  A    between atoms: C13_30  and  O1_31
REMARK    6  A    between atoms: C14_33  and  O2_34
ROOT
HETATM    1  N1  UNL     1      32.446   6.621   8.060  1.00  0.00    -0.269 N
HETATM    2  C4  UNL     1      33.414   7.210   8.961  1.00  0.00     0.202 C
HETATM    3  N2  UNL     1      34.392   8.135   8.513  1.00  0.00    -0.062 NA
HETATM    4  N3  UNL     1      33.339   6.848  10.190  1.00  0.00    -0.319 N
ATOM      5  H3  UNL     1      34.012   7.251  10.841  1.00  0.00     0.169 HD
HETATM    6  C5  UNL     1      32.396   5.936  10.708  1.00  0.00     0.088 C
HETATM    7  N4  UNL     1      32.078   5.882  11.961  1.00  0.00    -0.388 N
ATOM      8  H41 UNL     1      31.396   5.222  12.336  1.00  0.00     0.157 HD
ATOM      9  H42 UNL     1      32.534   6.530  12.603  1.00  0.00     0.157 HD
HETATM   10  C6  UNL     1      31.737   4.998   9.779  1.00  0.00     0.118 C
HETATM   11  C7  UNL     1      32.754   3.877   9.538  1.00  0.00     0.026 C
HETATM   12  C8  UNL     1      31.474   5.695   8.512  1.00  0.00     0.116 C
HETATM   13  N5  UNL     1      30.402   5.498   7.800  1.00  0.00    -0.288 N
ATOM     14  H5  UNL     1      30.306   6.027   6.933  1.00  0.00     0.188 HD
ENDROOT
BRANCH   1  15
HETATM   15  C3  UNL     1      32.447   7.007   6.691  1.00  0.00     0.087 A
HETATM   16  C2  UNL     1      31.808   8.142   6.294  1.00  0.00    -0.003 A
HETATM   17  C1  UNL     1      31.091   8.989   7.259  1.00  0.00     0.053 C
HETATM   18  C18 UNL     1      31.791   8.558   4.955  1.00  0.00     0.070 A
HETATM   19  C15 UNL     1      32.433   7.813   4.000  1.00  0.00     0.099 A
HETATM   20  N10 UNL     1      31.144   9.691   4.620  1.00  0.00    -0.359 N
HETATM   21  C14 UNL     1      33.086   6.658   4.384  1.00  0.00     0.130 A
HETATM   22  N9  UNL     1      32.403   8.233   2.723  1.00  0.00    -0.318 N
HETATM   23  C13 UNL     1      33.091   6.263   5.709  1.00  0.00     0.129 A
HETATM   24  C16 UNL     1      31.757   9.358   2.402  1.00  0.00     0.261 A
ATOM     25  H9  UNL     1      32.874   7.691   1.998  1.00  0.00     0.169 HD
HETATM   26  O3  UNL     1      31.765   9.699   1.192  1.00  0.00    -0.267 OA
HETATM   27  C17 UNL     1      31.112  10.111   3.349  1.00  0.00     0.163 A
ATOM     28  H10 UNL     1      30.673  10.235   5.343  1.00  0.00     0.165 HD
BRANCH  21  29
HETATM   29  O2  UNL     1      33.724   5.922   3.403  1.00  0.00    -0.356 OA
ATOM     30  H2  UNL     1      33.814   6.246   2.515  1.00  0.00     0.218 HD
ENDBRANCH  21  29
BRANCH  23  31
HETATM   31  O1  UNL     1      33.739   5.111   6.111  1.00  0.00    -0.356 OA
ATOM     32  H1  UNL     1      33.213   4.324   6.198  1.00  0.00     0.218 HD
ENDBRANCH  23  31
ENDBRANCH   1  15
BRANCH  13  33
HETATM   33  N6  UNL     1      29.396   4.635   8.128  1.00  0.00    -0.308 N
HETATM   34  C9  UNL     1      28.159   4.955   8.283  1.00  0.00     0.137 C
ATOM     35  H6  UNL     1      29.646   3.655   8.261  1.00  0.00     0.186 HD
BRANCH  34  36
HETATM   36  C10 UNL     1      27.122   3.951   8.640  1.00  0.00     0.057 A
HETATM   37  C11 UNL     1      27.017   3.517   9.933  1.00  0.00     0.084 A
HETATM   38  S1  UNL     1      25.722   2.407   9.831  1.00  0.00    -0.064 SA
HETATM   39  C12 UNL     1      25.395   2.557   8.168  1.00  0.00     0.142 A
HETATM   40  N8  UNL     1      26.291   3.453   7.760  1.00  0.00    -0.335 N
ATOM     41  H8  UNL     1      26.329   3.745   6.784  1.00  0.00     0.168 HD
BRANCH  39  42
HETATM   42  N7  UNL     1      24.484   1.946   7.448  1.00  0.00    -0.380 N
ATOM     43  H72 UNL     1      23.505   2.207   7.326  1.00  0.00     0.158 HD
ATOM     44  H71 UNL     1      24.574   1.104   6.879  1.00  0.00     0.158 HD
ENDBRANCH  39  42
ENDBRANCH  34  36
ENDBRANCH  13  33
TORSDOF 6
ENDMDL