MODEL 1
REMARK VINA RESULT: -9.045517240      0.000      0.000
REMARK  8 active torsions:
REMARK  status: ('A' for Active; 'I' for Inactive)
REMARK    1  A    between atoms: C6_6  and  N1_7
REMARK    2  A    between atoms: N1_7  and  C7_9
REMARK    3  A    between atoms: C7_9  and  N2_11
REMARK    4  A    between atoms: N2_11  and  C8_13
REMARK    5  A    between atoms: C8_13  and  O1_14
REMARK    6  A    between atoms: C10_17  and  N3_18
REMARK    7  A    between atoms: C11_19  and  O2_20
REMARK    8  A    between atoms: C16_35  and  N9_36
ROOT
HETATM    1  C8  UNL     1      32.359   4.655   9.554  1.00  0.00     0.159 C
HETATM    2  C9  UNL     1      30.936   4.742   9.580  1.00  0.00     0.102 A
HETATM    3  C10 UNL     1      30.113   4.885   8.538  1.00  0.00     0.150 A
HETATM    4  N8  UNL     1      28.724   4.952   8.761  1.00  0.00    -0.175 N
ATOM      5  H8  UNL     1      28.107   5.063   7.956  1.00  0.00     0.186 HD
HETATM    6  C16 UNL     1      28.190   4.880   9.947  1.00  0.00     0.678 A
HETATM    7  N10 UNL     1      28.976   4.736  11.023  1.00  0.00    -0.178 N
ATOM      8  H10 UNL     1      28.568   4.678  11.956  1.00  0.00     0.185 HD
HETATM    9  C17 UNL     1      30.300   4.669  10.858  1.00  0.00     0.150 A
HETATM   10  N11 UNL     1      31.074   4.516  12.045  1.00  0.00    -0.081 NA
ENDROOT
BRANCH   1  11
HETATM   11  N2  UNL     1      33.332   4.685   8.570  1.00  0.00    -0.313 N
ATOM     12  H2  UNL     1      33.130   4.150   7.725  1.00  0.00     0.170 HD
BRANCH  11  13
HETATM   13  C7  UNL     1      34.578   5.368   8.591  1.00  0.00     0.178 C
HETATM   14  S1  UNL     1      34.474   7.010   8.902  1.00  0.00    -0.040 SA
BRANCH  13  15
HETATM   15  N1  UNL     1      35.840   4.878   8.346  1.00  0.00    -0.333 N
ATOM     16  H1  UNL     1      36.185   4.963   7.390  1.00  0.00     0.168 HD
BRANCH  15  17
HETATM   17  C6  UNL     1      36.727   4.260   9.293  1.00  0.00     0.034 A
HETATM   18  C5  UNL     1      37.983   3.876   8.876  1.00  0.00     0.029 A
HETATM   19  C4  UNL     1      38.901   3.243   9.692  1.00  0.00     0.003 A
HETATM   20  C3  UNL     1      38.532   2.988  10.984  1.00  0.00     0.007 A
HETATM   21  C2  UNL     1      37.297   3.348  11.446  1.00  0.00    -0.060 A
HETATM   22  C1  UNL     1      36.930   3.056  12.855  1.00  0.00     0.048 C
HETATM   23  C18 UNL     1      36.386   3.992  10.588  1.00  0.00     0.036 A
ENDBRANCH  15  17
ENDBRANCH  13  15
ENDBRANCH  11  13
ENDBRANCH   1  11
BRANCH   1  24
HETATM   24  O1  UNL     1      32.873   4.513  10.752  1.00  0.00    -0.345 OA
ATOM     25  H1  UNL     1      33.284   3.664  10.867  1.00  0.00     0.219 HD
ENDBRANCH   1  24
BRANCH   3  26
HETATM   26  N3  UNL     1      30.477   4.982   7.180  1.00  0.00    -0.244 N
HETATM   27  C11 UNL     1      30.349   4.062   6.179  1.00  0.00     0.231 A
HETATM   28  N4  UNL     1      30.745   4.608   5.012  1.00  0.00    -0.316 N
HETATM   29  C12 UNL     1      31.133   5.868   5.222  1.00  0.00     0.122 A
ATOM     30  H4  UNL     1      30.748   4.133   4.109  1.00  0.00     0.169 HD
HETATM   31  C13 UNL     1      31.615   6.842   4.376  1.00  0.00     0.148 A
HETATM   32  C15 UNL     1      30.965   6.104   6.582  1.00  0.00     0.148 A
HETATM   33  N5  UNL     1      31.806   6.659   2.984  1.00  0.00    -0.080 NA
HETATM   34  N6  UNL     1      31.920   8.033   4.914  1.00  0.00    -0.339 N
HETATM   35  C14 UNL     1      31.770   8.295   6.225  1.00  0.00     0.183 A
ATOM     36  H6  UNL     1      32.279   8.769   4.306  1.00  0.00     0.167 HD
HETATM   37  N7  UNL     1      31.300   7.328   7.016  1.00  0.00    -0.336 N
ATOM     38  H7  UNL     1      31.189   7.531   8.009  1.00  0.00     0.168 HD
BRANCH  27  39
HETATM   39  O2  UNL     1      29.885   2.773   6.333  1.00  0.00    -0.332 OA
ATOM     40  H2  UNL     1      30.017   2.063   5.715  1.00  0.00     0.221 HD
ENDBRANCH  27  39
ENDBRANCH   3  26
BRANCH   6  41
HETATM   41  N9  UNL     1      26.927   4.944  10.117  1.00  0.00    -0.234 N
ATOM     42  H92 UNL     1      26.317   4.544   9.403  1.00  0.00     0.174 HD
ATOM     43  H91 UNL     1      26.520   5.381  10.944  1.00  0.00     0.174 HD
ENDBRANCH   6  41
TORSDOF 8
ENDMDL