MODEL 4
REMARK VINA RESULT: -7.693750264      2.971      9.399
REMARK  7 active torsions:
REMARK  status: ('A' for Active; 'I' for Inactive)
REMARK    1  A    between atoms: N5_15  and  C6_16
REMARK    2  A    between atoms: C9_19  and  C10_20
REMARK    3  A    between atoms: C10_20  and  N7_25
REMARK    4  A    between atoms: N6_21  and  O1_23
REMARK    5  A    between atoms: C12_27  and  C13_28
REMARK    6  A    between atoms: C19_37  and  O5_38
REMARK    7  A    between atoms: C20_40  and  O6_41
ROOT
HETATM    1  C6  UNL     1      31.630   4.202   8.155  1.00  0.00     0.078 A
HETATM    2  C7  UNL     1      31.996   4.160   9.478  1.00  0.00     0.034 A
HETATM    3  C8  UNL     1      33.290   4.445   9.889  1.00  0.00     0.020 A
HETATM    4  C9  UNL     1      34.271   4.786   8.978  1.00  0.00     0.046 A
HETATM    5  C19 UNL     1      33.920   4.836   7.627  1.00  0.00     0.115 A
HETATM    6  C20 UNL     1      32.632   4.549   7.237  1.00  0.00     0.127 A
ENDROOT
BRANCH   4   7
HETATM    7  C10 UNL     1      35.607   5.093   9.468  1.00  0.00     0.138 C
HETATM    8  N6  UNL     1      35.926   6.343   9.572  1.00  0.00    -0.252 N
ATOM      9  H6  UNL     1      36.863   6.552   9.917  1.00  0.00     0.196 HD
BRANCH   8  10
HETATM   10  O1  UNL     1      35.142   7.396   9.269  1.00  0.00    -0.288 OA
ATOM     11  H1  UNL     1      35.436   8.266   9.023  1.00  0.00     0.244 HD
ENDBRANCH   8  10
BRANCH   7  12
HETATM   12  N7  UNL     1      36.570   4.143   9.853  1.00  0.00    -0.330 N
HETATM   13  C11 UNL     1      37.477   3.463   8.950  1.00  0.00     0.170 C
HETATM   14  C12 UNL     1      38.684   3.292   9.891  1.00  0.00     0.243 C
HETATM   15  O4  UNL     1      37.998   2.827  11.030  1.00  0.00    -0.343 OA
HETATM   16  C14 UNL     1      36.900   3.641  11.158  1.00  0.00     0.139 C
HETATM   17  C15 UNL     1      35.783   2.974  11.890  1.00  0.00     0.061 C
HETATM   18  C18 UNL     1      37.280   4.752  12.122  1.00  0.00     0.061 C
HETATM   19  C16 UNL     1      36.389   2.820  13.292  1.00  0.00     0.005 C
HETATM   20  C17 UNL     1      37.318   4.008  13.441  1.00  0.00     0.005 C
BRANCH  14  21
HETATM   21  C13 UNL     1      39.615   2.270   9.380  1.00  0.00     0.204 C
HETATM   22  O2  UNL     1      40.612   1.972  10.072  1.00  0.00    -0.646 OA
HETATM   23  O3  UNL     1      39.386   1.658   8.160  1.00  0.00    -0.646 OA
ENDBRANCH  14  21
ENDBRANCH   7  12
ENDBRANCH   4   7
BRANCH   5  24
HETATM   24  O5  UNL     1      34.922   5.180   6.755  1.00  0.00    -0.357 OA
ATOM     25  H5  UNL     1      35.583   4.516   6.595  1.00  0.00     0.217 HD
ENDBRANCH   5  24
BRANCH   6  26
HETATM   26  O6  UNL     1      32.268   4.592   5.919  1.00  0.00    -0.356 OA
ATOM     27  H6  UNL     1      32.973   4.576   5.282  1.00  0.00     0.218 HD
ENDBRANCH   6  26
BRANCH   1  28
HETATM   28  N5  UNL     1      30.303   3.910   7.733  1.00  0.00    -0.289 N
HETATM   29  C3  UNL     1      29.148   4.236   8.356  1.00  0.00     0.145 A
HETATM   30  N3  UNL     1      28.908   4.898   9.496  1.00  0.00    -0.336 N
HETATM   31  C4  UNL     1      28.064   3.779   7.638  1.00  0.00     0.122 A
HETATM   32  C2  UNL     1      27.656   5.110   9.929  1.00  0.00     0.183 A
ATOM     33  H3  UNL     1      29.693   5.247  10.046  1.00  0.00     0.168 HD
HETATM   34  N2  UNL     1      26.586   4.673   9.244  1.00  0.00    -0.337 N
HETATM   35  C1  UNL     1      26.786   4.005   8.097  1.00  0.00     0.131 A
ATOM     36  H2  UNL     1      25.642   4.843   9.589  1.00  0.00     0.168 HD
HETATM   37  N1  UNL     1      25.808   3.555   7.384  1.00  0.00    -0.383 N
ATOM     38  H12 UNL     1      24.861   3.722   7.723  1.00  0.00     0.157 HD
ATOM     39  H11 UNL     1      25.959   3.048   6.512  1.00  0.00     0.157 HD
HETATM   40  N4  UNL     1      28.580   3.160   6.554  1.00  0.00    -0.346 N
HETATM   41  C5  UNL     1      29.920   3.242   6.616  1.00  0.00     0.191 A
ATOM     42  H4  UNL     1      28.044   2.708   5.813  1.00  0.00     0.167 HD
ENDBRANCH   1  28
TORSDOF 7
ENDMDL