MODEL 1
REMARK VINA RESULT: -8.611719833      0.000      0.000
REMARK  7 active torsions:
REMARK  status: ('A' for Active; 'I' for Inactive)
REMARK    1  A    between atoms: C3_3  and  O1_4
REMARK    2  A    between atoms: C6_9  and  C7_10
REMARK    3  A    between atoms: C9_13  and  N2_14
REMARK    4  A    between atoms: C10_17  and  C11_18
REMARK    5  A    between atoms: C12_21  and  N4_22
REMARK       I    between atoms: N4_22  and  C13_24
REMARK    6  A    between atoms: C13_24  and  C14_26
REMARK    7  A    between atoms: C14_26  and  O4_30
ROOT
HETATM    1  C7  UNL     1      31.759   4.632   9.668  1.00  0.00     0.117 A
HETATM    2  C8  UNL     1      31.061   5.137   8.600  1.00  0.00     0.151 A
HETATM    3  N1  UNL     1      29.727   5.163   8.887  1.00  0.00    -0.137 N
HETATM    4  C9  UNL     1      28.636   5.550   8.218  1.00  0.00     0.154 A
HETATM    5  C10 UNL     1      27.402   5.446   8.799  1.00  0.00     0.139 A
HETATM    6  N8  UNL     1      27.337   4.951  10.047  1.00  0.00    -0.280 N
ATOM      7  H8  UNL     1      26.423   4.869  10.492  1.00  0.00     0.188 HD
HETATM    8  N9  UNL     1      28.404   4.566  10.720  1.00  0.00    -0.131 N
ATOM      9  H9  UNL     1      28.311   4.194  11.665  1.00  0.00     0.205 HD
HETATM   10  C15 UNL     1      29.615   4.667  10.148  1.00  0.00     0.705 A
HETATM   11  N10 UNL     1      30.847   4.352  10.604  1.00  0.00    -0.184 N
ATOM     12  H10 UNL     1      31.050   3.959  11.523  1.00  0.00     0.184 HD
ENDROOT
BRANCH   5  13
HETATM   13  C11 UNL     1      26.175   5.865   8.088  1.00  0.00     0.168 A
HETATM   14  N3  UNL     1      25.886   7.070   7.598  1.00  0.00    -0.171 N
HETATM   15  C12 UNL     1      24.671   7.038   7.023  1.00  0.00     0.701 A
ATOM     16  H3  UNL     1      26.492   7.889   7.650  1.00  0.00     0.186 HD
HETATM   17  N6  UNL     1      24.216   5.776   7.171  1.00  0.00    -0.130 N
HETATM   18  N7  UNL     1      25.132   5.070   7.817  1.00  0.00    -0.269 N
ATOM     19  H6  UNL     1      23.317   5.425   6.841  1.00  0.00     0.205 HD
ATOM     20  H7  UNL     1      25.055   4.084   8.067  1.00  0.00     0.189 HD
BRANCH  15  21
HETATM   21  N4  UNL     1      24.045   8.140   6.400  1.00  0.00    -0.151 N
HETATM   22  C13 UNL     1      24.606   8.723   5.240  1.00  0.00     0.310 C
HETATM   23  O3  UNL     1      25.686   8.266   4.733  1.00  0.00    -0.263 OA
ATOM     24  H4  UNL     1      23.181   8.519   6.790  1.00  0.00     0.188 HD
BRANCH  22  25
HETATM   25  C14 UNL     1      23.994   9.858   4.568  1.00  0.00     0.204 C
HETATM   26  N5  UNL     1      22.876   9.739   3.948  1.00  0.00    -0.376 N
ATOM     27  H52 UNL     1      22.418   8.828   3.932  1.00  0.00     0.158 HD
ATOM     28  H51 UNL     1      22.447  10.536   3.477  1.00  0.00     0.158 HD
BRANCH  25  29
HETATM   29  O4  UNL     1      24.616  11.094   4.589  1.00  0.00    -0.342 OA
ATOM     30  H4  UNL     1      24.136  11.864   4.871  1.00  0.00     0.219 HD
ENDBRANCH  25  29
ENDBRANCH  22  25
ENDBRANCH  15  21
ENDBRANCH   5  13
BRANCH   4  31
HETATM   31  N2  UNL     1      28.735   6.018   7.029  1.00  0.00    -0.383 N
ATOM     32  H22 UNL     1      28.651   5.386   6.233  1.00  0.00     0.157 HD
ATOM     33  H21 UNL     1      28.897   7.014   6.876  1.00  0.00     0.157 HD
ENDBRANCH   4  31
BRANCH   1  34
HETATM   34  C6  UNL     1      33.211   4.452   9.729  1.00  0.00     0.177 A
HETATM   35  O2  UNL     1      34.082   4.763   8.799  1.00  0.00    -0.289 OA
HETATM   36  C5  UNL     1      35.303   4.478   9.163  1.00  0.00     0.107 A
HETATM   37  C4  UNL     1      36.515   4.633   8.506  1.00  0.00     0.076 A
HETATM   38  C16 UNL     1      35.220   3.938  10.428  1.00  0.00     0.075 A
HETATM   39  C3  UNL     1      37.654   4.225   9.174  1.00  0.00     0.074 A
HETATM   40  C2  UNL     1      37.613   3.682  10.439  1.00  0.00    -0.021 A
HETATM   41  C1  UNL     1      38.826   3.248  11.145  1.00  0.00     0.052 C
HETATM   42  C17 UNL     1      36.393   3.544  11.054  1.00  0.00    -0.024 A
HETATM   43  C18 UNL     1      36.302   2.971  12.399  1.00  0.00     0.051 C
HETATM   44  N11 UNL     1      33.930   3.937  10.744  1.00  0.00    -0.332 N
ATOM     45  H11 UNL     1      33.542   3.598  11.625  1.00  0.00     0.168 HD
BRANCH  39  46
HETATM   46  O1  UNL     1      38.862   4.384   8.514  1.00  0.00    -0.360 OA
ATOM     47  H1  UNL     1      39.418   3.634   8.336  1.00  0.00     0.217 HD
ENDBRANCH  39  46
ENDBRANCH   1  34
TORSDOF 7
ENDMDL