MODEL 4
REMARK VINA RESULT: -8.435476535      4.531      5.696
REMARK  7 active torsions:
REMARK  status: ('A' for Active; 'I' for Inactive)
REMARK    1  A    between atoms: N1_2  and  C2_3
REMARK    2  A    between atoms: N1_2  and  C11_28
REMARK    3  A    between atoms: C5_6  and  C6_7
REMARK    4  A    between atoms: C6_7  and  N2_8
REMARK    5  A    between atoms: C6_7  and  N3_11
REMARK    6  A    between atoms: N3_11  and  N4_13
REMARK    7  A    between atoms: C15_38  and  N12_39
ROOT
HETATM    1  C2  UNL     1      33.618   4.900  10.138  1.00  0.00     0.150 A
HETATM    2  C3  UNL     1      32.637   4.159  10.742  1.00  0.00     0.059 A
HETATM    3  C4  UNL     1      31.774   3.756   9.726  1.00  0.00     0.045 A
HETATM    4  C5  UNL     1      32.268   4.270   8.554  1.00  0.00     0.122 A
HETATM    5  O2  UNL     1      33.356   4.935   8.857  1.00  0.00    -0.290 OA
ENDROOT
BRANCH   4   6
HETATM    6  C6  UNL     1      31.780   4.168   7.188  1.00  0.00     0.149 C
BRANCH   6   7
HETATM    7  N2  UNL     1      30.800   3.359   6.887  1.00  0.00    -0.382 N
ATOM      8  H22 UNL     1      30.764   2.474   7.392  1.00  0.00     0.157 HD
ATOM      9  H21 UNL     1      30.114   3.612   6.175  1.00  0.00     0.157 HD
ENDBRANCH   6   7
BRANCH   6  10
HETATM   10  N3  UNL     1      32.323   4.932   6.129  1.00  0.00    -0.264 N
ATOM     11  H3  UNL     1      32.964   4.508   5.459  1.00  0.00     0.190 HD
BRANCH  10  12
HETATM   12  N4  UNL     1      31.961   6.291   6.014  1.00  0.00    -0.188 N
HETATM   13  C7  UNL     1      31.371   7.167   7.012  1.00  0.00     0.310 C
HETATM   14  N5  UNL     1      30.585   8.079   6.192  1.00  0.00    -0.205 N
HETATM   15  C8  UNL     1      31.273   8.169   4.954  1.00  0.00     0.708 A
ATOM     16  H5  UNL     1      29.721   8.553   6.454  1.00  0.00     0.179 HD
HETATM   17  N6  UNL     1      31.257   9.056   3.948  1.00  0.00    -0.164 N
HETATM   18  N8  UNL     1      32.099   7.088   4.857  1.00  0.00    -0.013 N
HETATM   19  C9  UNL     1      32.017   8.918   2.857  1.00  0.00     0.194 A
ATOM     20  H6  UNL     1      30.641   9.867   4.018  1.00  0.00     0.186 HD
HETATM   21  S1  UNL     1      31.958  10.026   1.662  1.00  0.00    -0.040 SA
HETATM   22  N7  UNL     1      32.826   7.863   2.756  1.00  0.00    -0.283 N
HETATM   23  C10 UNL     1      32.853   6.977   3.745  1.00  0.00     0.364 A
ATOM     24  H7  UNL     1      33.415   7.739   1.933  1.00  0.00     0.173 HD
HETATM   25  O1  UNL     1      33.613   5.973   3.664  1.00  0.00    -0.244 OA
ENDBRANCH  10  12
ENDBRANCH   6  10
ENDBRANCH   4   6
BRANCH   1  26
HETATM   26  N1  UNL     1      34.743   5.552  10.687  1.00  0.00    -0.330 N
HETATM   27  C1  UNL     1      34.734   7.026  10.563  1.00  0.00     0.158 C
BRANCH  26  28
HETATM   28  C11 UNL     1      35.830   4.952  11.342  1.00  0.00     0.069 A
HETATM   29  C12 UNL     1      36.035   4.846  12.723  1.00  0.00     0.120 A
HETATM   30  N9  UNL     1      37.155   4.161  12.950  1.00  0.00    -0.349 N
HETATM   31  C13 UNL     1      37.720   3.800  11.776  1.00  0.00     0.122 A
ATOM     32  H9  UNL     1      37.530   3.941  13.872  1.00  0.00     0.167 HD
HETATM   33  N10 UNL     1      38.846   3.115  11.481  1.00  0.00    -0.338 N
HETATM   34  C16 UNL     1      36.893   4.297  10.765  1.00  0.00     0.080 A
HETATM   35  C14 UNL     1      39.210   2.889  10.217  1.00  0.00     0.183 A
ATOM     36  H10 UNL     1      39.430   2.764  12.240  1.00  0.00     0.168 HD
HETATM   37  N11 UNL     1      38.450   3.346   9.227  1.00  0.00    -0.338 N
HETATM   38  C15 UNL     1      37.287   4.053   9.463  1.00  0.00     0.116 A
ATOM     39  H11 UNL     1      38.735   3.170   8.263  1.00  0.00     0.168 HD
BRANCH  38  40
HETATM   40  N12 UNL     1      36.635   4.472   8.473  1.00  0.00    -0.385 N
ATOM     41 2H12 UNL     1      37.006   5.176   7.834  1.00  0.00     0.157 HD
ATOM     42 1H12 UNL     1      35.711   4.076   8.300  1.00  0.00     0.157 HD
ENDBRANCH  38  40
ENDBRANCH  26  28
ENDBRANCH   1  26
TORSDOF 7
ENDMDL