MODEL 3
REMARK VINA RESULT: -8.503575296      0.065      1.409
REMARK  5 active torsions:
REMARK  status: ('A' for Active; 'I' for Inactive)
REMARK    1  A    between atoms: N1_1  and  C1_4
REMARK    2  A    between atoms: C2_7  and  N3_8
REMARK    3  A    between atoms: C4_10  and  C5_11
REMARK    4  A    between atoms: C12_28  and  N8_29
REMARK    5  A    between atoms: C16_41  and  N12_42
ROOT
HETATM    1  C5  UNL     1      32.036   5.089   8.005  1.00  0.00     0.074 A
HETATM    2  N4  UNL     1      32.241   5.172   6.653  1.00  0.00    -0.339 N
ATOM      3  H4  UNL     1      33.145   5.480   6.294  1.00  0.00     0.167 HD
HETATM    4  C6  UNL     1      31.271   4.853   5.810  1.00  0.00     0.123 A
HETATM    5  N5  UNL     1      31.486   4.939   4.462  1.00  0.00    -0.318 N
ATOM      6  H5  UNL     1      32.396   5.249   4.124  1.00  0.00     0.170 HD
HETATM    7  C7  UNL     1      30.533   4.626   3.575  1.00  0.00     0.178 A
HETATM    8  S1  UNL     1      30.892   4.763   1.990  1.00  0.00    -0.040 SA
HETATM    9  N6  UNL     1      29.321   4.213   3.986  1.00  0.00    -0.319 N
ATOM     10  H6  UNL     1      28.607   3.979   3.297  1.00  0.00     0.170 HD
HETATM   11  C8  UNL     1      29.035   4.103   5.322  1.00  0.00     0.116 A
HETATM   12  N7  UNL     1      27.864   3.704   5.584  1.00  0.00    -0.385 N
ATOM     13  H71 UNL     1      27.652   3.622   6.579  1.00  0.00     0.157 HD
ATOM     14  H72 UNL     1      27.132   3.465   4.916  1.00  0.00     0.157 HD
HETATM   15  C9  UNL     1      30.013   4.423   6.215  1.00  0.00     0.063 A
HETATM   16  C10 UNL     1      29.786   4.334   7.592  1.00  0.00    -0.004 A
HETATM   17  C11 UNL     1      28.573   3.919   8.052  1.00  0.00     0.049 A
HETATM   18  C12 UNL     1      28.342   3.826   9.425  1.00  0.00     0.103 A
HETATM   19  C13 UNL     1      29.351   4.159  10.289  1.00  0.00     0.037 A
HETATM   20  C14 UNL     1      30.576   4.577   9.838  1.00  0.00     0.017 A
HETATM   21  C15 UNL     1      30.825   4.675   8.483  1.00  0.00     0.004 A
ENDROOT
BRANCH   1  22
HETATM   22  C4  UNL     1      33.161   5.461   8.865  1.00  0.00     0.095 A
HETATM   23  C3  UNL     1      34.186   4.565   9.253  1.00  0.00     0.170 A
HETATM   24  N3  UNL     1      35.060   5.208  10.035  1.00  0.00    -0.080 N
HETATM   25  N10 UNL     1      34.628   6.441  10.147  1.00  0.00    -0.221 N
HETATM   26  N9  UNL     1      33.520   6.577   9.462  1.00  0.00    -0.282 N
ATOM     27  H10 UNL     1      35.083   7.179  10.683  1.00  0.00     0.209 HD
ATOM     28  H9  UNL     1      32.996   7.450   9.397  1.00  0.00     0.188 HD
BRANCH  24  29
HETATM   29  C2  UNL     1      36.231   4.633  10.622  1.00  0.00     0.733 A
HETATM   30  N2  UNL     1      36.417   4.715  11.948  1.00  0.00    -0.020 N
HETATM   31  C1  UNL     1      37.519   4.175  12.511  1.00  0.00     0.705 A
ATOM     32  H2  UNL     1      35.725   5.185  12.531  1.00  0.00     0.203 HD
HETATM   33  N13 UNL     1      38.410   3.559  11.693  1.00  0.00    -0.022 N
HETATM   34  C16 UNL     1      38.206   3.489  10.381  1.00  0.00     0.705 A
ATOM     35  H13 UNL     1      39.251   3.143  12.091  1.00  0.00     0.203 HD
HETATM   36  N11 UNL     1      37.101   4.027   9.797  1.00  0.00    -0.020 N
ATOM     37  H11 UNL     1      36.942   3.973   8.791  1.00  0.00     0.203 HD
BRANCH  31  38
HETATM   38  N1  UNL     1      37.734   4.232  13.775  1.00  0.00    -0.234 N
ATOM     39  H12 UNL     1      37.022   3.913  14.433  1.00  0.00     0.174 HD
ATOM     40  H11 UNL     1      38.607   4.592  14.159  1.00  0.00     0.174 HD
ENDBRANCH  31  38
BRANCH  34  41
HETATM   41  N12 UNL     1      39.065   2.900   9.635  1.00  0.00    -0.234 N
ATOM     42 2H12 UNL     1      39.908   3.396   9.346  1.00  0.00     0.174 HD
ATOM     43 1H12 UNL     1      38.881   1.938   9.347  1.00  0.00     0.174 HD
ENDBRANCH  34  41
ENDBRANCH  24  29
ENDBRANCH   1  22
BRANCH  18  44
HETATM   44  N8  UNL     1      27.068   3.392   9.855  1.00  0.00    -0.116 N
HETATM   45  O1  UNL     1      26.047   4.006   9.519  1.00  0.00    -0.532 OA
HETATM   46  O2  UNL     1      26.885   2.284  10.657  1.00  0.00    -0.532 OA
ENDBRANCH  18  44
TORSDOF 5
ENDMDL