MODEL 2
REMARK VINA RESULT: -6.976808499      1.126      1.713
REMARK  8 active torsions:
REMARK  status: ('A' for Active; 'I' for Inactive)
REMARK    1  A    between atoms: C1_2  and  C2_4
REMARK    2  A    between atoms: C2_4  and  O4_6
REMARK    3  A    between atoms: O4_6  and  C3_7
REMARK    4  A    between atoms: C7_11  and  C8_12
REMARK    5  A    between atoms: C8_12  and  O5_13
REMARK    6  A    between atoms: N1_15  and  O6_17
REMARK    7  A    between atoms: C9_22  and  O7_23
REMARK    8  A    between atoms: N3_26  and  O8_28
ROOT
HETATM    1  C3  UNL     1      30.531   5.400   5.987  1.00  0.00     0.156 C
HETATM    2  C4  UNL     1      31.446   4.406   6.644  1.00  0.00     0.035 C
HETATM    3  C5  UNL     1      31.716   4.877   8.056  1.00  0.00     0.005 C
HETATM    4  C6  UNL     1      31.123   3.914   9.078  1.00  0.00     0.042 C
HETATM    5  C7  UNL     1      30.439   4.680  10.209  1.00  0.00     0.265 C
HETATM    6  N2  UNL     1      29.247   3.990  10.660  1.00  0.00    -0.032 N
ATOM      7  H21 UNL     1      29.144   4.014  11.675  1.00  0.00     0.281 HD
ATOM      8  H22 UNL     1      29.318   2.979  10.549  1.00  0.00     0.281 HD
HETATM    9  C9  UNL     1      28.099   4.543   9.975  1.00  0.00     0.368 C
HETATM   10  C10 UNL     1      27.094   3.517   9.595  1.00  0.00     0.067 C
HETATM   11  N3  UNL     1      26.942   2.457  10.283  1.00  0.00    -0.273 N
ATOM     12  H3  UNL     1      26.243   1.775   9.992  1.00  0.00     0.193 HD
HETATM   13  C11 UNL     1      26.255   3.755   8.377  1.00  0.00     0.079 C
HETATM   14  C12 UNL     1      27.185   4.030   7.245  1.00  0.00     0.126 C
HETATM   15  N4  UNL     1      26.637   3.690   5.949  1.00  0.00    -0.387 N
ATOM     16  H4  UNL     1      25.817   4.215   5.642  1.00  0.00     0.159 HD
HETATM   17  C13 UNL     1      27.132   2.695   5.063  1.00  0.00     0.061 A
HETATM   18  C14 UNL     1      26.212   1.799   4.560  1.00  0.00     0.032 A
HETATM   19  C15 UNL     1      26.538   0.749   3.706  1.00  0.00     0.002 A
HETATM   20  C16 UNL     1      27.846   0.590   3.338  1.00  0.00     0.003 A
HETATM   21  C17 UNL     1      28.768   1.481   3.835  1.00  0.00     0.039 A
HETATM   22  C18 UNL     1      28.456   2.545   4.696  1.00  0.00     0.095 A
HETATM   23  O9  UNL     1      29.454   3.396   5.141  1.00  0.00    -0.346 OA
HETATM   24  C19 UNL     1      29.609   4.768   4.971  1.00  0.00     0.208 C
ENDROOT
BRANCH   5  25
HETATM   25  C8  UNL     1      31.398   4.821  11.342  1.00  0.00     0.167 C
HETATM   26  N1  UNL     1      31.008   5.345  12.447  1.00  0.00    -0.249 N
ATOM     27  H1  UNL     1      31.678   5.435  13.210  1.00  0.00     0.196 HD
BRANCH  25  28
HETATM   28  O5  UNL     1      32.701   4.400  11.231  1.00  0.00    -0.347 OA
ATOM     29  H5  UNL     1      33.209   4.158  11.996  1.00  0.00     0.219 HD
ENDBRANCH  25  28
BRANCH  26  30
HETATM   30  O6  UNL     1      29.738   5.786  12.641  1.00  0.00    -0.288 OA
ATOM     31  H6  UNL     1      29.003   5.197  12.762  1.00  0.00     0.244 HD
ENDBRANCH  26  30
ENDBRANCH   5  25
BRANCH   9  32
HETATM   32  O7  UNL     1      27.426   5.471  10.804  1.00  0.00    -0.365 OA
ATOM     33  H7  UNL     1      26.965   5.019  11.501  1.00  0.00     0.212 HD
ENDBRANCH   9  32
BRANCH   1  34
HETATM   34  O4  UNL     1      31.200   6.470   5.395  1.00  0.00    -0.305 OA
BRANCH  34  35
HETATM   35  C2  UNL     1      32.522   6.514   5.047  1.00  0.00     0.360 C
HETATM   36  O3  UNL     1      33.326   6.999   5.885  1.00  0.00    -0.252 OA
BRANCH  35  37
HETATM   37  C1  UNL     1      32.940   6.012   3.752  1.00  0.00     0.277 C
HETATM   38  O1  UNL     1      32.705   4.830   3.434  1.00  0.00    -0.640 OA
HETATM   39  O2  UNL     1      33.613   6.891   2.880  1.00  0.00    -0.640 OA
ENDBRANCH  35  37
ENDBRANCH  34  35
ENDBRANCH   1  34
BRANCH  11  40
HETATM   40  O8  UNL     1      27.687   2.205  11.398  1.00  0.00    -0.290 OA
ATOM     41  H8  UNL     1      27.288   1.974  12.229  1.00  0.00     0.244 HD
ENDBRANCH  11  40
TORSDOF 8
ENDMDL