MODEL 1
REMARK VINA RESULT: -8.193500752      0.000      0.000
REMARK  6 active torsions:
REMARK  status: ('A' for Active; 'I' for Inactive)
REMARK       I    between atoms: N1_2  and  C2_4
REMARK    1  A    between atoms: C2_4  and  C3_6
REMARK    2  A    between atoms: C8_13  and  O2_14
REMARK    3  A    between atoms: N3_16  and  C9_17
REMARK    4  A    between atoms: C15_24  and  O3_25
REMARK    5  A    between atoms: C18_31  and  N6_32
REMARK    6  A    between atoms: N6_32  and  C19_34
ROOT
HETATM    1  C3  UNL     1      32.703   5.577   8.335  1.00  0.00     0.074 C
HETATM    2  C4  UNL     1      31.435   5.203   7.642  1.00  0.00     0.029 C
HETATM    3  C5  UNL     1      33.934   5.120   7.555  1.00  0.00     0.167 C
HETATM    4  N2  UNL     1      34.112   6.002   6.411  1.00  0.00    -0.373 N
ATOM      5  H2  UNL     1      34.959   5.902   5.852  1.00  0.00     0.160 HD
HETATM    6  C6  UNL     1      33.174   6.993   6.032  1.00  0.00     0.092 A
HETATM    7  C7  UNL     1      32.443   7.590   7.059  1.00  0.00     0.031 A
HETATM    8  C8  UNL     1      31.604   8.495   6.504  1.00  0.00     0.158 A
HETATM    9  N3  UNL     1      31.807   8.465   5.155  1.00  0.00    -0.268 N
HETATM   10  C15 UNL     1      32.754   7.561   4.850  1.00  0.00     0.177 A
HETATM   11  C16 UNL     1      32.784   7.085   8.433  1.00  0.00     0.063 C
HETATM   12  C17 UNL     1      34.170   7.554   8.807  1.00  0.00     0.132 C
HETATM   13  N5  UNL     1      35.122   6.514   9.024  1.00  0.00    -0.377 N
ATOM     14  H5  UNL     1      35.896   6.704   9.661  1.00  0.00     0.160 HD
HETATM   15  C18 UNL     1      35.073   5.346   8.470  1.00  0.00     0.103 C
ENDROOT
BRANCH  15  16
HETATM   16  N6  UNL     1      36.033   4.383   8.766  1.00  0.00    -0.328 N
ATOM     17  H6  UNL     1      36.285   3.766   7.994  1.00  0.00     0.169 HD
BRANCH  16  18
HETATM   18  C19 UNL     1      36.701   4.140   9.968  1.00  0.00     0.139 A
HETATM   19  C20 UNL     1      36.297   3.678  11.189  1.00  0.00     0.161 A
HETATM   20  N7  UNL     1      37.363   3.627  12.029  1.00  0.00    -0.290 N
HETATM   21  C21 UNL     1      37.256   3.176  13.406  1.00  0.00     0.178 C
HETATM   22  N8  UNL     1      38.408   4.041  11.366  1.00  0.00    -0.240 N
HETATM   23  N9  UNL     1      38.050   4.353  10.142  1.00  0.00    -0.270 N
ATOM     24  H8  UNL     1      39.355   4.112  11.741  1.00  0.00     0.208 HD
ATOM     25  H9  UNL     1      38.682   4.703   9.421  1.00  0.00     0.190 HD
ENDBRANCH  16  18
ENDBRANCH  15  16
BRANCH   1  26
HETATM   26  C2  UNL     1      32.668   5.023   9.692  1.00  0.00     0.229 C
HETATM   27  N1  UNL     1      32.095   5.695  10.806  1.00  0.00    -0.365 N
HETATM   28  C1  UNL     1      32.088   5.105  12.123  1.00  0.00     0.149 C
ATOM     29  H1  UNL     1      31.679   6.617  10.672  1.00  0.00     0.161 HD
HETATM   30  O1  UNL     1      33.167   3.891   9.909  1.00  0.00    -0.273 OA
ENDBRANCH   1  26
BRANCH  10  31
HETATM   31  O3  UNL     1      33.273   7.206   3.601  1.00  0.00    -0.344 OA
ATOM     32  H3  UNL     1      32.784   7.288   2.792  1.00  0.00     0.219 HD
ENDBRANCH  10  31
BRANCH   8  33
HETATM   33  O2  UNL     1      30.719   9.285   7.223  1.00  0.00    -0.345 OA
ATOM     34  H2  UNL     1      29.779   9.151   7.245  1.00  0.00     0.219 HD
ENDBRANCH   8  33
BRANCH   9  35
HETATM   35  C9  UNL     1      31.110   9.281   4.214  1.00  0.00     0.068 A
HETATM   36  C10 UNL     1      31.497  10.597   3.969  1.00  0.00     0.032 A
HETATM   37  C11 UNL     1      30.823  11.391   3.059  1.00  0.00     0.002 A
HETATM   38  C12 UNL     1      29.743  10.878   2.373  1.00  0.00     0.002 A
HETATM   39  C13 UNL     1      29.339   9.587   2.592  1.00  0.00     0.029 A
HETATM   40  C14 UNL     1      30.017   8.802   3.503  1.00  0.00     0.073 A
HETATM   41  N4  UNL     1      29.568   7.465   3.705  1.00  0.00    -0.100 NA
ENDBRANCH   9  35
TORSDOF 6
ENDMDL