MODEL 1
REMARK VINA RESULT: -7.072010613      0.000      0.000
REMARK  7 active torsions:
REMARK  status: ('A' for Active; 'I' for Inactive)
REMARK    1  A    between atoms: C2_2  and  O1_3
REMARK    2  A    between atoms: O1_3  and  C3_4
REMARK    3  A    between atoms: C4_5  and  N1_6
REMARK    4  A    between atoms: N1_6  and  C5_8
REMARK    5  A    between atoms: C5_8  and  N2_10
REMARK    6  A    between atoms: N2_10  and  C6_12
REMARK    7  A    between atoms: C11_17  and  O2_18
ROOT
HETATM    1  C3  UNL     1      22.446  -1.734  12.433  1.00  0.00     0.155 C
HETATM    2  C4  UNL     1      21.805  -1.756  13.812  1.00  0.00     0.114 C
HETATM    3  C9  UNL     1      22.276  -0.621  14.589  1.00  0.00     0.030 C
HETATM    4  C10 UNL     1      23.493   0.119  14.200  1.00  0.00     0.035 C
HETATM    5  C11 UNL     1      23.711   0.377  12.741  1.00  0.00     0.132 C
HETATM    6  C13 UNL     1      22.705  -0.381  11.883  1.00  0.00     0.014 C
HETATM    7  C14 UNL     1      21.442   0.392  11.739  1.00  0.00     0.015 C
HETATM    8  C15 UNL     1      21.167   0.582  10.267  1.00  0.00     0.001 C
HETATM    9  C16 UNL     1      22.598   0.672   9.735  1.00  0.00     0.001 C
HETATM   10  C17 UNL     1      23.187  -0.529  10.464  1.00  0.00     0.015 C
ENDROOT
BRANCH   2  11
HETATM   11  N1  UNL     1      20.400  -2.038  13.748  1.00  0.00    -0.360 N
ATOM     12  H1  UNL     1      19.885  -1.420  13.120  1.00  0.00     0.162 HD
BRANCH  11  13
HETATM   13  C5  UNL     1      19.611  -2.980  14.370  1.00  0.00     0.168 C
HETATM   14  S1  UNL     1      19.620  -2.996  16.038  1.00  0.00    -0.041 SA
BRANCH  13  15
HETATM   15  N2  UNL     1      18.770  -3.966  13.817  1.00  0.00    -0.363 N
ATOM     16  H2  UNL     1      17.808  -4.011  14.156  1.00  0.00     0.162 HD
BRANCH  15  17
HETATM   17  C6  UNL     1      19.170  -4.921  12.802  1.00  0.00     0.075 C
HETATM   18  C7  UNL     1      17.963  -5.638  12.228  1.00  0.00     0.032 C
HETATM   19  C8  UNL     1      20.097  -5.975  13.366  1.00  0.00     0.032 C
ENDBRANCH  15  17
ENDBRANCH  13  15
ENDBRANCH  11  13
ENDBRANCH   2  11
BRANCH   1  20
HETATM   20  O1  UNL     1      21.749  -2.517  11.563  1.00  0.00    -0.383 OA
BRANCH  20  21
HETATM   21  C2  UNL     1      22.376  -3.746  11.418  1.00  0.00     0.163 C
HETATM   22  C1  UNL     1      21.846  -4.427  10.178  1.00  0.00     0.033 C
ENDBRANCH  20  21
ENDBRANCH   1  20
BRANCH   5  23
HETATM   23  O2  UNL     1      24.961   0.114  12.285  1.00  0.00    -0.390 OA
HETATM   24  C12 UNL     1      25.896   1.081  12.258  1.00  0.00     0.202 C
ENDBRANCH   5  23
TORSDOF 7
ENDMDL