MODEL 2
REMARK VINA RESULT: -6.914543593      2.143      2.667
REMARK  6 active torsions:
REMARK  status: ('A' for Active; 'I' for Inactive)
REMARK    1  A    between atoms: C2_2  and  C3_3
REMARK    2  A    between atoms: C2_2  and  N2_8
REMARK    3  A    between atoms: C3_3  and  C4_4
REMARK    4  A    between atoms: C4_4  and  N1_5
REMARK       I    between atoms: C7_10  and  N3_11
REMARK       I    between atoms: C7_10  and  N6_18
REMARK    5  A    between atoms: N4_13  and  C8_15
REMARK    6  A    between atoms: N6_18  and  C9_20
ROOT
HETATM    1  N2  UNL     1      20.318  -2.840  12.360  1.00  0.00    -0.221 N
ATOM      2  H2  UNL     1      19.911  -2.851  11.425  1.00  0.00     0.178 HD
HETATM    3  C7  UNL     1      19.738  -3.500  13.287  1.00  0.00     0.689 C
HETATM    4  N3  UNL     1      20.281  -3.500  14.588  1.00  0.00    -0.131 N
ATOM      5  H3  UNL     1      21.187  -3.055  14.737  1.00  0.00     0.205 HD
HETATM    6  N4  UNL     1      19.693  -4.029  15.586  1.00  0.00    -0.264 N
ATOM      7  H4  UNL     1      18.787  -4.474  15.442  1.00  0.00     0.189 HD
HETATM    8  N6  UNL     1      18.563  -4.219  13.015  1.00  0.00    -0.221 N
ATOM      9  H6  UNL     1      17.709  -3.926  13.490  1.00  0.00     0.178 HD
ENDROOT
BRANCH   1  10
HETATM   10  C2  UNL     1      21.522  -2.081  12.581  1.00  0.00     0.097 C
HETATM   11  C1  UNL     1      21.292  -0.685  12.030  1.00  0.00     0.032 C
BRANCH  10  12
HETATM   12  C3  UNL     1      22.642  -2.768  11.816  1.00  0.00     0.055 C
BRANCH  12  13
HETATM   13  C4  UNL     1      22.800  -2.254  10.419  1.00  0.00     0.273 C
BRANCH  13  14
HETATM   14  N1  UNL     1      23.019  -3.247   9.419  1.00  0.00     0.080 N
HETATM   15  C5  UNL     1      24.104  -4.154   9.676  1.00  0.00     0.309 C
HETATM   16  C6  UNL     1      21.819  -3.900   8.980  1.00  0.00     0.309 C
ENDBRANCH  13  14
ENDBRANCH  12  13
ENDBRANCH  10  12
ENDBRANCH   1  10
BRANCH   8  17
HETATM   17  C9  UNL     1      18.475  -5.340  12.111  1.00  0.00     0.099 C
HETATM   18  C10 UNL     1      17.032  -5.799  12.050  1.00  0.00     0.026 C
HETATM   19  C11 UNL     1      16.958  -6.893  11.024  1.00  0.00     0.002 C
HETATM   20  C12 UNL     1      17.728  -8.086  11.517  1.00  0.00     0.000 C
HETATM   21  C13 UNL     1      19.127  -7.762  11.945  1.00  0.00     0.002 C
HETATM   22  C14 UNL     1      19.279  -6.478  12.673  1.00  0.00     0.026 C
ENDBRANCH   8  17
BRANCH   6  23
HETATM   23  C8  UNL     1      20.246  -4.023  16.882  1.00  0.00     0.200 C
HETATM   24  N5  UNL     1      21.445  -3.281  17.157  1.00  0.00    -0.068 NA
HETATM   25  S1  UNL     1      19.499  -4.872  18.058  1.00  0.00    -0.043 SA
ENDBRANCH   6  23
TORSDOF 6
ENDMDL