MODEL 4
REMARK VINA RESULT: -7.426309312      2.079      2.675
REMARK  7 active torsions:
REMARK  status: ('A' for Active; 'I' for Inactive)
REMARK    1  A    between atoms: C2_2  and  C3_3
REMARK    2  A    between atoms: C3_3  and  C4_4
REMARK    3  A    between atoms: C4_4  and  O1_5
REMARK    4  A    between atoms: O1_5  and  C5_6
REMARK       I    between atoms: C5_6  and  N1_8
REMARK    5  A    between atoms: C8_11  and  C9_12
REMARK    6  A    between atoms: C9_12  and  N2_13
REMARK       I    between atoms: N2_13  and  C10_15
REMARK       I    between atoms: C10_15  and  N3_17
REMARK    7  A    between atoms: N3_17  and  C11_19
ROOT
HETATM    1  C5  UNL     1      19.567  -6.062  11.855  1.00  0.00     0.362 C
HETATM    2  O2  UNL     1      18.590  -5.319  11.600  1.00  0.00    -0.238 OA
HETATM    3  N1  UNL     1      20.881  -5.633  11.538  1.00  0.00    -0.328 N
HETATM    4  C6  UNL     1      22.013  -6.478  11.826  1.00  0.00     0.128 C
HETATM    5  C7  UNL     1      23.312  -5.977  11.303  1.00  0.00     0.026 C
HETATM    6  C8  UNL     1      23.252  -5.206  10.023  1.00  0.00     0.006 C
HETATM    7  C15 UNL     1      21.921  -4.647   9.677  1.00  0.00     0.026 C
HETATM    8  C16 UNL     1      21.101  -4.338  10.917  1.00  0.00     0.128 C
ENDROOT
BRANCH   6   9
HETATM    9  C9  UNL     1      24.357  -4.166  10.075  1.00  0.00     0.129 C
BRANCH   9  10
HETATM   10  N2  UNL     1      24.529  -3.570  11.344  1.00  0.00    -0.343 N
HETATM   11  C10 UNL     1      24.298  -2.187  11.500  1.00  0.00     0.316 C
HETATM   12  O3  UNL     1      23.935  -1.457  10.517  1.00  0.00    -0.247 OA
HETATM   13  N3  UNL     1      24.452  -1.522  12.748  1.00  0.00    -0.335 N
ATOM     14  H3  UNL     1      24.741  -2.076  13.553  1.00  0.00     0.165 HD
ATOM     15  H2  UNL     1      24.818  -4.136  12.142  1.00  0.00     0.164 HD
BRANCH  13  16
HETATM   16  C11 UNL     1      24.226  -0.125  12.941  1.00  0.00     0.023 C
HETATM   17  C12 UNL     1      24.141   0.163  14.435  1.00  0.00     0.037 C
HETATM   18  C13 UNL     1      22.915   0.345  12.350  1.00  0.00     0.037 C
HETATM   19  C14 UNL     1      25.321   0.668  12.295  1.00  0.00     0.037 C
ENDBRANCH  13  16
ENDBRANCH   9  10
ENDBRANCH   6   9
BRANCH   1  20
HETATM   20  O1  UNL     1      19.314  -7.286  12.444  1.00  0.00    -0.304 OA
BRANCH  20  21
HETATM   21  C4  UNL     1      18.917  -8.447  11.785  1.00  0.00     0.180 C
BRANCH  21  22
HETATM   22  C3  UNL     1      17.482  -8.443  11.329  1.00  0.00     0.026 C
BRANCH  22  23
HETATM   23  C2  UNL     1      17.166  -9.866  10.860  1.00  0.00    -0.002 C
HETATM   24  C1  UNL     1      15.868  -9.879  10.065  1.00  0.00     0.005 C
ENDBRANCH  22  23
ENDBRANCH  21  22
ENDBRANCH  20  21
ENDBRANCH   1  20
TORSDOF 7
ENDMDL