MODEL 2
REMARK VINA RESULT: -8.083485358      2.010      2.878
REMARK  5 active torsions:
REMARK  status: ('A' for Active; 'I' for Inactive)
REMARK       I    between atoms: C1_2  and  N1_3
REMARK       I    between atoms: C1_2  and  N3_18
REMARK    1  A    between atoms: N1_3  and  C2_5
REMARK    2  A    between atoms: C2_5  and  C3_6
REMARK    3  A    between atoms: C3_6  and  C4_7
REMARK    4  A    between atoms: C4_7  and  N2_8
REMARK    5  A    between atoms: N3_18  and  C13_20
ROOT
HETATM    1  C2  UNL     1      20.595  -1.086  14.898  1.00  0.00     0.126 C
ENDROOT
BRANCH   1   2
HETATM    2  N1  UNL     1      20.045  -2.437  14.732  1.00  0.00    -0.343 N
HETATM    3  C1  UNL     1      19.730  -2.918  13.457  1.00  0.00     0.316 C
HETATM    4  O1  UNL     1      19.920  -2.266  12.428  1.00  0.00    -0.247 OA
HETATM    5  N3  UNL     1      19.163  -4.217  13.335  1.00  0.00    -0.339 N
ATOM      6  H3  UNL     1      19.000  -4.744  14.193  1.00  0.00     0.164 HD
ATOM      7  H1  UNL     1      19.892  -3.028  15.549  1.00  0.00     0.164 HD
BRANCH   5   8
HETATM    8  C13 UNL     1      18.803  -4.847  12.087  1.00  0.00     0.086 C
HETATM    9  C14 UNL     1      19.904  -5.613  11.446  1.00  0.00     0.025 C
HETATM   10  C15 UNL     1      20.055  -7.022  11.946  1.00  0.00     0.002 C
HETATM   11  C16 UNL     1      18.742  -7.766  12.047  1.00  0.00     0.000 C
HETATM   12  C17 UNL     1      17.588  -6.939  11.509  1.00  0.00     0.002 C
HETATM   13  C18 UNL     1      17.560  -5.676  12.335  1.00  0.00     0.025 C
ENDBRANCH   5   8
ENDBRANCH   1   2
BRANCH   1  14
HETATM   14  C3  UNL     1      22.057  -1.113  15.081  1.00  0.00     0.050 C
BRANCH  14  15
HETATM   15  C4  UNL     1      22.868  -0.890  13.874  1.00  0.00     0.274 C
BRANCH  15  16
HETATM   16  N2  UNL     1      24.071  -1.626  13.647  1.00  0.00     0.088 N
HETATM   17  C5  UNL     1      24.003  -2.052  12.245  1.00  0.00     0.275 C
HETATM   18  C6  UNL     1      23.200  -3.318  12.165  1.00  0.00     0.068 C
HETATM   19  C7  UNL     1      24.151  -4.410  12.624  1.00  0.00     0.064 C
HETATM   20  C8  UNL     1      23.554  -5.763  12.489  1.00  0.00     0.040 C
HETATM   21  O2  UNL     1      25.226  -4.436  11.735  1.00  0.00    -0.380 OA
HETATM   22  C11 UNL     1      24.680  -4.031  13.951  1.00  0.00     0.068 C
HETATM   23  C9  UNL     1      23.680  -6.014  10.979  1.00  0.00     0.029 C
HETATM   24  C10 UNL     1      24.710  -4.958  10.574  1.00  0.00     0.168 C
HETATM   25  C12 UNL     1      24.203  -2.731  14.529  1.00  0.00     0.275 C
ENDBRANCH  15  16
ENDBRANCH  14  15
ENDBRANCH   1  14
TORSDOF 5
ENDMDL