MODEL 1
REMARK VINA RESULT: -7.943712579      0.000      0.000
REMARK  5 active torsions:
REMARK  status: ('A' for Active; 'I' for Inactive)
REMARK    1  A    between atoms: S1_2  and  C2_3
REMARK    2  A    between atoms: C2_3  and  C3_4
REMARK    3  A    between atoms: C3_4  and  C4_5
REMARK    4  A    between atoms: C10_11  and  N1_12
REMARK       I    between atoms: N1_12  and  C11_14
REMARK    5  A    between atoms: C11_14  and  C12_16
ROOT
HETATM    1  C4  UNL     1      23.608  -3.046  10.490  1.00  0.00    -0.005 C
HETATM    2  C5  UNL     1      22.257  -2.442  10.537  1.00  0.00    -0.008 C
HETATM    3  C6  UNL     1      21.813  -2.669   9.085  1.00  0.00     0.005 C
HETATM    4  C7  UNL     1      22.455  -3.984   8.693  1.00  0.00     0.005 C
HETATM    5  C8  UNL     1      23.316  -4.394   9.890  1.00  0.00    -0.008 C
HETATM    6  C9  UNL     1      22.475  -5.265  10.761  1.00  0.00     0.030 C
HETATM    7  C10 UNL     1      21.335  -4.614  11.440  1.00  0.00     0.085 C
HETATM    8  C18 UNL     1      21.264  -3.136  11.406  1.00  0.00     0.030 C
ENDROOT
BRANCH   7   9
HETATM    9  N1  UNL     1      20.102  -5.258  10.968  1.00  0.00    -0.356 N
HETATM   10  C11 UNL     1      19.065  -5.691  11.805  1.00  0.00     0.223 C
HETATM   11  O1  UNL     1      19.158  -5.535  13.030  1.00  0.00    -0.273 OA
ATOM     12  H1  UNL     1      19.994  -5.400   9.964  1.00  0.00     0.162 HD
BRANCH  10  13
HETATM   13  C12 UNL     1      17.865  -6.327  11.246  1.00  0.00     0.095 C
HETATM   14  C13 UNL     1      17.793  -7.738  11.786  1.00  0.00     0.015 C
HETATM   15  C14 UNL     1      17.146  -8.694  10.822  1.00  0.00     0.002 C
HETATM   16  C15 UNL     1      15.644  -8.438  10.887  1.00  0.00     0.019 C
HETATM   17  C16 UNL     1      15.440  -7.045  10.281  1.00  0.00     0.113 C
HETATM   18  N2  UNL     1      15.416  -6.026  11.274  1.00  0.00    -0.420 N
HETATM   19  C17 UNL     1      16.670  -5.527  11.703  1.00  0.00     0.127 C
ATOM     20  H2  UNL     1      14.539  -5.672  11.658  1.00  0.00     0.153 HD
ENDBRANCH  10  13
ENDBRANCH   7   9
BRANCH   1  21
HETATM   21  C3  UNL     1      24.370  -3.073  11.756  1.00  0.00     0.015 C
BRANCH  21  22
HETATM   22  C2  UNL     1      24.644  -1.656  12.191  1.00  0.00     0.073 C
BRANCH  22  23
HETATM   23  S1  UNL     1      23.953  -1.339  13.845  1.00  0.00    -0.173 SA
HETATM   24  C1  UNL     1      24.130   0.378  14.329  1.00  0.00     0.089 C
ENDBRANCH  22  23
ENDBRANCH  21  22
ENDBRANCH   1  21
TORSDOF 5
ENDMDL