MODEL 5
REMARK VINA RESULT: -8.092996099      1.078      1.832
REMARK  9 active torsions:
REMARK  status: ('A' for Active; 'I' for Inactive)
REMARK    1  A    between atoms: C2_2  and  C4_4
REMARK    2  A    between atoms: C2_2  and  C14_22
REMARK    3  A    between atoms: C4_4  and  N1_5
REMARK    4  A    between atoms: N1_5  and  C5_7
REMARK    5  A    between atoms: C7_11  and  C8_12
REMARK    6  A    between atoms: C9_13  and  C10_14
REMARK    7  A    between atoms: C10_14  and  C11_15
REMARK    8  A    between atoms: C11_15  and  C12_16
REMARK    9  A    between atoms: C12_16  and  O1_17
ROOT
HETATM    1  C5  UNL     1      20.219  -4.231  12.875  1.00  0.00     0.677 A
HETATM    2  N2  UNL     1      18.876  -4.305  12.831  1.00  0.00    -0.201 N
ATOM      3  H2  UNL     1      18.333  -3.483  13.095  1.00  0.00     0.183 HD
HETATM    4  C6  UNL     1      18.222  -5.415  12.455  1.00  0.00     0.128 A
HETATM    5  C7  UNL     1      18.926  -6.543  12.093  1.00  0.00     0.049 A
HETATM    6  C13 UNL     1      20.319  -6.433  12.149  1.00  0.00     0.128 A
HETATM    7  N3  UNL     1      20.919  -5.300  12.533  1.00  0.00    -0.201 N
ATOM      8  H3  UNL     1      21.938  -5.260  12.562  1.00  0.00     0.183 HD
ENDROOT
BRANCH   1   9
HETATM    9  N1  UNL     1      20.716  -3.110  13.252  1.00  0.00    -0.225 N
ATOM     10  H1  UNL     1      20.078  -2.470  13.725  1.00  0.00     0.177 HD
BRANCH   9  11
HETATM   11  C4  UNL     1      22.055  -2.656  13.087  1.00  0.00     0.147 C
BRANCH  11  12
HETATM   12  C2  UNL     1      22.243  -1.233  13.599  1.00  0.00    -0.028 C
HETATM   13  C1  UNL     1      23.419  -1.119  14.514  1.00  0.00     0.016 C
HETATM   14  C3  UNL     1      21.010  -0.813  14.378  1.00  0.00     0.016 C
BRANCH  12  15
HETATM   15  C14 UNL     1      22.389  -0.295  12.425  1.00  0.00    -0.005 C
HETATM   16  C15 UNL     1      23.144  -0.956  11.314  1.00  0.00     0.005 C
HETATM   17  C16 UNL     1      23.565   0.105  10.290  1.00  0.00     0.000 C
HETATM   18  C17 UNL     1      22.374   0.929   9.888  1.00  0.00     0.000 C
HETATM   19  C18 UNL     1      21.081   0.314  10.382  1.00  0.00     0.000 C
HETATM   20  C19 UNL     1      21.067   0.172  11.890  1.00  0.00     0.005 C
ENDBRANCH  12  15
ENDBRANCH  11  12
ENDBRANCH   9  11
ENDBRANCH   1   9
BRANCH   5  21
HETATM   21  C8  UNL     1      18.263  -7.749  11.685  1.00  0.00    -0.064 C
HETATM   22  C9  UNL     1      17.689  -8.754  11.349  1.00  0.00    -0.101 C
BRANCH  22  23
HETATM   23  C10 UNL     1      16.961  -9.981  10.942  1.00  0.00     0.096 C
BRANCH  23  24
HETATM   24  C11 UNL     1      15.816  -9.554  10.051  1.00  0.00     0.038 C
BRANCH  24  25
HETATM   25  C12 UNL     1      14.968  -8.581  10.868  1.00  0.00     0.165 C
BRANCH  25  26
HETATM   26  O1  UNL     1      14.707  -7.468  10.107  1.00  0.00    -0.401 OA
ATOM     27  H1  UNL     1      15.090  -6.708  10.529  1.00  0.00     0.209 HD
ENDBRANCH  25  26
ENDBRANCH  24  25
ENDBRANCH  23  24
ENDBRANCH  22  23
ENDBRANCH   5  21
TORSDOF 9
ENDMDL