MODEL 1
REMARK VINA RESULT: -7.744090755      0.000      0.000
REMARK  7 active torsions:
REMARK  status: ('A' for Active; 'I' for Inactive)
REMARK    1  A    between atoms: C2_2  and  C3_3
REMARK    2  A    between atoms: C3_3  and  C4_4
REMARK    3  A    between atoms: C4_4  and  C5_5
REMARK    4  A    between atoms: N1_7  and  N2_9
REMARK    5  A    between atoms: N2_9  and  C7_11
REMARK    6  A    between atoms: C7_11  and  N3_13
REMARK    7  A    between atoms: N3_13  and  N4_15
ROOT
HETATM    1  N3  UNL     1      20.705  -2.881  11.980  1.00  0.00    -0.276 N
ATOM      2  H3  UNL     1      20.142  -2.698  11.151  1.00  0.00     0.189 HD
ENDROOT
BRANCH   1   3
HETATM    3  C7  UNL     1      20.656  -4.163  12.624  1.00  0.00     0.205 C
HETATM    4  S1  UNL     1      22.012  -5.098  12.724  1.00  0.00    -0.038 SA
BRANCH   3   5
HETATM    5  N2  UNL     1      19.466  -4.671  13.191  1.00  0.00    -0.275 N
ATOM      6  H2  UNL     1      19.491  -5.062  14.133  1.00  0.00     0.189 HD
BRANCH   5   7
HETATM    7  N1  UNL     1      18.265  -4.653  12.498  1.00  0.00    -0.307 N
HETATM    8  C5  UNL     1      17.759  -5.722  11.960  1.00  0.00    -0.000 C
HETATM    9  C6  UNL     1      18.511  -6.990  12.107  1.00  0.00     0.065 C
ATOM     10  H1  UNL     1      17.762  -3.770  12.408  1.00  0.00     0.186 HD
BRANCH   8  11
HETATM   11  C4  UNL     1      16.487  -5.696  11.227  1.00  0.00     0.053 C
BRANCH  11  12
HETATM   12  C3  UNL     1      15.610  -6.891  11.497  1.00  0.00     0.005 C
BRANCH  12  13
HETATM   13  C2  UNL     1      15.491  -7.652  10.174  1.00  0.00    -0.004 C
HETATM   14  C1  UNL     1      15.897  -9.093  10.395  1.00  0.00     0.005 C
ENDBRANCH  12  13
ENDBRANCH  11  12
ENDBRANCH   8  11
ENDBRANCH   5   7
ENDBRANCH   3   5
ENDBRANCH   1   3
BRANCH   1  15
HETATM   15  N4  UNL     1      21.510  -1.923  12.489  1.00  0.00    -0.312 N
HETATM   16  C8  UNL     1      21.092  -1.296  13.699  1.00  0.00     0.174 C
HETATM   17  C9  UNL     1      22.321  -0.665  14.332  1.00  0.00     0.293 C
HETATM   18  N5  UNL     1      23.041   0.166  13.391  1.00  0.00     0.088 N
HETATM   19  C10 UNL     1      24.180   0.721  14.070  1.00  0.00     0.310 C
HETATM   20  C11 UNL     1      23.416  -0.576  12.193  1.00  0.00     0.304 C
HETATM   21  C12 UNL     1      22.119  -1.028  11.552  1.00  0.00     0.074 C
HETATM   22  C13 UNL     1      22.337  -1.700  10.227  1.00  0.00     0.034 C
HETATM   23  C16 UNL     1      21.298   0.212  11.284  1.00  0.00     0.034 C
HETATM   24  C14 UNL     1      21.487  -0.928   9.238  1.00  0.00     0.003 C
HETATM   25  C15 UNL     1      21.574   0.482   9.810  1.00  0.00     0.003 C
ENDBRANCH   1  15
TORSDOF 7
ENDMDL