MODEL 3
REMARK VINA RESULT: -7.679414166      2.171      3.204
REMARK  7 active torsions:
REMARK  status: ('A' for Active; 'I' for Inactive)
REMARK    1  A    between atoms: C2_2  and  N1_3
REMARK    2  A    between atoms: N1_3  and  C3_4
REMARK    3  A    between atoms: N1_3  and  C5_6
REMARK    4  A    between atoms: C5_6  and  O1_7
REMARK    5  A    between atoms: C5_6  and  C6_9
REMARK    6  A    between atoms: C6_9  and  N2_10
REMARK       I    between atoms: N2_10  and  C7_12
REMARK       I    between atoms: C7_12  and  N3_14
REMARK    7  A    between atoms: N3_14  and  C8_16
ROOT
HETATM    1  C6  UNL     1      22.335  -1.254  12.833  1.00  0.00     0.099 C
HETATM    2  C14 UNL     1      22.455  -0.219  13.908  1.00  0.00     0.040 C
HETATM    3  C15 UNL     1      23.819  -0.113  14.544  1.00  0.00     0.003 C
HETATM    4  C16 UNL     1      24.440  -1.412  14.918  1.00  0.00     0.000 C
HETATM    5  C17 UNL     1      23.983  -2.572  14.102  1.00  0.00     0.003 C
HETATM    6  C18 UNL     1      23.588  -2.099  12.712  1.00  0.00     0.040 C
ENDROOT
BRANCH   1   7
HETATM    7  C5  UNL     1      21.810  -0.757  11.550  1.00  0.00     0.142 C
BRANCH   7   8
HETATM    8  N1  UNL     1      22.375  -0.598  10.302  1.00  0.00    -0.364 N
BRANCH   8   9
HETATM    9  C2  UNL     1      22.356  -1.512   9.208  1.00  0.00     0.120 C
HETATM   10  C1  UNL     1      21.258  -1.223   8.184  1.00  0.00     0.026 C
ENDBRANCH   8   9
BRANCH   8  11
HETATM   11  C3  UNL     1      23.110   0.671  10.007  1.00  0.00     0.120 C
HETATM   12  C4  UNL     1      24.556   0.570  10.335  1.00  0.00     0.026 C
ENDBRANCH   8  11
ENDBRANCH   7   8
BRANCH   7  13
HETATM   13  O1  UNL     1      20.539  -0.380  11.583  1.00  0.00    -0.348 OA
ATOM     14  H1  UNL     1      20.409   0.491  11.228  1.00  0.00     0.219 HD
ENDBRANCH   7  13
ENDBRANCH   1   7
BRANCH   1  15
HETATM   15  N2  UNL     1      21.313  -2.208  13.359  1.00  0.00    -0.326 N
HETATM   16  C7  UNL     1      20.878  -3.331  12.626  1.00  0.00     0.317 C
HETATM   17  O2  UNL     1      21.335  -3.559  11.496  1.00  0.00    -0.247 OA
HETATM   18  N3  UNL     1      19.920  -4.229  13.138  1.00  0.00    -0.339 N
ATOM     19  H3  UNL     1      19.548  -4.038  14.068  1.00  0.00     0.164 HD
ATOM     20  H2  UNL     1      20.915  -2.042  14.283  1.00  0.00     0.165 HD
BRANCH  18  21
HETATM   21  C8  UNL     1      19.429  -5.385  12.459  1.00  0.00     0.086 C
HETATM   22  C9  UNL     1      17.922  -5.508  12.497  1.00  0.00     0.025 C
HETATM   23  C10 UNL     1      17.550  -6.474  11.384  1.00  0.00     0.002 C
HETATM   24  C11 UNL     1      18.110  -7.830  11.799  1.00  0.00     0.000 C
HETATM   25  C12 UNL     1      19.609  -7.763  11.990  1.00  0.00     0.002 C
HETATM   26  C13 UNL     1      19.987  -6.688  12.999  1.00  0.00     0.025 C
ENDBRANCH  18  21
ENDBRANCH   1  15
TORSDOF 7
ENDMDL