MODEL 3
REMARK VINA RESULT: -7.743297764      1.846      2.539
REMARK  6 active torsions:
REMARK  status: ('A' for Active; 'I' for Inactive)
REMARK    1  A    between atoms: C2_2  and  C3_3
REMARK    2  A    between atoms: N1_9  and  C9_10
REMARK    3  A    between atoms: C9_10  and  C10_12
REMARK    4  A    between atoms: C10_12  and  N2_13
REMARK    5  A    between atoms: C10_12  and  C17_21
REMARK    6  A    between atoms: N2_13  and  C11_15
ROOT
HETATM    1  C10 UNL     1      23.081  -4.848  11.553  1.00  0.00     0.229 C
ENDROOT
BRANCH   1   2
HETATM    2  C9  UNL     1      22.930  -3.486  12.124  1.00  0.00     0.107 C
HETATM    3  S1  UNL     1      23.501  -3.336  13.705  1.00  0.00    -0.063 SA
BRANCH   2   4
HETATM    4  N1  UNL     1      22.353  -2.342  11.604  1.00  0.00    -0.368 N
HETATM    5  C3  UNL     1      22.890  -1.842  10.322  1.00  0.00     0.084 C
HETATM    6  C4  UNL     1      23.065  -0.408  10.446  1.00  0.00     0.025 C
HETATM    7  C5  UNL     1      22.851   0.923  10.915  1.00  0.00     0.002 C
HETATM    8  C6  UNL     1      21.878   0.835  12.138  1.00  0.00     0.002 C
HETATM    9  C7  UNL     1      20.918  -0.296  12.057  1.00  0.00     0.020 C
HETATM   10  C8  UNL     1      21.310  -1.697  12.358  1.00  0.00     0.124 C
BRANCH   5  11
HETATM   11  C2  UNL     1      21.904  -2.256   9.224  1.00  0.00     0.021 C
HETATM   12  C1  UNL     1      21.375  -1.177   8.373  1.00  0.00     0.007 C
ENDBRANCH   5  11
ENDBRANCH   2   4
ENDBRANCH   1   2
BRANCH   1  13
HETATM   13  N2  UNL     1      22.872  -5.796  12.653  1.00  0.00    -0.400 N
ATOM     14  H2  UNL     1      23.505  -5.844  13.451  1.00  0.00     0.154 HD
BRANCH  13  15
HETATM   15  C11 UNL     1      21.747  -6.639  12.544  1.00  0.00     0.077 C
HETATM   16  C12 UNL     1      20.587  -6.136  11.743  1.00  0.00     0.024 C
HETATM   17  C13 UNL     1      19.372  -6.976  12.149  1.00  0.00     0.002 C
HETATM   18  C14 UNL     1      19.608  -8.446  12.011  1.00  0.00     0.000 C
HETATM   19  C15 UNL     1      20.914  -8.927  12.568  1.00  0.00     0.002 C
HETATM   20  C16 UNL     1      22.056  -8.045  12.042  1.00  0.00     0.024 C
ENDBRANCH  13  15
ENDBRANCH   1  13
BRANCH   1  21
HETATM   21  C17 UNL     1      24.426  -5.173  11.042  1.00  0.00     0.260 C
HETATM   22  N3  UNL     1      25.453  -5.838  11.803  1.00  0.00    -0.060 NA
HETATM   23  O1  UNL     1      24.711  -4.842   9.857  1.00  0.00    -0.274 OA
ENDBRANCH   1  21
TORSDOF 6
ENDMDL