MODEL 5
REMARK VINA RESULT: -6.916534727      4.121      8.125
REMARK  10 active torsions:
REMARK  status: ('A' for Active; 'I' for Inactive)
REMARK    1  A    between atoms: C2_2  and  C4_4
REMARK    2  A    between atoms: C4_4  and  N1_5
REMARK    3  A    between atoms: C4_4  and  C5_9
REMARK       I    between atoms: C5_9  and  N2_11
REMARK    4  A    between atoms: N2_11  and  C6_13
REMARK    5  A    between atoms: C6_13  and  C7_14
REMARK    6  A    between atoms: C6_13  and  N7_25
REMARK    7  A    between atoms: C6_13  and  C16_42
REMARK    8  A    between atoms: C7_14  and  S1_15
REMARK    9  A    between atoms: S1_15  and  C8_16
REMARK       I    between atoms: N7_25  and  C10_27
REMARK       I    between atoms: C10_27  and  N9_31
REMARK   10  A    between atoms: N9_31  and  N10_33
REMARK       I    between atoms: N10_33  and  C11_35
REMARK       I    between atoms: C11_35  and  N11_37
ROOT
HETATM    1  C6  UNL     1      34.099  60.216   8.268  1.00  0.00     0.221 C
ENDROOT
BRANCH   1   2
HETATM    2  N2  UNL     1      33.869  61.423   9.011  1.00  0.00    -0.323 N
HETATM    3  C5  UNL     1      32.575  61.842   9.350  1.00  0.00     0.251 C
HETATM    4  O1  UNL     1      31.557  61.183   9.017  1.00  0.00    -0.271 OA
ATOM      5  H2  UNL     1      34.668  61.989   9.299  1.00  0.00     0.165 HD
BRANCH   3   6
HETATM    6  C4  UNL     1      32.312  63.088  10.127  1.00  0.00     0.278 C
BRANCH   6   7
HETATM    7  C2  UNL     1      31.060  63.766   9.536  1.00  0.00     0.017 C
HETATM    8  C1  UNL     1      30.426  64.684  10.553  1.00  0.00     0.012 C
HETATM    9  C3  UNL     1      31.395  64.546   8.300  1.00  0.00     0.012 C
ENDBRANCH   6   7
BRANCH   6  10
HETATM   10  N1  UNL     1      31.975  62.773  11.478  1.00  0.00    -0.066 N
ATOM     11  H13 UNL     1      32.757  62.865  12.128  1.00  0.00     0.275 HD
ATOM     12  H12 UNL     1      31.369  63.463  11.920  1.00  0.00     0.275 HD
ATOM     13  H11 UNL     1      31.576  61.835  11.449  1.00  0.00     0.275 HD
ENDBRANCH   6  10
ENDBRANCH   3   6
ENDBRANCH   1   2
BRANCH   1  14
HETATM   14  C7  UNL     1      33.430  60.218   6.931  1.00  0.00     0.148 C
BRANCH  14  15
HETATM   15  S1  UNL     1      32.309  58.923   6.539  1.00  0.00    -0.086 SA
BRANCH  15  16
HETATM   16  C8  UNL     1      30.656  59.322   6.117  1.00  0.00     0.178 A
HETATM   17  N3  UNL     1      30.019  60.497   6.057  1.00  0.00    -0.263 N
HETATM   18  N4  UNL     1      28.782  60.279   5.705  1.00  0.00    -0.226 N
ATOM     19  H3  UNL     1      30.431  61.409   6.254  1.00  0.00     0.190 HD
HETATM   20  N5  UNL     1      28.613  58.985   5.537  1.00  0.00    -0.224 N
ATOM     21  H4  UNL     1      28.065  60.993   5.580  1.00  0.00     0.210 HD
HETATM   22  N6  UNL     1      29.743  58.357   5.780  1.00  0.00    -0.259 N
ATOM     23  H5  UNL     1      27.740  58.537   5.261  1.00  0.00     0.210 HD
HETATM   24  C9  UNL     1      29.934  56.928   5.698  1.00  0.00     0.181 C
ENDBRANCH  15  16
ENDBRANCH  14  15
ENDBRANCH   1  14
BRANCH   1  25
HETATM   25  N7  UNL     1      33.534  59.074   9.001  1.00  0.00    -0.187 N
HETATM   26  C10 UNL     1      34.154  58.438  10.095  1.00  0.00     0.688 C
HETATM   27  N8  UNL     1      35.356  58.755  10.522  1.00  0.00    -0.234 N
HETATM   28  N9  UNL     1      33.456  57.400  10.757  1.00  0.00    -0.129 N
ATOM     29  H82 UNL     1      35.858  59.503  10.045  1.00  0.00     0.174 HD
ATOM     30  H81 UNL     1      35.805  58.294  11.313  1.00  0.00     0.174 HD
ATOM     31  H9  UNL     1      33.208  56.576  10.208  1.00  0.00     0.205 HD
ATOM     32  H7  UNL     1      32.628  58.716   8.697  1.00  0.00     0.181 HD
BRANCH  28  33
HETATM   33  N10 UNL     1      33.082  57.414  12.090  1.00  0.00    -0.237 N
HETATM   34  C11 UNL     1      32.323  58.485  12.628  1.00  0.00     0.337 C
HETATM   35  O2  UNL     1      32.002  59.423  11.827  1.00  0.00    -0.245 OA
HETATM   36  N11 UNL     1      31.912  58.563  13.980  1.00  0.00    -0.333 N
HETATM   37  C12 UNL     1      31.130  59.661  14.547  1.00  0.00     0.127 C
HETATM   38  C15 UNL     1      32.186  57.591  15.020  1.00  0.00     0.127 C
HETATM   39  C13 UNL     1      31.713  59.719  15.961  1.00  0.00     0.022 C
HETATM   40  C14 UNL     1      31.756  58.242  16.300  1.00  0.00     0.022 C
ATOM     41  H10 UNL     1      33.357  56.641  12.696  1.00  0.00     0.192 HD
ENDBRANCH  28  33
ENDBRANCH   1  25
BRANCH   1  42
HETATM   42  C16 UNL     1      35.537  59.930   8.088  1.00  0.00     0.226 C
HETATM   43  O3  UNL     1      36.482  60.584   8.575  1.00  0.00    -0.645 OA
HETATM   44  O4  UNL     1      35.879  58.835   7.311  1.00  0.00    -0.645 OA
ENDBRANCH   1  42
TORSDOF 10
ENDMDL