MODEL 2
REMARK VINA RESULT: -7.077896707      2.094      7.081
REMARK  11 active torsions:
REMARK  status: ('A' for Active; 'I' for Inactive)
REMARK    1  A    between atoms: N1_3  and  C4_5
REMARK    2  A    between atoms: C7_12  and  O1_13
REMARK    3  A    between atoms: O1_13  and  C8_14
REMARK    4  A    between atoms: C8_14  and  C9_15
REMARK    5  A    between atoms: C11_17  and  N4_18
REMARK       I    between atoms: N4_18  and  C12_20
REMARK    6  A    between atoms: C15_31  and  O2_32
REMARK    7  A    between atoms: O2_32  and  C16_33
REMARK    8  A    between atoms: C16_33  and  C17_34
REMARK    9  A    between atoms: C17_34  and  C18_35
REMARK   10  A    between atoms: C18_35  and  N9_36
REMARK       I    between atoms: N9_36  and  C19_38
REMARK   11  A    between atoms: N12_43  and  N13_44
ROOT
HETATM    1  C1  UNL     1      32.012  55.470   7.281  1.00  0.00     0.037 C
HETATM    2  C2  UNL     1      32.835  56.350   7.182  1.00  0.00     0.003 C
HETATM    3  N1  UNL     1      33.768  57.376   7.053  1.00  0.00    -0.294 N
HETATM    4  C3  UNL     1      34.924  57.253   6.200  1.00  0.00     0.168 C
ENDROOT
BRANCH   3   5
HETATM    5  C4  UNL     1      33.580  58.574   7.781  1.00  0.00     0.166 A
HETATM    6  C5  UNL     1      34.157  58.816   9.007  1.00  0.00     0.099 A
HETATM    7  N2  UNL     1      34.979  58.092   9.801  1.00  0.00    -0.348 N
HETATM    8  C14 UNL     1      33.779  60.048   9.438  1.00  0.00     0.098 A
HETATM    9  C6  UNL     1      35.431  58.534  10.985  1.00  0.00     0.183 A
ATOM     10  H2  UNL     1      35.268  57.166   9.485  1.00  0.00     0.167 HD
HETATM   11  N3  UNL     1      35.054  59.747  11.400  1.00  0.00    -0.332 N
HETATM   12  C7  UNL     1      34.223  60.531  10.645  1.00  0.00     0.160 A
ATOM     13  H3  UNL     1      35.391  60.096  12.298  1.00  0.00     0.168 HD
HETATM   14  C15 UNL     1      32.938  60.570   8.430  1.00  0.00     0.182 A
HETATM   15  N12 UNL     1      32.841  59.660   7.454  1.00  0.00    -0.220 N
BRANCH  12  16
HETATM   16  O1  UNL     1      33.814  61.786  11.044  1.00  0.00    -0.329 OA
BRANCH  16  17
HETATM   17  C8  UNL     1      32.938  61.969  12.110  1.00  0.00     0.234 C
BRANCH  17  18
HETATM   18  C9  UNL     1      31.653  62.589  11.719  1.00  0.00     0.038 A
HETATM   19  C10 UNL     1      30.539  61.751  11.569  1.00  0.00     0.075 A
HETATM   20  C11 UNL     1      29.313  62.268  11.217  1.00  0.00     0.110 A
HETATM   21  N7  UNL     1      29.214  63.596  11.023  1.00  0.00    -0.338 N
HETATM   22  C13 UNL     1      30.267  64.418  11.161  1.00  0.00     0.182 A
ATOM     23  H7  UNL     1      28.310  63.990  10.763  1.00  0.00     0.168 HD
HETATM   24  N8  UNL     1      31.444  63.885  11.503  1.00  0.00    -0.354 N
ATOM     25  H8  UNL     1      32.238  64.518  11.605  1.00  0.00     0.166 HD
BRANCH  20  26
HETATM   26  N4  UNL     1      28.302  61.457  11.091  1.00  0.00    -0.317 N
HETATM   27  C12 UNL     1      27.384  61.524  10.001  1.00  0.00     0.187 C
HETATM   28  N5  UNL     1      27.565  60.748   8.976  1.00  0.00    -0.373 N
HETATM   29  N6  UNL     1      26.271  62.399   9.971  1.00  0.00    -0.064 NA
ATOM     30  H52 UNL     1      28.367  60.117   8.999  1.00  0.00     0.158 HD
ATOM     31  H51 UNL     1      26.908  60.796   8.197  1.00  0.00     0.158 HD
ATOM     32  H4  UNL     1      28.161  60.741  11.804  1.00  0.00     0.170 HD
ENDBRANCH  20  26
ENDBRANCH  17  18
ENDBRANCH  16  17
ENDBRANCH  12  16
BRANCH  14  33
HETATM   33  O2  UNL     1      32.384  61.818   8.569  1.00  0.00    -0.334 OA
BRANCH  33  34
HETATM   34  C16 UNL     1      32.440  62.895   7.718  1.00  0.00     0.179 C
BRANCH  34  35
HETATM   35  C17 UNL     1      31.265  63.774   7.536  1.00  0.00     0.046 C
BRANCH  35  36
HETATM   36  C18 UNL     1      29.954  63.064   7.533  1.00  0.00     0.124 C
BRANCH  36  37
HETATM   37  N9  UNL     1      29.844  62.150   6.421  1.00  0.00    -0.365 N
HETATM   38  C19 UNL     1      28.664  61.960   5.646  1.00  0.00     0.181 C
HETATM   39  N10 UNL     1      28.699  61.691   4.393  1.00  0.00    -0.374 N
HETATM   40  N11 UNL     1      27.396  62.076   6.285  1.00  0.00    -0.064 NA
ATOM     41 2H10 UNL     1      29.607  61.608   3.936  1.00  0.00     0.158 HD
ATOM     42 1H10 UNL     1      27.854  61.555   3.837  1.00  0.00     0.158 HD
ATOM     43  H9  UNL     1      30.667  61.602   6.174  1.00  0.00     0.162 HD
ENDBRANCH  36  37
ENDBRANCH  35  36
ENDBRANCH  34  35
ENDBRANCH  33  34
ENDBRANCH  14  33
BRANCH  15  44
HETATM   44  N13 UNL     1      32.124  59.680   6.246  1.00  0.00    -0.335 N
ATOM     45 2H13 UNL     1      32.410  59.442   5.296  1.00  0.00     0.177 HD
ATOM     46 1H13 UNL     1      31.150  59.981   6.240  1.00  0.00     0.177 HD
ENDBRANCH  15  44
ENDBRANCH   3   5
TORSDOF 11
ENDMDL