MODEL 2
REMARK VINA RESULT: -7.673334640      1.847      5.801
REMARK  12 active torsions:
REMARK  status: ('A' for Active; 'I' for Inactive)
REMARK    1  A    between atoms: N1_1  and  C1_5
REMARK    2  A    between atoms: C1_5  and  C2_6
REMARK    3  A    between atoms: C2_6  and  N2_7
REMARK    4  A    between atoms: N2_7  and  C3_9
REMARK    5  A    between atoms: C6_16  and  N5_17
REMARK    6  A    between atoms: N5_17  and  O1_19
REMARK    7  A    between atoms: O1_19  and  C7_20
REMARK    8  A    between atoms: C7_20  and  C8_21
REMARK    9  A    between atoms: C11_24  and  C12_25
REMARK   10  A    between atoms: C13_28  and  N7_29
REMARK   11  A    between atoms: N7_29  and  C14_31
REMARK   12  A    between atoms: C14_31  and  C15_32
ROOT
HETATM    1  N5  UNL     1      35.939  59.959  10.568  1.00  0.00    -0.248 N
ATOM      2  H5  UNL     1      36.869  60.133  10.949  1.00  0.00     0.196 HD
ENDROOT
BRANCH   1   3
HETATM    3  C6  UNL     1      34.909  60.240  11.277  1.00  0.00     0.155 A
HETATM    4  C5  UNL     1      33.965  59.260  11.484  1.00  0.00     0.110 A
HETATM    5  N4  UNL     1      34.060  58.019  10.983  1.00  0.00    -0.347 N
HETATM    6  C19 UNL     1      32.851  59.592  12.259  1.00  0.00     0.108 A
HETATM    7  C4  UNL     1      33.133  57.072  11.191  1.00  0.00     0.182 A
ATOM      8  H4  UNL     1      34.876  57.784  10.417  1.00  0.00     0.167 HD
HETATM    9  N3  UNL     1      32.042  57.367  11.941  1.00  0.00    -0.337 N
HETATM   10  C3  UNL     1      31.903  58.613  12.468  1.00  0.00     0.131 A
ATOM     11  H3  UNL     1      31.328  56.658  12.108  1.00  0.00     0.168 HD
HETATM   12  N13 UNL     1      32.757  60.829  12.757  1.00  0.00    -0.347 N
HETATM   13  C18 UNL     1      33.686  61.795  12.555  1.00  0.00     0.182 A
ATOM     14  H13 UNL     1      31.939  61.059  13.322  1.00  0.00     0.167 HD
HETATM   15  N12 UNL     1      34.765  61.467  11.803  1.00  0.00    -0.335 N
ATOM     16  H12 UNL     1      35.485  62.169  11.632  1.00  0.00     0.168 HD
BRANCH  10  17
HETATM   17  N2  UNL     1      30.892  58.939  13.180  1.00  0.00    -0.373 N
ATOM     18  H2  UNL     1      30.295  59.695  12.843  1.00  0.00     0.161 HD
BRANCH  17  19
HETATM   19  C2  UNL     1      30.540  58.308  14.428  1.00  0.00     0.148 C
BRANCH  19  20
HETATM   20  C1  UNL     1      31.740  58.216  15.359  1.00  0.00     0.249 C
BRANCH  20  21
HETATM   21  N1  UNL     1      31.837  56.799  15.729  1.00  0.00    -0.078 N
ATOM     22  H13 UNL     1      31.365  56.569  16.604  1.00  0.00     0.274 HD
ATOM     23  H12 UNL     1      31.289  56.180  15.132  1.00  0.00     0.274 HD
ATOM     24  H11 UNL     1      32.836  56.588  15.734  1.00  0.00     0.274 HD
ENDBRANCH  20  21
ENDBRANCH  19  20
ENDBRANCH  17  19
ENDBRANCH  10  17
ENDBRANCH   1   3
BRANCH   1  25
HETATM   25  O1  UNL     1      35.816  59.429   9.308  1.00  0.00    -0.274 OA
BRANCH  25  26
HETATM   26  C7  UNL     1      35.838  60.288   8.155  1.00  0.00     0.240 C
BRANCH  26  27
HETATM   27  C8  UNL     1      34.404  60.548   7.828  1.00  0.00    -0.030 A
HETATM   28  C9  UNL     1      33.772  61.720   8.188  1.00  0.00     0.010 A
HETATM   29  C10 UNL     1      32.444  61.944   7.874  1.00  0.00     0.018 A
HETATM   30  C11 UNL     1      31.694  61.012   7.190  1.00  0.00     0.034 A
HETATM   31  C16 UNL     1      32.326  59.841   6.829  1.00  0.00     0.060 A
HETATM   32  N11 UNL     1      31.568  58.871   6.126  1.00  0.00    -0.101 NA
HETATM   33  C17 UNL     1      33.671  59.604   7.143  1.00  0.00     0.037 A
BRANCH  30  34
HETATM   34  C12 UNL     1      30.286  61.248   6.851  1.00  0.00     0.148 A
HETATM   35  N6  UNL     1      29.252  60.509   7.248  1.00  0.00    -0.173 N
HETATM   36  C13 UNL     1      28.148  61.062   6.719  1.00  0.00     0.694 A
ATOM     37  H6  UNL     1      29.291  59.680   7.842  1.00  0.00     0.186 HD
HETATM   38  N9  UNL     1      28.508  62.139   6.000  1.00  0.00    -0.131 N
HETATM   39  N10 UNL     1      29.811  62.235   6.092  1.00  0.00    -0.270 N
ATOM     40  H9  UNL     1      27.887  62.761   5.483  1.00  0.00     0.205 HD
ATOM     41  H10 UNL     1      30.377  62.958   5.650  1.00  0.00     0.189 HD
BRANCH  36  42
HETATM   42  N7  UNL     1      26.910  60.678   6.841  1.00  0.00    -0.216 N
ATOM     43  H7  UNL     1      26.467  60.124   6.108  1.00  0.00     0.178 HD
BRANCH  42  44
HETATM   44  C14 UNL     1      26.173  61.043   8.023  1.00  0.00     0.237 C
BRANCH  44  45
HETATM   45  C15 UNL     1      27.130  61.271   9.127  1.00  0.00     0.249 C
HETATM   46  N8  UNL     1      27.501  60.245  10.037  1.00  0.00    -0.061 NA
HETATM   47  O2  UNL     1      27.645  62.397   9.287  1.00  0.00    -0.275 OA
ENDBRANCH  44  45
ENDBRANCH  42  44
ENDBRANCH  36  42
ENDBRANCH  30  34
ENDBRANCH  26  27
ENDBRANCH  25  26
ENDBRANCH   1  25
TORSDOF 12
ENDMDL