MODEL 5
REMARK VINA RESULT: -7.150762417      2.127      2.708
REMARK  13 active torsions:
REMARK  status: ('A' for Active; 'I' for Inactive)
REMARK    1  A    between atoms: C5_7  and  N2_8
REMARK    2  A    between atoms: C6_13  and  N4_14
REMARK    3  A    between atoms: C8_22  and  S1_23
REMARK    4  A    between atoms: S1_23  and  C9_24
REMARK    5  A    between atoms: C9_24  and  C10_25
REMARK       I    between atoms: C10_25  and  N7_27
REMARK    6  A    between atoms: N7_27  and  C11_29
REMARK    7  A    between atoms: C11_29  and  C12_30
REMARK    8  A    between atoms: C11_29  and  C14_39
REMARK    9  A    between atoms: C12_30  and  O2_31
REMARK   10  A    between atoms: O2_31  and  C13_32
REMARK   11  A    between atoms: C13_32  and  N8_33
REMARK   12  A    between atoms: C13_32  and  O3_37
REMARK       I    between atoms: C14_39  and  N9_41
REMARK       I    between atoms: N9_41  and  C15_43
REMARK   13  A    between atoms: C15_43  and  C16_45
ROOT
HETATM    1  C1  UNL     1      33.740  64.140  12.911  1.00  0.00     0.104 C
HETATM    2  C2  UNL     1      33.592  63.012  12.430  1.00  0.00    -0.128 C
HETATM    3  C3  UNL     1      33.457  61.713  11.869  1.00  0.00     0.108 A
HETATM    4  N1  UNL     1      34.340  61.313  10.872  1.00  0.00    -0.342 N
ATOM      5  H1  UNL     1      35.057  61.940  10.506  1.00  0.00     0.167 HD
HETATM    6  C4  UNL     1      34.198  60.037  10.409  1.00  0.00     0.123 A
HETATM    7  C5  UNL     1      35.083  59.633   9.402  1.00  0.00     0.145 A
HETATM    8  N3  UNL     1      34.940  58.378   8.948  1.00  0.00    -0.175 N
ATOM      9  H3  UNL     1      35.565  58.049   8.211  1.00  0.00     0.186 HD
HETATM   10  C6  UNL     1      34.010  57.543   9.423  1.00  0.00     0.679 A
HETATM   11  N5  UNL     1      33.172  57.929  10.384  1.00  0.00    -0.174 N
ATOM     12  H5  UNL     1      32.466  57.288  10.747  1.00  0.00     0.186 HD
HETATM   13  C7  UNL     1      33.276  59.193  10.873  1.00  0.00     0.152 A
HETATM   14  N6  UNL     1      32.381  59.552  11.873  1.00  0.00    -0.332 N
ATOM     15  H6  UNL     1      31.675  58.911  12.237  1.00  0.00     0.168 HD
HETATM   16  C8  UNL     1      32.524  60.853  12.337  1.00  0.00     0.106 A
ENDROOT
BRANCH  16  17
HETATM   17  S1  UNL     1      31.321  61.419  13.575  1.00  0.00    -0.100 SA
BRANCH  17  18
HETATM   18  C9  UNL     1      30.134  62.461  12.738  1.00  0.00     0.183 C
BRANCH  18  19
HETATM   19  C10 UNL     1      29.306  61.733  11.668  1.00  0.00     0.228 C
HETATM   20  O1  UNL     1      28.891  60.668  11.818  1.00  0.00    -0.273 OA
HETATM   21  N7  UNL     1      29.141  62.583  10.504  1.00  0.00    -0.345 N
ATOM     22  H7  UNL     1      29.624  63.476  10.594  1.00  0.00     0.163 HD
BRANCH  21  23
HETATM   23  C11 UNL     1      28.465  62.451   9.283  1.00  0.00     0.201 C
BRANCH  23  24
HETATM   24  C12 UNL     1      29.016  61.865   8.087  1.00  0.00     0.207 C
BRANCH  24  25
HETATM   25  O2  UNL     1      27.978  61.917   7.044  1.00  0.00    -0.337 OA
BRANCH  25  26
HETATM   26  C13 UNL     1      28.060  62.209   5.819  1.00  0.00     0.464 C
BRANCH  26  27
HETATM   27  N8  UNL     1      28.703  61.690   4.684  1.00  0.00    -0.029 N
ATOM     28  H83 UNL     1      28.780  60.697   4.901  1.00  0.00     0.280 HD
ATOM     29  H82 UNL     1      27.984  61.757   3.965  1.00  0.00     0.280 HD
ATOM     30  H81 UNL     1      29.561  61.877   4.165  1.00  0.00     0.280 HD
ENDBRANCH  26  27
BRANCH  26  31
HETATM   31  O3  UNL     1      27.329  63.311   5.406  1.00  0.00    -0.350 OA
ATOM     32  H3  UNL     1      26.504  63.457   5.854  1.00  0.00     0.214 HD
ENDBRANCH  26  31
ENDBRANCH  25  26
ENDBRANCH  24  25
ENDBRANCH  23  24
BRANCH  23  33
HETATM   33  C14 UNL     1      28.215  64.001   8.944  1.00  0.00     0.249 C
HETATM   34  O4  UNL     1      27.141  64.460   9.243  1.00  0.00    -0.271 OA
HETATM   35  N9  UNL     1      29.324  64.640   8.370  1.00  0.00    -0.295 N
HETATM   36  C15 UNL     1      29.394  66.041   8.142  1.00  0.00     0.227 C
ATOM     37  H9  UNL     1      30.124  64.067   8.101  1.00  0.00     0.171 HD
HETATM   38  O5  UNL     1      28.391  66.763   8.221  1.00  0.00    -0.273 OA
BRANCH  36  39
HETATM   39  C16 UNL     1      30.717  66.672   7.819  1.00  0.00     0.070 C
HETATM   40  C17 UNL     1      30.658  67.870   6.956  1.00  0.00     0.019 C
HETATM   41  C18 UNL     1      31.400  67.009   9.131  1.00  0.00     0.019 C
ENDBRANCH  36  39
ENDBRANCH  23  33
ENDBRANCH  21  23
ENDBRANCH  18  19
ENDBRANCH  17  18
ENDBRANCH  16  17
BRANCH   7  42
HETATM   42  N2  UNL     1      36.018  60.456   8.986  1.00  0.00    -0.383 N
ATOM     43  H22 UNL     1      35.928  61.042   8.156  1.00  0.00     0.157 HD
ATOM     44  H21 UNL     1      36.908  60.507   9.483  1.00  0.00     0.157 HD
ENDBRANCH   7  42
BRANCH  10  45
HETATM   45  N4  UNL     1      33.964  56.319   8.907  1.00  0.00    -0.234 N
ATOM     46  H42 UNL     1      34.241  56.133   7.943  1.00  0.00     0.174 HD
ATOM     47  H41 UNL     1      33.633  55.565   9.510  1.00  0.00     0.174 HD
ENDBRANCH  10  45
TORSDOF 13
ENDMDL