MODEL 1
REMARK VINA RESULT: -6.818238441      0.000      0.000
REMARK  10 active torsions:
REMARK  status: ('A' for Active; 'I' for Inactive)
REMARK    1  A    between atoms: C2_2  and  N1_3
REMARK    2  A    between atoms: C2_2  and  C3_7
REMARK    3  A    between atoms: C2_2  and  C6_14
REMARK    4  A    between atoms: C3_7  and  C4_8
REMARK    5  A    between atoms: C4_8  and  C5_9
REMARK    6  A    between atoms: C5_9  and  N2_10
REMARK    7  A    between atoms: C6_14  and  C7_15
REMARK    8  A    between atoms: C7_15  and  C8_16
REMARK    9  A    between atoms: C8_16  and  C9_17
REMARK       I    between atoms: C9_17  and  N3_19
REMARK   10  A    between atoms: N4_23  and  N5_24
ROOT
HETATM    1  C9  UNL     1      30.402  65.043  11.852  1.00  0.00     0.226 C
HETATM    2  O1  UNL     1      29.490  65.219  12.707  1.00  0.00    -0.273 OA
HETATM    3  N3  UNL     1      30.986  63.721  11.810  1.00  0.00    -0.287 N
HETATM    4  C10 UNL     1      32.052  63.418  10.855  1.00  0.00     0.137 C
HETATM    5  C11 UNL     1      31.567  62.450   9.801  1.00  0.00     0.042 C
HETATM    6  C12 UNL     1      31.897  62.963   8.437  1.00  0.00     0.143 C
HETATM    7  N4  UNL     1      32.271  61.935   7.520  1.00  0.00    -0.333 N
HETATM    8  C13 UNL     1      33.651  61.895   7.155  1.00  0.00     0.169 C
HETATM    9  C14 UNL     1      34.475  60.910   7.939  1.00  0.00     0.253 C
HETATM   10  N6  UNL     1      34.318  59.574   7.349  1.00  0.00    -0.072 N
ATOM     11  H61 UNL     1      34.484  59.558   6.343  1.00  0.00     0.277 HD
ATOM     12  H62 UNL     1      33.348  59.258   7.325  1.00  0.00     0.277 HD
HETATM   13  C15 UNL     1      35.185  58.688   8.082  1.00  0.00     0.259 C
HETATM   14  C16 UNL     1      34.708  58.474   9.499  1.00  0.00     0.259 C
HETATM   15  N7  UNL     1      34.479  57.058   9.786  1.00  0.00    -0.072 N
ATOM     16  H71 UNL     1      35.180  56.678  10.422  1.00  0.00     0.277 HD
ATOM     17  H72 UNL     1      34.677  56.467   8.978  1.00  0.00     0.277 HD
HETATM   18  C17 UNL     1      33.115  56.868  10.289  1.00  0.00     0.259 C
HETATM   19  C18 UNL     1      33.054  57.273  11.729  1.00  0.00     0.259 C
HETATM   20  N8  UNL     1      32.118  58.387  11.944  1.00  0.00    -0.072 N
ATOM     21  H81 UNL     1      31.329  58.355  11.298  1.00  0.00     0.277 HD
ATOM     22  H82 UNL     1      32.511  59.281  11.651  1.00  0.00     0.277 HD
HETATM   23  C19 UNL     1      31.695  58.404  13.314  1.00  0.00     0.259 C
HETATM   24  C20 UNL     1      30.451  59.241  13.485  1.00  0.00     0.260 C
HETATM   25  N9  UNL     1      30.442  60.306  12.503  1.00  0.00    -0.065 N
ATOM     26  H91 UNL     1      29.490  60.585  12.266  1.00  0.00     0.277 HD
ATOM     27  H92 UNL     1      30.743  59.970  11.588  1.00  0.00     0.277 HD
HETATM   28  C21 UNL     1      31.229  61.434  12.934  1.00  0.00     0.335 C
HETATM   29  C22 UNL     1      30.525  62.736  12.687  1.00  0.00     0.252 C
HETATM   30  O2  UNL     1      29.442  62.912  13.340  1.00  0.00    -0.271 OA
ENDROOT
BRANCH   1  31
HETATM   31  C8  UNL     1      30.881  66.092  10.927  1.00  0.00     0.103 C
BRANCH  31  32
HETATM   32  C7  UNL     1      30.137  66.186   9.636  1.00  0.00     0.012 C
BRANCH  32  33
HETATM   33  C6  UNL     1      30.255  67.567   8.971  1.00  0.00     0.038 C
BRANCH  33  34
HETATM   34  C2  UNL     1      30.547  67.423   7.514  1.00  0.00     0.120 C
HETATM   35  C1  UNL     1      31.567  66.376   7.198  1.00  0.00     0.046 C
BRANCH  34  36
HETATM   36  N1  UNL     1      29.262  66.806   6.987  1.00  0.00    -0.071 N
ATOM     37  H13 UNL     1      29.320  66.444   6.035  1.00  0.00     0.275 HD
ATOM     38  H12 UNL     1      29.007  65.917   7.417  1.00  0.00     0.275 HD
ATOM     39  H11 UNL     1      28.583  67.555   7.119  1.00  0.00     0.275 HD
ENDBRANCH  34  36
BRANCH  34  40
HETATM   40  C3  UNL     1      30.649  68.695   6.781  1.00  0.00     0.040 C
BRANCH  40  41
HETATM   41  C4  UNL     1      31.920  69.116   6.181  1.00  0.00     0.030 C
BRANCH  41  42
HETATM   42  C5  UNL     1      32.021  70.475   5.592  1.00  0.00     0.230 C
BRANCH  42  43
HETATM   43  N2  UNL     1      30.984  70.650   4.543  1.00  0.00    -0.079 N
ATOM     44  H23 UNL     1      30.039  70.605   4.927  1.00  0.00     0.274 HD
ATOM     45  H22 UNL     1      30.955  71.607   4.190  1.00  0.00     0.274 HD
ATOM     46  H21 UNL     1      31.126  69.971   3.795  1.00  0.00     0.274 HD
ENDBRANCH  42  43
ENDBRANCH  41  42
ENDBRANCH  40  41
ENDBRANCH  34  40
ENDBRANCH  33  34
ENDBRANCH  32  33
ENDBRANCH  31  32
ENDBRANCH   1  31
BRANCH   7  47
HETATM   47  N5  UNL     1      31.684  60.706   7.711  1.00  0.00    -0.347 N
ATOM     48  H52 UNL     1      31.865  60.022   6.977  1.00  0.00     0.176 HD
ATOM     49  H51 UNL     1      31.690  60.347   8.666  1.00  0.00     0.176 HD
ENDBRANCH   7  47
TORSDOF 10
ENDMDL