MODEL 5
REMARK VINA RESULT: -7.149693833      4.387      6.680
REMARK  11 active torsions:
REMARK  status: ('A' for Active; 'I' for Inactive)
REMARK    1  A    between atoms: N1_2  and  C3_4
REMARK    2  A    between atoms: C3_4  and  C4_5
REMARK    3  A    between atoms: C4_5  and  C5_6
REMARK    4  A    between atoms: C5_6  and  C6_7
REMARK    5  A    between atoms: C6_7  and  N2_8
REMARK    6  A    between atoms: C7_9  and  N3_10
REMARK    7  A    between atoms: N3_10  and  N4_12
REMARK    8  A    between atoms: N4_12  and  S1_14
REMARK    9  A    between atoms: S1_14  and  C8_17
REMARK   10  A    between atoms: N7_26  and  O4_27
REMARK   11  A    between atoms: C12_31  and  N9_32
ROOT
HETATM    1  N2  UNL     1      30.782  62.661   8.579  1.00  0.00    -0.164 N
HETATM    2  C7  UNL     1      30.452  62.407   9.848  1.00  0.00     0.703 A
HETATM    3  N8  UNL     1      29.240  61.785  10.165  1.00  0.00    -0.173 N
ATOM      4  H8  UNL     1      29.020  61.606  11.145  1.00  0.00     0.186 HD
HETATM    5  C12 UNL     1      28.374  61.422   9.242  1.00  0.00     0.146 A
HETATM    6  C13 UNL     1      28.690  61.672   7.924  1.00  0.00     0.138 A
HETATM    7  N10 UNL     1      28.072  61.450   6.741  1.00  0.00    -0.184 N
ATOM      8  H10 UNL     1      27.161  61.006   6.624  1.00  0.00     0.184 HD
HETATM    9  C14 UNL     1      28.851  61.906   5.745  1.00  0.00     0.678 A
HETATM   10  N11 UNL     1      28.532  61.837   4.489  1.00  0.00    -0.234 N
ATOM     11 1H11 UNL     1      29.123  62.184   3.732  1.00  0.00     0.174 HD
ATOM     12 2H11 UNL     1      27.680  61.443   4.090  1.00  0.00     0.174 HD
HETATM   13  N12 UNL     1      29.973  62.424   6.269  1.00  0.00    -0.174 N
ATOM     14  H12 UNL     1      30.747  62.843   5.754  1.00  0.00     0.186 HD
HETATM   15  C15 UNL     1      29.882  62.285   7.612  1.00  0.00     0.170 A
ENDROOT
BRANCH   2  16
HETATM   16  N3  UNL     1      31.148  62.682  10.825  1.00  0.00    -0.122 N
ATOM     17  H3  UNL     1      30.918  63.626  11.139  1.00  0.00     0.206 HD
BRANCH  16  18
HETATM   18  N4  UNL     1      32.080  62.192  11.606  1.00  0.00    -0.208 N
ATOM     19  H4  UNL     1      32.938  62.736  11.687  1.00  0.00     0.201 HD
BRANCH  18  20
HETATM   20  S1  UNL     1      32.014  60.713  12.520  1.00  0.00     0.280 S
HETATM   21  O1  UNL     1      32.386  60.921  13.958  1.00  0.00    -0.199 OA
HETATM   22  O2  UNL     1      30.630  60.155  12.436  1.00  0.00    -0.199 OA
BRANCH  20  23
HETATM   23  C8  UNL     1      33.180  59.593  11.858  1.00  0.00     0.129 A
HETATM   24  C9  UNL     1      34.503  59.827  11.536  1.00  0.00     0.117 A
HETATM   25  N5  UNL     1      35.059  58.678  11.045  1.00  0.00    -0.345 N
HETATM   26  C10 UNL     1      34.128  57.719  11.046  1.00  0.00     0.191 A
ATOM     27  H5  UNL     1      36.024  58.570  10.731  1.00  0.00     0.167 HD
HETATM   28  C11 UNL     1      32.962  58.261  11.543  1.00  0.00     0.130 A
HETATM   29  N7  UNL     1      33.892  56.441  10.752  1.00  0.00    -0.082 N
HETATM   30  N6  UNL     1      32.057  57.245  11.521  1.00  0.00    -0.234 N
HETATM   31  O3  UNL     1      32.652  56.184  11.044  1.00  0.00    -0.126 OA
ATOM     32  H6  UNL     1      31.085  57.302  11.824  1.00  0.00     0.197 HD
BRANCH  29  33
HETATM   33  O4  UNL     1      34.748  55.495  10.231  1.00  0.00    -0.260 OA
ATOM     34  H4  UNL     1      35.279  55.535   9.444  1.00  0.00     0.247 HD
ENDBRANCH  29  33
ENDBRANCH  20  23
ENDBRANCH  18  20
ENDBRANCH  16  18
ENDBRANCH   2  16
BRANCH   1  35
HETATM   35  C6  UNL     1      32.004  63.289   8.167  1.00  0.00     0.149 C
BRANCH  35  36
HETATM   36  C5  UNL     1      32.918  62.393   7.362  1.00  0.00     0.023 C
BRANCH  36  37
HETATM   37  C4  UNL     1      33.574  61.419   8.315  1.00  0.00     0.032 C
BRANCH  37  38
HETATM   38  C3  UNL     1      33.084  60.004   8.156  1.00  0.00     0.271 C
BRANCH  38  39
HETATM   39  N1  UNL     1      34.065  59.306   7.335  1.00  0.00     0.080 N
HETATM   40  C1  UNL     1      33.849  57.869   7.370  1.00  0.00     0.309 C
HETATM   41  C2  UNL     1      35.418  59.647   7.735  1.00  0.00     0.309 C
ENDBRANCH  38  39
ENDBRANCH  37  38
ENDBRANCH  36  37
ENDBRANCH  35  36
ENDBRANCH   1  35
BRANCH   5  42
HETATM   42  N9  UNL     1      27.250  60.845   9.515  1.00  0.00    -0.383 N
ATOM     43  H92 UNL     1      26.416  61.123   8.997  1.00  0.00     0.157 HD
ATOM     44  H91 UNL     1      27.153  60.121  10.226  1.00  0.00     0.157 HD
ENDBRANCH   5  42
TORSDOF 11
ENDMDL