MODEL 4
REMARK VINA RESULT: -6.296546693      2.752      5.819
REMARK  11 active torsions:
REMARK  status: ('A' for Active; 'I' for Inactive)
REMARK    1  A    between atoms: C1_4  and  C2_6
REMARK    2  A    between atoms: C4_10  and  C5_11
REMARK       I    between atoms: C5_11  and  N4_13
REMARK    3  A    between atoms: N4_13  and  C6_15
REMARK    4  A    between atoms: N6_19  and  C8_21
REMARK    5  A    between atoms: C8_21  and  C9_22
REMARK    6  A    between atoms: C9_22  and  O2_23
REMARK    7  A    between atoms: O2_23  and  C10_24
REMARK    8  A    between atoms: C10_24  and  C11_25
REMARK    9  A    between atoms: C11_25  and  N7_26
REMARK   10  A    between atoms: C18_38  and  N10_39
REMARK   11  A    between atoms: C19_42  and  O3_43
ROOT
HETATM    1  C6  UNL     1      35.114  58.551  10.812  1.00  0.00     0.150 C
HETATM    2  N5  UNL     1      35.988  59.519  11.194  1.00  0.00    -0.174 N
ATOM      3  H5  UNL     1      36.453  60.009  10.430  1.00  0.00     0.186 HD
HETATM    4  C7  UNL     1      36.337  59.934  12.452  1.00  0.00     0.679 C
HETATM    5  N6  UNL     1      36.907  61.068  12.510  1.00  0.00    -0.224 N
ATOM      6  H6  UNL     1      37.057  61.569  11.634  1.00  0.00     0.177 HD
HETATM    7  N9  UNL     1      36.102  59.212  13.564  1.00  0.00    -0.202 N
ATOM      8  H9  UNL     1      36.830  59.243  14.277  1.00  0.00     0.183 HD
HETATM    9  C16 UNL     1      35.013  58.443  13.858  1.00  0.00     0.108 C
HETATM   10  C17 UNL     1      34.100  57.898  12.975  1.00  0.00     0.050 C
HETATM   11  C18 UNL     1      34.241  57.825  11.596  1.00  0.00     0.072 C
ENDROOT
BRANCH   1  12
HETATM   12  N4  UNL     1      35.084  58.258   9.557  1.00  0.00    -0.306 N
HETATM   13  C5  UNL     1      35.055  59.274   8.556  1.00  0.00     0.262 C
HETATM   14  O1  UNL     1      36.068  59.930   8.260  1.00  0.00    -0.267 OA
ATOM     15  H4  UNL     1      35.082  57.278   9.274  1.00  0.00     0.170 HD
BRANCH  13  16
HETATM   16  C4  UNL     1      33.766  59.536   7.861  1.00  0.00     0.098 A
HETATM   17  C3  UNL     1      33.198  58.544   7.098  1.00  0.00     0.106 A
HETATM   18  S1  UNL     1      31.775  59.255   6.509  1.00  0.00    -0.068 SA
HETATM   19  N3  UNL     1      33.692  57.206   6.850  1.00  0.00    -0.093 NA
HETATM   20  C2  UNL     1      31.920  60.811   7.246  1.00  0.00     0.081 A
HETATM   21  C19 UNL     1      33.093  60.699   7.927  1.00  0.00     0.104 A
BRANCH  20  22
HETATM   22  C1  UNL     1      30.973  61.936   7.125  1.00  0.00     0.130 C
HETATM   23  N1  UNL     1      30.254  62.183   6.135  1.00  0.00    -0.387 N
ATOM     24  H12 UNL     1      29.599  62.962   6.050  1.00  0.00     0.157 HD
ATOM     25  H11 UNL     1      30.320  61.554   5.335  1.00  0.00     0.157 HD
HETATM   26  N2  UNL     1      30.879  62.829   8.257  1.00  0.00    -0.082 NA
ENDBRANCH  20  22
BRANCH  21  27
HETATM   27  O3  UNL     1      33.560  61.817   8.680  1.00  0.00    -0.358 OA
ATOM     28  H3  UNL     1      34.374  61.735   9.161  1.00  0.00     0.217 HD
ENDBRANCH  21  27
ENDBRANCH  13  16
ENDBRANCH   1  12
BRANCH  11  29
HETATM   29  N10 UNL     1      33.469  56.984  10.997  1.00  0.00    -0.396 N
ATOM     30 2H10 UNL     1      33.445  57.051   9.979  1.00  0.00     0.156 HD
ATOM     31 1H10 UNL     1      32.950  56.330  11.581  1.00  0.00     0.156 HD
ENDBRANCH  11  29
BRANCH   5  32
HETATM   32  C8  UNL     1      37.349  61.688  13.710  1.00  0.00     0.164 C
BRANCH  32  33
HETATM   33  C9  UNL     1      36.382  62.835  14.043  1.00  0.00     0.187 C
BRANCH  33  34
HETATM   34  O2  UNL     1      35.861  63.411  12.899  1.00  0.00    -0.388 OA
BRANCH  34  35
HETATM   35  C10 UNL     1      34.675  64.055  13.292  1.00  0.00     0.187 C
BRANCH  35  36
HETATM   36  C11 UNL     1      33.543  63.726  12.348  1.00  0.00     0.143 C
BRANCH  36  37
HETATM   37  N7  UNL     1      32.630  62.840  12.982  1.00  0.00    -0.407 N
HETATM   38  C12 UNL     1      31.255  63.164  12.920  1.00  0.00     0.144 C
HETATM   39  C13 UNL     1      30.493  62.452  11.833  1.00  0.00     0.251 C
HETATM   40  N8  UNL     1      31.333  61.622  11.009  1.00  0.00    -0.072 N
HETATM   41  C14 UNL     1      32.195  60.757  11.759  1.00  0.00     0.251 C
ATOM     42  H82 UNL     1      30.772  61.086  10.347  1.00  0.00     0.277 HD
ATOM     43  H81 UNL     1      31.871  62.190  10.356  1.00  0.00     0.277 HD
HETATM   44  C15 UNL     1      32.943  61.450  12.855  1.00  0.00     0.144 C
ENDBRANCH  36  37
ENDBRANCH  35  36
ENDBRANCH  34  35
ENDBRANCH  33  34
ENDBRANCH  32  33
ENDBRANCH   5  32
TORSDOF 11
ENDMDL