MODEL 5
REMARK VINA RESULT: -6.954430602      2.944      7.041
REMARK  10 active torsions:
REMARK  status: ('A' for Active; 'I' for Inactive)
REMARK    1  A    between atoms: C2_2  and  C3_3
REMARK    2  A    between atoms: C3_3  and  N1_4
REMARK    3  A    between atoms: C7_15  and  C8_16
REMARK    4  A    between atoms: C8_16  and  S1_17
REMARK    5  A    between atoms: S1_17  and  C10_20
REMARK    6  A    between atoms: C10_20  and  C11_21
REMARK    7  A    between atoms: C11_21  and  C12_22
REMARK    8  A    between atoms: C12_22  and  O2_23
REMARK    9  A    between atoms: C14_26  and  C15_27
REMARK   10  A    between atoms: C16_33  and  N7_34
ROOT
HETATM    1  N1  UNL     1      28.672  61.585   9.077  1.00  0.00    -0.221 N
ATOM      2  H1  UNL     1      28.978  60.613   9.035  1.00  0.00     0.178 HD
HETATM    3  C4  UNL     1      29.607  62.399   8.939  1.00  0.00     0.693 C
HETATM    4  N2  UNL     1      30.910  61.780   8.743  1.00  0.00    -0.186 N
ATOM      5  H2  UNL     1      31.182  60.988   9.324  1.00  0.00     0.184 HD
HETATM    6  C5  UNL     1      31.827  62.273   7.734  1.00  0.00     0.106 A
HETATM    7  C6  UNL     1      31.960  63.491   7.179  1.00  0.00     0.123 A
HETATM    8  N3  UNL     1      32.826  63.332   6.154  1.00  0.00    -0.295 N
ATOM      9  H3  UNL     1      33.137  64.070   5.522  1.00  0.00     0.187 HD
HETATM   10  N4  UNL     1      33.203  62.074   6.100  1.00  0.00    -0.301 N
ATOM     11  H4  UNL     1      33.857  61.704   5.408  1.00  0.00     0.186 HD
HETATM   12  C7  UNL     1      32.641  61.351   7.040  1.00  0.00     0.066 A
HETATM   13  C17 UNL     1      31.347  64.777   7.559  1.00  0.00     0.152 C
HETATM   14  N8  UNL     1      31.185  66.021   7.316  1.00  0.00    -0.355 N
ATOM     15  H8  UNL     1      31.538  66.615   6.565  1.00  0.00     0.163 HD
HETATM   16  C18 UNL     1      30.340  66.313   8.452  1.00  0.00     0.274 C
HETATM   17  N9  UNL     1      30.200  64.867   8.476  1.00  0.00    -0.242 N
HETATM   18  N10 UNL     1      29.425  63.828   8.955  1.00  0.00    -0.127 N
ATOM     19  H10 UNL     1      28.561  64.129   9.406  1.00  0.00     0.206 HD
ENDROOT
BRANCH  12  20
HETATM   20  C8  UNL     1      32.815  59.982   7.587  1.00  0.00     0.156 C
BRANCH  20  21
HETATM   21  S1  UNL     1      34.524  59.387   7.980  1.00  0.00    -0.053 S
HETATM   22  C9  UNL     1      34.309  57.769   6.991  1.00  0.00     0.114 C
HETATM   23  O1  UNL     1      35.113  60.776   8.441  1.00  0.00    -0.270 OA
BRANCH  21  24
HETATM   24  C10 UNL     1      34.912  58.514   9.583  1.00  0.00     0.099 C
BRANCH  24  25
HETATM   25  C11 UNL     1      35.494  59.325  10.727  1.00  0.00     0.053 C
BRANCH  25  26
HETATM   26  C12 UNL     1      34.493  59.471  11.793  1.00  0.00     0.115 C
HETATM   27  C13 UNL     1      33.192  58.782  11.646  1.00  0.00     0.084 C
HETATM   28  C14 UNL     1      32.549  59.293  12.956  1.00  0.00     0.279 C
HETATM   29  N6  UNL     1      32.794  60.718  12.813  1.00  0.00    -0.031 N
HETATM   30  C16 UNL     1      34.058  60.893  12.118  1.00  0.00     0.415 C
ATOM     31  H62 UNL     1      32.024  61.206  12.358  1.00  0.00     0.280 HD
ATOM     32  H61 UNL     1      32.763  61.214  13.704  1.00  0.00     0.280 HD
BRANCH  26  33
HETATM   33  O2  UNL     1      35.119  58.956  12.979  1.00  0.00    -0.386 OA
ATOM     34  H2  UNL     1      35.448  58.097  12.738  1.00  0.00     0.210 HD
ENDBRANCH  26  33
BRANCH  28  35
HETATM   35  C15 UNL     1      31.148  58.918  13.049  1.00  0.00     0.262 C
HETATM   36  N5  UNL     1      30.144  59.701  12.448  1.00  0.00    -0.060 NA
HETATM   37  O3  UNL     1      30.823  57.868  13.666  1.00  0.00    -0.275 OA
ENDBRANCH  28  35
BRANCH  30  38
HETATM   38  N7  UNL     1      33.852  61.697  10.964  1.00  0.00    -0.047 N
ATOM     39  H73 UNL     1      34.400  61.348  10.178  1.00  0.00     0.276 HD
ATOM     40  H72 UNL     1      32.913  61.559  10.591  1.00  0.00     0.276 HD
ATOM     41  H71 UNL     1      34.036  62.687  11.123  1.00  0.00     0.276 HD
ENDBRANCH  30  38
ENDBRANCH  25  26
ENDBRANCH  24  25
ENDBRANCH  21  24
ENDBRANCH  20  21
ENDBRANCH  12  20
BRANCH   1  42
HETATM   42  C3  UNL     1      27.274  61.722   9.281  1.00  0.00     0.164 C
BRANCH  42  43
HETATM   43  C2  UNL     1      26.914  60.783  10.431  1.00  0.00    -0.017 C
HETATM   44  C1  UNL     1      26.962  61.226  11.679  1.00  0.00     0.008 C
ENDBRANCH  42  43
ENDBRANCH   1  42
TORSDOF 10
ENDMDL