MODEL 5
REMARK VINA RESULT: -7.055520301      0.742      1.290
REMARK  10 active torsions:
REMARK  status: ('A' for Active; 'I' for Inactive)
REMARK    1  A    between atoms: O1_2  and  C2_3
REMARK    2  A    between atoms: C2_3  and  C3_4
REMARK    3  A    between atoms: C7_14  and  C8_15
REMARK    4  A    between atoms: C9_16  and  C10_17
REMARK    5  A    between atoms: C12_21  and  N6_22
REMARK    6  A    between atoms: C13_27  and  N8_28
REMARK    7  A    between atoms: C14_35  and  C15_36
REMARK    8  A    between atoms: C15_36  and  C16_37
REMARK    9  A    between atoms: C16_37  and  N11_38
REMARK       I    between atoms: N11_38  and  C17_40
REMARK   10  A    between atoms: C20_44  and  N12_45
ROOT
HETATM    1  C8  UNL     1      30.161  65.609  10.261  1.00  0.00     0.033 A
HETATM    2  C9  UNL     1      29.734  66.852   9.686  1.00  0.00     0.077 A
HETATM    3  N9  UNL     1      28.652  67.192  10.387  1.00  0.00    -0.299 N
ATOM      4  H9  UNL     1      28.105  68.036  10.222  1.00  0.00     0.187 HD
HETATM    5  N10 UNL     1      28.381  66.318  11.303  1.00  0.00    -0.303 N
ATOM      6  H10 UNL     1      27.599  66.374  11.956  1.00  0.00     0.186 HD
HETATM    7  C14 UNL     1      29.312  65.296  11.263  1.00  0.00     0.041 A
ENDROOT
BRANCH   1   8
HETATM    8  C7  UNL     1      31.267  64.894   9.647  1.00  0.00     0.106 C
HETATM    9  N4  UNL     1      31.285  63.600   9.219  1.00  0.00    -0.365 N
HETATM   10  C6  UNL     1      31.366  62.481  10.044  1.00  0.00     0.085 C
HETATM   11  C19 UNL     1      31.108  63.345   7.818  1.00  0.00     0.168 C
HETATM   12  C5  UNL     1      32.688  61.710   9.972  1.00  0.00     0.195 C
HETATM   13  N2  UNL     1      32.806  61.048   8.685  1.00  0.00    -0.272 N
HETATM   14  C4  UNL     1      32.699  61.577   7.463  1.00  0.00     0.132 A
HETATM   15  N3  UNL     1      33.049  59.767   8.546  1.00  0.00    -0.283 N
HETATM   16  N1  UNL     1      32.881  60.591   6.575  1.00  0.00    -0.330 N
HETATM   17  C20 UNL     1      32.423  63.015   7.179  1.00  0.00     0.270 C
HETATM   18  C3  UNL     1      33.100  59.457   7.254  1.00  0.00     0.121 A
ATOM     19  H1  UNL     1      32.857  60.687   5.559  1.00  0.00     0.168 HD
ATOM     20  H3  UNL     1      33.179  59.108   9.314  1.00  0.00     0.188 HD
BRANCH  18  21
HETATM   21  C2  UNL     1      33.360  58.076   6.733  1.00  0.00     0.245 C
BRANCH  21  22
HETATM   22  O1  UNL     1      33.497  57.173   7.774  1.00  0.00    -0.389 OA
HETATM   23  C1  UNL     1      32.948  55.964   7.427  1.00  0.00     0.202 C
ENDBRANCH  21  22
ENDBRANCH  18  21
BRANCH  17  24
HETATM   24  N12 UNL     1      32.417  63.232   5.747  1.00  0.00    -0.067 N
ATOM     25 3H12 UNL     1      33.137  63.894   5.454  1.00  0.00     0.275 HD
ATOM     26 2H12 UNL     1      32.750  62.418   5.232  1.00  0.00     0.275 HD
ATOM     27 1H12 UNL     1      31.485  63.521   5.451  1.00  0.00     0.275 HD
ENDBRANCH  17  24
ENDBRANCH   1   8
BRANCH   2  28
HETATM   28  C10 UNL     1      30.339  67.558   8.562  1.00  0.00     0.053 A
HETATM   29  C11 UNL     1      30.009  67.318   7.249  1.00  0.00     0.123 A
HETATM   30  N5  UNL     1      30.642  67.991   6.281  1.00  0.00    -0.201 N
HETATM   31  C12 UNL     1      31.591  68.893   6.551  1.00  0.00     0.677 A
ATOM     32  H5  UNL     1      30.393  67.811   5.308  1.00  0.00     0.183 HD
HETATM   33  N7  UNL     1      31.947  69.163   7.806  1.00  0.00    -0.176 N
HETATM   34  C13 UNL     1      31.319  68.493   8.815  1.00  0.00     0.128 A
ATOM     35  H7  UNL     1      32.671  69.853   8.008  1.00  0.00     0.186 HD
BRANCH  31  36
HETATM   36  N6  UNL     1      32.184  69.528   5.579  1.00  0.00    -0.234 N
ATOM     37  H62 UNL     1      32.949  69.068   5.086  1.00  0.00     0.174 HD
ATOM     38  H61 UNL     1      31.882  70.468   5.324  1.00  0.00     0.174 HD
ENDBRANCH  31  36
BRANCH  34  39
HETATM   39  N8  UNL     1      31.718  68.817   9.995  1.00  0.00    -0.384 N
ATOM     40  H82 UNL     1      32.197  68.069  10.497  1.00  0.00     0.157 HD
ATOM     41  H81 UNL     1      31.581  69.739  10.410  1.00  0.00     0.157 HD
ENDBRANCH  34  39
ENDBRANCH   2  28
BRANCH   7  42
HETATM   42  C15 UNL     1      29.283  64.194  12.256  1.00  0.00     0.079 C
BRANCH  42  43
HETATM   43  C16 UNL     1      27.922  63.527  12.256  1.00  0.00     0.128 C
BRANCH  43  44
HETATM   44  N11 UNL     1      27.940  62.316  11.461  1.00  0.00    -0.361 N
HETATM   45  C17 UNL     1      27.039  62.212  10.378  1.00  0.00     0.213 C
HETATM   46  C18 UNL     1      27.054  60.969   9.559  1.00  0.00     0.117 C
HETATM   47  O2  UNL     1      26.230  63.130  10.084  1.00  0.00    -0.274 OA
ATOM     48  H11 UNL     1      28.587  61.558  11.678  1.00  0.00     0.162 HD
ENDBRANCH  43  44
ENDBRANCH  42  43
ENDBRANCH   7  42
TORSDOF 10
ENDMDL