MODEL 1
REMARK VINA RESULT: -6.537929111      0.000      0.000
REMARK  14 active torsions:
REMARK  status: ('A' for Active; 'I' for Inactive)
REMARK    1  A    between atoms: O1_2  and  N1_3
REMARK    2  A    between atoms: N1_3  and  C2_5
REMARK    3  A    between atoms: C3_8  and  N3_9
REMARK    4  A    between atoms: N3_9  and  C4_11
REMARK    5  A    between atoms: C4_11  and  C5_12
REMARK    6  A    between atoms: C5_12  and  C6_13
REMARK    7  A    between atoms: C6_13  and  C7_14
REMARK    8  A    between atoms: C7_14  and  C8_15
REMARK    9  A    between atoms: C8_15  and  C9_16
REMARK   10  A    between atoms: C9_16  and  O2_17
REMARK   11  A    between atoms: C11_22  and  N5_23
REMARK       I    between atoms: N5_23  and  C12_25
REMARK   12  A    between atoms: C13_32  and  N9_33
REMARK   13  A    between atoms: C15_35  and  N10_36
REMARK   14  A    between atoms: C17_41  and  N11_42
ROOT
HETATM    1  C2  UNL     1      33.276  61.131   8.938  1.00  0.00     0.170 A
HETATM    2  N2  UNL     1      33.419  59.954   8.286  1.00  0.00    -0.173 N
ATOM      3  H2  UNL     1      34.148  59.309   8.589  1.00  0.00     0.186 HD
HETATM    4  C3  UNL     1      32.633  59.606   7.256  1.00  0.00     0.680 A
HETATM    5  N4  UNL     1      31.647  60.441   6.824  1.00  0.00    -0.186 N
ATOM      6  H4  UNL     1      31.057  60.164   6.040  1.00  0.00     0.184 HD
HETATM    7  C10 UNL     1      31.446  61.629   7.422  1.00  0.00     0.124 A
HETATM    8  C11 UNL     1      30.452  62.483   6.992  1.00  0.00     0.153 A
HETATM    9  N8  UNL     1      30.329  63.651   7.657  1.00  0.00    -0.174 N
ATOM     10  H8  UNL     1      29.604  64.308   7.368  1.00  0.00     0.186 HD
HETATM   11  C13 UNL     1      31.137  63.981   8.696  1.00  0.00     0.682 A
HETATM   12  N12 UNL     1      32.105  63.141   9.110  1.00  0.00    -0.185 N
ATOM     13  H12 UNL     1      32.704  63.399   9.894  1.00  0.00     0.184 HD
HETATM   14  C19 UNL     1      32.277  61.971   8.495  1.00  0.00     0.126 A
ENDROOT
BRANCH  11  15
HETATM   15  N9  UNL     1      30.975  65.229   9.377  1.00  0.00    -0.214 N
HETATM   16  C14 UNL     1      30.139  66.270   8.815  1.00  0.00     0.174 C
HETATM   17  C15 UNL     1      29.408  66.946   9.969  1.00  0.00     0.204 C
HETATM   18  C16 UNL     1      30.360  67.567  10.956  1.00  0.00     0.069 C
HETATM   19  C17 UNL     1      31.749  67.024  10.836  1.00  0.00     0.204 C
HETATM   20  C18 UNL     1      31.626  65.508  10.637  1.00  0.00     0.174 C
BRANCH  17  21
HETATM   21  N10 UNL     1      28.633  65.914  10.633  1.00  0.00    -0.073 N
ATOM     22 3H10 UNL     1      27.935  66.286  11.276  1.00  0.00     0.274 HD
ATOM     23 2H10 UNL     1      27.987  65.431  10.009  1.00  0.00     0.274 HD
ATOM     24 1H10 UNL     1      29.302  65.288  11.082  1.00  0.00     0.274 HD
ENDBRANCH  17  21
BRANCH  19  25
HETATM   25  N11 UNL     1      32.527  67.255  12.030  1.00  0.00    -0.073 N
ATOM     26 3H11 UNL     1      31.980  67.745  12.739  1.00  0.00     0.274 HD
ATOM     27 2H11 UNL     1      32.699  66.385  12.534  1.00  0.00     0.274 HD
ATOM     28 1H11 UNL     1      33.398  67.745  11.831  1.00  0.00     0.274 HD
ENDBRANCH  19  25
ENDBRANCH  11  15
BRANCH   8  29
HETATM   29  N5  UNL     1      29.717  62.133   6.013  1.00  0.00    -0.315 N
HETATM   30  C12 UNL     1      28.361  61.811   6.065  1.00  0.00     0.187 C
HETATM   31  N6  UNL     1      27.964  60.784   6.718  1.00  0.00    -0.373 N
HETATM   32  N7  UNL     1      27.420  62.621   5.393  1.00  0.00    -0.064 NA
ATOM     33  H62 UNL     1      28.643  60.199   7.204  1.00  0.00     0.158 HD
ATOM     34  H61 UNL     1      26.972  60.548   6.756  1.00  0.00     0.158 HD
ATOM     35  H5  UNL     1      30.166  62.085   5.098  1.00  0.00     0.170 HD
ENDBRANCH   8  29
BRANCH   1  36
HETATM   36  N1  UNL     1      34.032  61.463   9.929  1.00  0.00    -0.248 N
ATOM     37  H1  UNL     1      34.978  61.811   9.766  1.00  0.00     0.196 HD
BRANCH  36  38
HETATM   38  O1  UNL     1      33.542  61.339  11.207  1.00  0.00    -0.284 OA
HETATM   39  C1  UNL     1      33.636  62.344  12.174  1.00  0.00     0.237 C
ENDBRANCH  36  38
ENDBRANCH   1  36
BRANCH   4  40
HETATM   40  N3  UNL     1      32.799  58.474   6.661  1.00  0.00    -0.226 N
ATOM     41  H3  UNL     1      32.097  58.134   6.005  1.00  0.00     0.177 HD
BRANCH  40  42
HETATM   42  C4  UNL     1      33.978  57.694   6.925  1.00  0.00     0.138 C
BRANCH  42  43
HETATM   43  C5  UNL     1      33.638  56.235   7.191  1.00  0.00     0.020 C
BRANCH  43  44
HETATM   44  C6  UNL     1      32.927  56.190   8.522  1.00  0.00     0.002 C
BRANCH  44  45
HETATM   45  C7  UNL     1      33.793  56.576   9.679  1.00  0.00     0.002 C
BRANCH  45  46
HETATM   46  C8  UNL     1      33.136  56.187  10.985  1.00  0.00     0.026 C
BRANCH  46  47
HETATM   47  C9  UNL     1      32.784  57.405  11.805  1.00  0.00     0.164 C
BRANCH  47  48
HETATM   48  O2  UNL     1      32.873  58.579  11.053  1.00  0.00    -0.401 OA
ATOM     49  H2  UNL     1      33.772  58.872  10.962  1.00  0.00     0.209 HD
ENDBRANCH  47  48
ENDBRANCH  46  47
ENDBRANCH  45  46
ENDBRANCH  44  45
ENDBRANCH  43  44
ENDBRANCH  42  43
ENDBRANCH  40  42
ENDBRANCH   4  40
TORSDOF 14
ENDMDL