MODEL 2
REMARK VINA RESULT: -6.652867230      1.875      2.868
REMARK  9 active torsions:
REMARK  status: ('A' for Active; 'I' for Inactive)
REMARK    1  A    between atoms: O1_2  and  C2_3
REMARK    2  A    between atoms: C2_3  and  C3_4
REMARK    3  A    between atoms: N1_5  and  O2_6
REMARK    4  A    between atoms: N1_5  and  C4_8
REMARK    5  A    between atoms: C4_8  and  C5_9
REMARK    6  A    between atoms: C5_9  and  C6_10
REMARK    7  A    between atoms: C6_10  and  N2_11
REMARK    8  A    between atoms: N2_11  and  C7_13
REMARK    9  A    between atoms: C8_16  and  N4_17
ROOT
HETATM    1  C7  UNL     1      25.266  -9.356  15.646  1.00  0.00     0.129 A
HETATM    2  N3  UNL     1      25.644  -8.279  14.964  1.00  0.00    -0.176 N
ATOM      3  H3  UNL     1      25.005  -7.493  14.847  1.00  0.00     0.186 HD
HETATM    4  C8  UNL     1      26.890  -8.237  14.425  1.00  0.00     0.677 A
HETATM    5  N5  UNL     1      27.772  -9.240  14.548  1.00  0.00    -0.191 N
ATOM      6  H5  UNL     1      28.699  -9.173  14.129  1.00  0.00     0.184 HD
HETATM    7  C9  UNL     1      27.406 -10.342  15.237  1.00  0.00     0.063 A
HETATM    8  C10 UNL     1      28.322 -11.388  15.366  1.00  0.00     0.031 A
HETATM    9  C11 UNL     1      27.928 -12.500  16.073  1.00  0.00     0.002 A
HETATM   10  C12 UNL     1      26.670 -12.580  16.634  1.00  0.00     0.001 A
HETATM   11  C13 UNL     1      25.762 -11.554  16.511  1.00  0.00     0.017 A
HETATM   12  C14 UNL     1      26.150 -10.423  15.799  1.00  0.00     0.035 A
ENDROOT
BRANCH   1  13
HETATM   13  N2  UNL     1      24.108  -9.480  16.187  1.00  0.00    -0.375 N
ATOM     14  H2  UNL     1      23.961 -10.090  16.991  1.00  0.00     0.161 HD
BRANCH  13  15
HETATM   15  C6  UNL     1      23.014  -8.713  15.606  1.00  0.00     0.123 C
BRANCH  15  16
HETATM   16  C5  UNL     1      21.740  -9.216  16.177  1.00  0.00     0.042 C
BRANCH  16  17
HETATM   17  C4  UNL     1      20.964 -10.102  15.268  1.00  0.00     0.156 C
BRANCH  17  18
HETATM   18  N1  UNL     1      21.717 -11.273  14.920  1.00  0.00    -0.274 N
HETATM   19  C3  UNL     1      21.892 -11.578  13.679  1.00  0.00     0.115 C
BRANCH  19  20
HETATM   20  C2  UNL     1      22.666 -12.785  13.294  1.00  0.00     0.213 C
BRANCH  20  21
HETATM   21  O1  UNL     1      24.028 -12.530  13.410  1.00  0.00    -0.391 OA
HETATM   22  C1  UNL     1      24.404 -11.427  12.670  1.00  0.00     0.201 C
ENDBRANCH  20  21
ENDBRANCH  19  20
BRANCH  18  23
HETATM   23  O2  UNL     1      22.264 -12.090  15.867  1.00  0.00    -0.288 OA
ATOM     24  H2  UNL     1      23.140 -11.892  16.178  1.00  0.00     0.244 HD
ENDBRANCH  18  23
ENDBRANCH  17  18
ENDBRANCH  16  17
ENDBRANCH  15  16
ENDBRANCH  13  15
ENDBRANCH   1  13
BRANCH   4  25
HETATM   25  N4  UNL     1      27.167  -7.151  13.781  1.00  0.00    -0.234 N
ATOM     26  H42 UNL     1      26.451  -6.609  13.296  1.00  0.00     0.174 HD
ATOM     27  H41 UNL     1      28.151  -6.882  13.797  1.00  0.00     0.174 HD
ENDBRANCH   4  25
TORSDOF 9
ENDMDL