MODEL 4
REMARK VINA RESULT: -6.959223023      0.814      1.791
REMARK  8 active torsions:
REMARK  status: ('A' for Active; 'I' for Inactive)
REMARK    1  A    between atoms: C5_7  and  N2_8
REMARK    2  A    between atoms: N3_11  and  C6_12
REMARK    3  A    between atoms: C6_12  and  C7_13
REMARK    4  A    between atoms: C7_13  and  C8_14
REMARK    5  A    between atoms: C8_14  and  C9_15
REMARK    6  A    between atoms: C9_15  and  N4_16
REMARK    7  A    between atoms: C14_21  and  C15_22
REMARK    8  A    between atoms: N5_23  and  O1_25
ROOT
HETATM    1  C7  UNL     1      26.733  -8.041  15.058  1.00  0.00     0.022 C
ENDROOT
BRANCH   1   2
HETATM    2  C6  UNL     1      27.475  -8.579  16.245  1.00  0.00     0.132 C
BRANCH   2   3
HETATM    3  N3  UNL     1      27.511 -10.027  16.229  1.00  0.00    -0.323 N
HETATM    4  C2  UNL     1      26.686 -10.782  16.973  1.00  0.00     0.080 A
HETATM    5  C1  UNL     1      25.685 -10.147  17.878  1.00  0.00     0.089 C
HETATM    6  N1  UNL     1      26.725 -12.147  16.945  1.00  0.00    -0.356 N
HETATM    7  C3  UNL     1      27.611 -12.768  16.154  1.00  0.00     0.093 A
ATOM      8  H1  UNL     1      26.084 -12.691  17.523  1.00  0.00     0.166 HD
HETATM    9  C4  UNL     1      28.466 -12.002  15.385  1.00  0.00     0.065 A
HETATM   10  C5  UNL     1      28.412 -10.621  15.426  1.00  0.00     0.103 A
BRANCH  10  11
HETATM   11  N2  UNL     1      29.194  -9.878  14.722  1.00  0.00    -0.385 N
ATOM     12  H22 UNL     1      29.881  -9.299  15.204  1.00  0.00     0.157 HD
ATOM     13  H21 UNL     1      29.150  -9.850  13.703  1.00  0.00     0.157 HD
ENDBRANCH  10  11
ENDBRANCH   2   3
ENDBRANCH   1   2
BRANCH   1  14
HETATM   14  C8  UNL     1      26.002  -9.071  14.265  1.00  0.00     0.022 C
BRANCH  14  15
HETATM   15  C9  UNL     1      24.514  -8.966  14.477  1.00  0.00     0.128 C
BRANCH  15  16
HETATM   16  N4  UNL     1      23.919 -10.253  14.720  1.00  0.00    -0.356 N
HETATM   17  C10 UNL     1      24.448 -11.401  14.238  1.00  0.00     0.091 A
HETATM   18  C11 UNL     1      23.904 -12.639  14.441  1.00  0.00     0.017 A
HETATM   19  C12 UNL     1      22.752 -12.724  15.177  1.00  0.00     0.004 A
HETATM   20  C13 UNL     1      22.199 -11.585  15.673  1.00  0.00     0.031 A
HETATM   21  C14 UNL     1      22.800 -10.345  15.434  1.00  0.00     0.051 A
BRANCH  21  22
HETATM   22  C15 UNL     1      22.136  -9.197  16.019  1.00  0.00     0.143 C
HETATM   23  N5  UNL     1      22.203  -8.939  17.275  1.00  0.00    -0.278 N
ATOM     24  H5  UNL     1      22.734  -9.547  17.897  1.00  0.00     0.193 HD
BRANCH  23  25
HETATM   25  O1  UNL     1      21.557  -7.845  17.772  1.00  0.00    -0.290 OA
ATOM     26  H1  UNL     1      20.649  -7.920  18.043  1.00  0.00     0.244 HD
ENDBRANCH  23  25
ENDBRANCH  21  22
ENDBRANCH  15  16
ENDBRANCH  14  15
ENDBRANCH   1  14
TORSDOF 8
ENDMDL