MODEL 4
REMARK VINA RESULT: -6.328560905      1.174      1.655
REMARK  6 active torsions:
REMARK  status: ('A' for Active; 'I' for Inactive)
REMARK    1  A    between atoms: N3_4  and  C2_6
REMARK    2  A    between atoms: C2_6  and  C3_7
REMARK    3  A    between atoms: C6_10  and  O1_11
REMARK    4  A    between atoms: O1_11  and  C7_12
REMARK    5  A    between atoms: C7_12  and  C8_13
REMARK    6  A    between atoms: C8_13  and  N4_14
ROOT
HETATM    1  C3  UNL     1      23.267  -9.051  12.291  1.00  0.00    -0.038 A
HETATM    2  C4  UNL     1      24.331  -9.912  12.168  1.00  0.00     0.012 A
HETATM    3  C5  UNL     1      24.403 -10.974  13.029  1.00  0.00     0.039 A
HETATM    4  C6  UNL     1      23.463 -11.229  14.016  1.00  0.00     0.093 A
HETATM    5  C14 UNL     1      22.389 -10.356  14.137  1.00  0.00     0.080 A
HETATM    6  N5  UNL     1      21.411 -10.592  15.138  1.00  0.00    -0.100 NA
HETATM    7  C15 UNL     1      22.304  -9.282  13.276  1.00  0.00     0.038 A
ENDROOT
BRANCH   4   8
HETATM    8  O1  UNL     1      23.570 -12.316  14.871  1.00  0.00    -0.348 OA
BRANCH   8   9
HETATM    9  C7  UNL     1      24.816 -12.541  15.502  1.00  0.00     0.196 C
BRANCH   9  10
HETATM   10  C8  UNL     1      25.224 -11.372  16.365  1.00  0.00     0.154 C
BRANCH  10  11
HETATM   11  N4  UNL     1      26.522 -10.861  16.067  1.00  0.00    -0.364 N
HETATM   12  C9  UNL     1      26.829  -9.621  16.519  1.00  0.00     0.090 A
HETATM   13  C10 UNL     1      28.055  -9.030  16.287  1.00  0.00     0.017 A
HETATM   14  C11 UNL     1      29.024  -9.704  15.572  1.00  0.00     0.003 A
HETATM   15  C12 UNL     1      28.689 -10.970  15.118  1.00  0.00     0.017 A
HETATM   16  C13 UNL     1      27.457 -11.530  15.366  1.00  0.00     0.090 A
ENDBRANCH  10  11
ENDBRANCH   9  10
ENDBRANCH   8   9
ENDBRANCH   4   8
BRANCH   1  17
HETATM   17  C2  UNL     1      23.176  -7.901  11.369  1.00  0.00     0.160 C
BRANCH  17  18
HETATM   18  N3  UNL     1      24.346  -7.049  11.440  1.00  0.00    -0.363 N
HETATM   19  C1  UNL     1      24.347  -6.062  12.261  1.00  0.00     0.197 C
HETATM   20  N1  UNL     1      23.230  -5.793  13.095  1.00  0.00    -0.067 NA
HETATM   21  N2  UNL     1      25.500  -5.241  12.316  1.00  0.00    -0.067 NA
ATOM     22  H3  UNL     1      25.156  -7.231  10.846  1.00  0.00     0.162 HD
ENDBRANCH  17  18
ENDBRANCH   1  17
TORSDOF 6
ENDMDL