MODEL 4
REMARK VINA RESULT: -6.524557227      2.167      4.333
REMARK  7 active torsions:
REMARK  status: ('A' for Active; 'I' for Inactive)
REMARK    1  A    between atoms: O1_1  and  N1_3
REMARK       I    between atoms: C1_5  and  N2_6
REMARK       I    between atoms: C1_5  and  N5_18
REMARK    2  A    between atoms: N2_6  and  C2_8
REMARK    3  A    between atoms: C2_8  and  C3_9
REMARK    4  A    between atoms: C3_9  and  N3_10
REMARK    5  A    between atoms: N5_18  and  C8_20
REMARK    6  A    between atoms: C8_20  and  C9_21
REMARK    7  A    between atoms: C9_21  and  N6_22
ROOT
HETATM    1  N1  UNL     1      25.926  -9.739  18.341  1.00  0.00    -0.099 N
ATOM      2  H1  UNL     1      26.471  -9.046  18.853  1.00  0.00     0.213 HD
HETATM    3  C1  UNL     1      26.497 -10.446  17.451  1.00  0.00     0.693 C
HETATM    4  N2  UNL     1      27.882 -10.349  17.092  1.00  0.00    -0.223 N
ATOM      5  H2  UNL     1      28.520 -11.026  17.509  1.00  0.00     0.177 HD
HETATM    6  N5  UNL     1      25.723 -11.415  16.739  1.00  0.00    -0.223 N
ATOM      7  H5  UNL     1      25.902 -12.409  16.880  1.00  0.00     0.177 HD
ENDROOT
BRANCH   1   8
HETATM    8  O1  UNL     1      24.610  -9.888  18.625  1.00  0.00    -0.276 OA
ATOM      9  H1  UNL     1      23.977  -9.215  18.407  1.00  0.00     0.245 HD
ENDBRANCH   1   8
BRANCH   4  10
HETATM   10  C2  UNL     1      28.439  -9.391  16.207  1.00  0.00     0.157 C
BRANCH  10  11
HETATM   11  C3  UNL     1      27.912  -9.502  14.789  1.00  0.00     0.141 C
BRANCH  11  12
HETATM   12  N3  UNL     1      27.471  -8.211  14.306  1.00  0.00    -0.375 N
HETATM   13  C4  UNL     1      26.425  -7.962  13.640  1.00  0.00     0.096 A
HETATM   14  C5  UNL     1      25.359  -8.792  13.144  1.00  0.00     0.045 A
HETATM   15  N4  UNL     1      26.118  -6.625  13.198  1.00  0.00    -0.373 N
HETATM   16  C6  UNL     1      24.496  -8.053  12.476  1.00  0.00    -0.004 A
HETATM   17  C7  UNL     1      24.888  -6.641  12.446  1.00  0.00     0.148 A
ATOM     18  H4  UNL     1      26.682  -5.797  13.388  1.00  0.00     0.161 HD
ATOM     19  H3  UNL     1      28.068  -7.414  14.526  1.00  0.00     0.161 HD
ENDBRANCH  11  12
ENDBRANCH  10  11
ENDBRANCH   4  10
BRANCH   6  20
HETATM   20  C8  UNL     1      24.708 -11.004  15.839  1.00  0.00     0.168 C
BRANCH  20  21
HETATM   21  C9  UNL     1      23.906 -12.201  15.436  1.00  0.00     0.292 C
BRANCH  21  22
HETATM   22  N6  UNL     1      22.500 -11.918  15.440  1.00  0.00     0.090 N
HETATM   23  C10 UNL     1      22.133 -10.679  16.050  1.00  0.00     0.272 C
HETATM   24  C11 UNL     1      20.875 -10.142  15.389  1.00  0.00     0.030 C
HETATM   25  C12 UNL     1      21.195  -9.749  13.957  1.00  0.00     0.003 C
HETATM   26  C13 UNL     1      22.090 -10.782  13.319  1.00  0.00     0.030 C
HETATM   27  C14 UNL     1      21.973 -12.089  14.089  1.00  0.00     0.272 C
ENDBRANCH  21  22
ENDBRANCH  20  21
ENDBRANCH   6  20
TORSDOF 7
ENDMDL