MODEL 4
REMARK VINA RESULT: -6.412230055      1.938      4.929
REMARK  9 active torsions:
REMARK  status: ('A' for Active; 'I' for Inactive)
REMARK    1  A    between atoms: N1_1  and  C1_5
REMARK    2  A    between atoms: C1_5  and  N2_6
REMARK    3  A    between atoms: C1_5  and  C2_10
REMARK    4  A    between atoms: C2_10  and  C3_11
REMARK    5  A    between atoms: C3_11  and  C4_12
REMARK    6  A    between atoms: C4_12  and  C5_13
REMARK    7  A    between atoms: C5_13  and  C6_14
REMARK    8  A    between atoms: C6_14  and  N3_15
REMARK    9  A    between atoms: C8_17  and  O1_18
ROOT
HETATM    1  N3  UNL     1      22.545 -10.646  14.679  1.00  0.00    -0.363 N
HETATM    2  C7  UNL     1      22.121 -10.005  15.780  1.00  0.00     0.127 A
HETATM    3  C8  UNL     1      22.926  -9.876  16.892  1.00  0.00     0.088 A
HETATM    4  C9  UNL     1      24.207 -10.414  16.889  1.00  0.00    -0.007 A
HETATM    5  C10 UNL     1      24.635 -11.064  15.771  1.00  0.00     0.001 A
HETATM    6  C11 UNL     1      23.785 -11.161  14.690  1.00  0.00     0.103 A
HETATM    7  C12 UNL     1      26.005 -11.540  16.005  1.00  0.00    -0.001 A
HETATM    8  C13 UNL     1      27.091 -12.222  15.469  1.00  0.00     0.100 A
HETATM    9  N4  UNL     1      28.087 -12.256  16.378  1.00  0.00    -0.374 N
ATOM     10  H4  UNL     1      28.997 -12.695  16.239  1.00  0.00     0.164 HD
HETATM   11  C14 UNL     1      27.692 -11.622  17.493  1.00  0.00     0.096 A
HETATM   12  C15 UNL     1      26.387 -11.166  17.273  1.00  0.00    -0.026 A
HETATM   13  C16 UNL     1      25.277 -10.438  17.897  1.00  0.00     0.083 A
ENDROOT
BRANCH   1  14
HETATM   14  C6  UNL     1      21.679 -10.780  13.497  1.00  0.00     0.128 C
BRANCH  14  15
HETATM   15  C5  UNL     1      21.342  -9.412  13.006  1.00  0.00     0.020 C
BRANCH  15  16
HETATM   16  C4  UNL     1      22.402  -8.842  12.069  1.00  0.00     0.002 C
BRANCH  16  17
HETATM   17  C3  UNL     1      23.265  -7.844  12.750  1.00  0.00     0.004 C
BRANCH  17  18
HETATM   18  C2  UNL     1      24.682  -8.208  13.000  1.00  0.00     0.062 C
BRANCH  18  19
HETATM   19  C1  UNL     1      25.734  -7.224  12.646  1.00  0.00     0.378 C
BRANCH  19  20
HETATM   20  N1  UNL     1      26.884  -7.154  13.471  1.00  0.00    -0.051 N
ATOM     21  H13 UNL     1      27.103  -6.208  13.782  1.00  0.00     0.276 HD
ATOM     22  H12 UNL     1      26.745  -7.562  14.396  1.00  0.00     0.276 HD
ATOM     23  H11 UNL     1      27.640  -7.592  12.945  1.00  0.00     0.276 HD
ENDBRANCH  19  20
BRANCH  19  24
HETATM   24  N2  UNL     1      25.123  -5.878  12.673  1.00  0.00    -0.051 N
ATOM     25  H23 UNL     1      24.160  -5.864  12.337  1.00  0.00     0.276 HD
ATOM     26  H22 UNL     1      24.932  -5.539  13.615  1.00  0.00     0.276 HD
ATOM     27  H21 UNL     1      25.747  -5.270  12.141  1.00  0.00     0.276 HD
ENDBRANCH  19  24
ENDBRANCH  18  19
ENDBRANCH  17  18
ENDBRANCH  16  17
ENDBRANCH  15  16
ENDBRANCH  14  15
ENDBRANCH   1  14
BRANCH   3  28
HETATM   28  O1  UNL     1      22.498  -9.220  18.025  1.00  0.00    -0.359 OA
ATOM     29  H1  UNL     1      21.622  -9.341  18.372  1.00  0.00     0.217 HD
ENDBRANCH   3  28
TORSDOF 9
ENDMDL