MODEL 5
REMARK VINA RESULT: -5.949004536      1.138      1.627
REMARK  6 active torsions:
REMARK  status: ('A' for Active; 'I' for Inactive)
REMARK    1  A    between atoms: C3_3  and  C4_4
REMARK    2  A    between atoms: C4_4  and  N1_5
REMARK       I    between atoms: N1_5  and  C5_7
REMARK       I    between atoms: C5_7  and  N5_22
REMARK    3  A    between atoms: N2_8  and  C6_10
REMARK    4  A    between atoms: C6_10  and  C7_11
REMARK    5  A    between atoms: C7_11  and  N3_12
REMARK    6  A    between atoms: N3_12  and  C8_14
ROOT
HETATM    1  C1  UNL     1      23.871 -11.704  11.862  1.00  0.00     0.012 C
HETATM    2  C2  UNL     1      23.052 -12.262  12.538  1.00  0.00    -0.116 C
HETATM    3  C3  UNL     1      22.050 -12.958  13.341  1.00  0.00     0.113 C
ENDROOT
BRANCH   3   4
HETATM    4  C4  UNL     1      22.077 -12.382  14.745  1.00  0.00     0.150 C
BRANCH   4   5
HETATM    5  N1  UNL     1      21.935 -10.939  14.707  1.00  0.00    -0.225 N
HETATM    6  C5  UNL     1      22.367 -10.089  15.760  1.00  0.00     0.681 C
HETATM    7  N2  UNL     1      22.422 -10.541  16.971  1.00  0.00    -0.221 N
HETATM    8  N5  UNL     1      22.726  -8.758  15.435  1.00  0.00    -0.150 N
ATOM      9  H2  UNL     1      22.154 -11.507  17.159  1.00  0.00     0.178 HD
HETATM   10  C15 UNL     1      23.499  -8.504  14.311  1.00  0.00     0.015 C
ATOM     11  H5  UNL     1      22.417  -7.986  16.026  1.00  0.00     0.195 HD
HETATM   12  C16 UNL     1      24.185  -8.297  13.337  1.00  0.00     0.037 C
ATOM     13  H1  UNL     1      21.506 -10.514  13.885  1.00  0.00     0.177 HD
BRANCH   7  14
HETATM   14  C6  UNL     1      22.862  -9.689  18.071  1.00  0.00     0.182 C
BRANCH  14  15
HETATM   15  C7  UNL     1      24.192 -10.140  18.609  1.00  0.00     0.076 C
BRANCH  15  16
HETATM   16  N3  UNL     1      25.311  -9.738  17.917  1.00  0.00    -0.394 N
ATOM     17  H3  UNL     1      25.771  -8.899  18.268  1.00  0.00     0.159 HD
BRANCH  16  18
HETATM   18  C8  UNL     1      25.890 -10.318  16.815  1.00  0.00     0.113 C
HETATM   19  C9  UNL     1      27.279  -9.810  16.403  1.00  0.00     0.297 C
HETATM   20  N4  UNL     1      27.615 -10.558  15.210  1.00  0.00     0.090 N
HETATM   21  C10 UNL     1      26.474 -11.007  14.446  1.00  0.00     0.273 C
HETATM   22  C14 UNL     1      28.266 -11.798  15.665  1.00  0.00     0.273 C
HETATM   23  C11 UNL     1      25.673 -12.094  15.183  1.00  0.00     0.037 C
HETATM   24  C12 UNL     1      25.982 -11.812  16.677  1.00  0.00     0.013 C
HETATM   25  C13 UNL     1      27.426 -12.330  16.784  1.00  0.00     0.037 C
ENDBRANCH  16  18
ENDBRANCH  15  16
ENDBRANCH  14  15
ENDBRANCH   7  14
ENDBRANCH   4   5
ENDBRANCH   3   4
TORSDOF 6
ENDMDL