MODEL 1
REMARK VINA RESULT: -6.940771663      0.000      0.000
REMARK  8 active torsions:
REMARK  status: ('A' for Active; 'I' for Inactive)
REMARK    1  A    between atoms: C2_5  and  C3_6
REMARK    2  A    between atoms: C2_5  and  N3_8
REMARK    3  A    between atoms: N3_8  and  C4_10
REMARK    4  A    between atoms: C4_10  and  C5_11
REMARK    5  A    between atoms: C5_11  and  C6_12
REMARK    6  A    between atoms: C6_12  and  C7_13
REMARK    7  A    between atoms: C7_13  and  N4_14
REMARK    8  A    between atoms: N4_14  and  C8_16
ROOT
HETATM    1  N1  UNL     1      22.252  -7.910  12.795  1.00  0.00    -0.172 NA
HETATM    2  C1  UNL     1      23.352  -7.980  13.140  1.00  0.00     0.183 C
HETATM    3  N2  UNL     1      24.672  -8.084  13.568  1.00  0.00    -0.277 N
ATOM      4  H2  UNL     1      24.874  -8.797  14.269  1.00  0.00     0.179 HD
HETATM    5  C2  UNL     1      25.652  -7.371  13.169  1.00  0.00     0.148 C
ENDROOT
BRANCH   5   6
HETATM    6  C3  UNL     1      25.494  -6.324  12.181  1.00  0.00     0.307 C
HETATM    7  O1  UNL     1      25.416  -5.131  12.539  1.00  0.00    -0.298 OA
ENDBRANCH   5   6
BRANCH   5   8
HETATM    8  N3  UNL     1      26.935  -7.620  13.718  1.00  0.00    -0.373 N
ATOM      9  H3  UNL     1      27.771  -7.397  13.177  1.00  0.00     0.161 HD
BRANCH   8  10
HETATM   10  C4  UNL     1      27.065  -8.190  15.041  1.00  0.00     0.121 C
BRANCH  10  11
HETATM   11  C5  UNL     1      28.038  -9.343  14.980  1.00  0.00     0.021 C
BRANCH  11  12
HETATM   12  C6  UNL     1      28.497  -9.798  16.330  1.00  0.00     0.022 C
BRANCH  12  13
HETATM   13  C7  UNL     1      27.863 -11.090  16.769  1.00  0.00     0.138 C
BRANCH  13  14
HETATM   14  N4  UNL     1      26.723 -10.822  17.585  1.00  0.00    -0.226 N
ATOM     15  H4  UNL     1      26.860 -10.771  18.594  1.00  0.00     0.177 HD
BRANCH  14  16
HETATM   16  C8  UNL     1      25.528 -10.641  17.124  1.00  0.00     0.679 A
HETATM   17  N5  UNL     1      24.585  -9.765  17.476  1.00  0.00    -0.190 N
HETATM   18  C9  UNL     1      23.475  -9.908  16.745  1.00  0.00     0.076 A
ATOM     19  H5  UNL     1      24.698  -9.069  18.213  1.00  0.00     0.184 HD
HETATM   20  C10 UNL     1      22.237  -9.288  16.691  1.00  0.00     0.032 A
HETATM   21  C14 UNL     1      23.739 -10.953  15.869  1.00  0.00     0.076 A
HETATM   22  C11 UNL     1      21.268  -9.687  15.788  1.00  0.00     0.002 A
HETATM   23  C12 UNL     1      21.519 -10.721  14.914  1.00  0.00     0.002 A
HETATM   24  C13 UNL     1      22.755 -11.329  14.980  1.00  0.00     0.032 A
HETATM   25  N6  UNL     1      24.999 -11.380  16.124  1.00  0.00    -0.190 N
ATOM     26  H6  UNL     1      25.474 -12.140  15.638  1.00  0.00     0.184 HD
ENDBRANCH  14  16
ENDBRANCH  13  14
ENDBRANCH  12  13
ENDBRANCH  11  12
ENDBRANCH  10  11
ENDBRANCH   8  10
ENDBRANCH   5   8
TORSDOF 8
ENDMDL