MODEL 2
REMARK VINA RESULT: -7.186407485      4.028      5.721
REMARK  6 active torsions:
REMARK  status: ('A' for Active; 'I' for Inactive)
REMARK    1  A    between atoms: N3_4  and  C2_6
REMARK    2  A    between atoms: C2_6  and  C3_7
REMARK    3  A    between atoms: C3_7  and  N4_8
REMARK    4  A    between atoms: C5_13  and  C6_14
REMARK    5  A    between atoms: C6_14  and  C7_15
REMARK    6  A    between atoms: C7_15  and  C8_16
ROOT
HETATM    1  N4  UNL     1      24.803  -8.018   9.136  1.00  0.00    -0.221 N
ATOM      2  H4  UNL     1      24.709  -9.000   8.878  1.00  0.00     0.178 HD
HETATM    3  C4  UNL     1      24.960  -7.733  10.376  1.00  0.00     0.683 A
HETATM    4  N5  UNL     1      24.999  -8.731  11.310  1.00  0.00    -0.180 N
ATOM      5  H5  UNL     1      24.904  -9.704  11.023  1.00  0.00     0.185 HD
HETATM    6  C5  UNL     1      25.164  -8.425  12.601  1.00  0.00     0.101 A
HETATM    7  N6  UNL     1      25.296  -7.169  13.054  1.00  0.00    -0.297 N
ATOM      8  H6  UNL     1      25.419  -6.971  14.047  1.00  0.00     0.172 HD
HETATM    9  C14 UNL     1      25.259  -6.183  12.145  1.00  0.00     0.339 A
HETATM   10  O1  UNL     1      25.381  -4.988  12.534  1.00  0.00    -0.246 OA
HETATM   11  N7  UNL     1      25.092  -6.472  10.821  1.00  0.00    -0.141 N
ATOM     12  H7  UNL     1      25.067  -5.706  10.148  1.00  0.00     0.189 HD
ENDROOT
BRANCH   1  13
HETATM   13  C3  UNL     1      24.750  -7.019   8.068  1.00  0.00     0.182 C
BRANCH  13  14
HETATM   14  C2  UNL     1      26.004  -7.099   7.265  1.00  0.00     0.083 C
BRANCH  14  15
HETATM   15  N3  UNL     1      26.930  -6.058   7.458  1.00  0.00    -0.345 N
HETATM   16  C1  UNL     1      27.794  -5.857   8.338  1.00  0.00     0.200 C
HETATM   17  N1  UNL     1      28.642  -4.683   8.312  1.00  0.00    -0.067 NA
HETATM   18  N2  UNL     1      28.023  -6.727   9.409  1.00  0.00    -0.067 NA
ATOM     19  H3  UNL     1      26.887  -5.330   6.746  1.00  0.00     0.167 HD
ENDBRANCH  14  15
ENDBRANCH  13  14
ENDBRANCH   1  13
BRANCH   6  20
HETATM   20  C6  UNL     1      25.202  -9.532  13.596  1.00  0.00     0.082 C
BRANCH  20  21
HETATM   21  C7  UNL     1      25.639  -9.040  14.965  1.00  0.00     0.046 C
BRANCH  21  22
HETATM   22  C8  UNL     1      26.325 -10.194  15.624  1.00  0.00    -0.058 A
HETATM   23  C9  UNL     1      26.198 -10.459  16.971  1.00  0.00     0.007 A
HETATM   24  C10 UNL     1      26.862 -11.550  17.528  1.00  0.00     0.001 A
HETATM   25  C11 UNL     1      27.655 -12.391  16.774  1.00  0.00     0.000 A
HETATM   26  C12 UNL     1      27.784 -12.126  15.423  1.00  0.00     0.001 A
HETATM   27  C13 UNL     1      27.124 -11.047  14.878  1.00  0.00     0.007 A
ENDBRANCH  21  22
ENDBRANCH  20  21
ENDBRANCH   6  20
TORSDOF 6
ENDMDL