MODEL 4
REMARK VINA RESULT: -6.583126104      3.338      5.856
REMARK  6 active torsions:
REMARK  status: ('A' for Active; 'I' for Inactive)
REMARK    1  A    between atoms: N3_4  and  N4_6
REMARK    2  A    between atoms: N4_6  and  C2_8
REMARK    3  A    between atoms: C5_11  and  C6_12
REMARK    4  A    between atoms: C6_12  and  C7_13
REMARK    5  A    between atoms: C7_13  and  N5_14
REMARK    6  A    between atoms: C10_17  and  C11_18
ROOT
HETATM    1  C2  UNL     1      22.902  -8.707  11.461  1.00  0.00     0.048 A
HETATM    2  C3  UNL     1      21.710  -8.897  12.130  1.00  0.00     0.031 A
HETATM    3  C4  UNL     1      21.465 -10.103  12.746  1.00  0.00     0.009 A
HETATM    4  C5  UNL     1      22.369 -11.143  12.724  1.00  0.00    -0.057 A
HETATM    5  C14 UNL     1      23.551 -10.924  12.048  1.00  0.00     0.009 A
HETATM    6  C15 UNL     1      23.829  -9.729  11.420  1.00  0.00     0.031 A
ENDROOT
BRANCH   4   7
HETATM    7  C6  UNL     1      22.108 -12.447  13.387  1.00  0.00     0.058 C
BRANCH   7   8
HETATM    8  C7  UNL     1      22.042 -12.188  14.871  1.00  0.00     0.132 C
BRANCH   8   9
HETATM    9  N5  UNL     1      23.339 -11.881  15.442  1.00  0.00    -0.366 N
HETATM   10  C8  UNL     1      24.382 -12.706  15.239  1.00  0.00     0.091 A
HETATM   11  C9  UNL     1      25.633 -12.456  15.762  1.00  0.00     0.031 A
HETATM   12  C10 UNL     1      25.868 -11.331  16.523  1.00  0.00     0.004 A
HETATM   13  C12 UNL     1      24.785 -10.479  16.728  1.00  0.00     0.031 A
HETATM   14  C13 UNL     1      23.553 -10.774  16.184  1.00  0.00     0.091 A
BRANCH  12  15
HETATM   15  C11 UNL     1      27.174 -11.035  17.088  1.00  0.00     0.270 C
HETATM   16  O1  UNL     1      27.835 -11.833  17.791  1.00  0.00    -0.301 OA
ENDBRANCH  12  15
ENDBRANCH   8   9
ENDBRANCH   7   8
ENDBRANCH   4   7
BRANCH   1  17
HETATM   17  N4  UNL     1      23.139  -7.455  10.831  1.00  0.00    -0.299 N
ATOM     18  H4  UNL     1      22.487  -7.124  10.120  1.00  0.00     0.187 HD
BRANCH  17  19
HETATM   19  N3  UNL     1      24.229  -6.677  11.157  1.00  0.00    -0.276 N
HETATM   20  C1  UNL     1      24.349  -5.937  12.183  1.00  0.00     0.215 C
HETATM   21  N1  UNL     1      23.279  -5.873  13.120  1.00  0.00    -0.065 NA
HETATM   22  N2  UNL     1      25.529  -5.191  12.389  1.00  0.00    -0.065 NA
ATOM     23  H3  UNL     1      25.017  -6.698  10.511  1.00  0.00     0.189 HD
ENDBRANCH  17  19
ENDBRANCH   1  17
TORSDOF 6
ENDMDL