MODEL 4
REMARK VINA RESULT: -6.254479592      2.207      3.896
REMARK  8 active torsions:
REMARK  status: ('A' for Active; 'I' for Inactive)
REMARK    1  A    between atoms: N2_7  and  C4_8
REMARK    2  A    between atoms: C4_8  and  C5_9
REMARK    3  A    between atoms: C5_9  and  C6_10
REMARK    4  A    between atoms: C6_10  and  C7_11
REMARK    5  A    between atoms: C7_11  and  N3_12
REMARK    6  A    between atoms: C10_15  and  C11_16
REMARK    7  A    between atoms: C11_16  and  O1_17
REMARK    8  A    between atoms: N4_19  and  O2_21
ROOT
HETATM    1  C7  UNL     1      23.899  -9.836  12.742  1.00  0.00     0.128 C
ENDROOT
BRANCH   1   2
HETATM    2  C6  UNL     1      22.815 -10.344  13.636  1.00  0.00     0.022 C
BRANCH   2   3
HETATM    3  C5  UNL     1      22.532  -9.461  14.811  1.00  0.00     0.022 C
BRANCH   3   4
HETATM    4  C4  UNL     1      22.034 -10.197  16.018  1.00  0.00     0.129 C
BRANCH   4   5
HETATM    5  N2  UNL     1      23.072 -10.156  17.030  1.00  0.00    -0.353 N
HETATM    6  C3  UNL     1      24.366 -10.428  16.738  1.00  0.00     0.095 A
HETATM    7  C2  UNL     1      25.369 -10.395  17.685  1.00  0.00     0.065 A
HETATM    8  C1  UNL     1      25.058 -10.071  18.987  1.00  0.00     0.100 A
HETATM    9  N1  UNL     1      25.979 -10.028  19.919  1.00  0.00    -0.385 N
HETATM   10  N5  UNL     1      23.769  -9.802  19.267  1.00  0.00    -0.339 N
ATOM     11  H12 UNL     1      26.956 -10.232  19.706  1.00  0.00     0.157 HD
ATOM     12  H11 UNL     1      25.748  -9.788  20.883  1.00  0.00     0.157 HD
HETATM   13  C14 UNL     1      22.814  -9.844  18.319  1.00  0.00     0.184 A
ATOM     14  H5  UNL     1      23.510  -9.559  20.223  1.00  0.00     0.168 HD
ENDBRANCH   4   5
ENDBRANCH   3   4
ENDBRANCH   2   3
ENDBRANCH   1   2
BRANCH   1  15
HETATM   15  N3  UNL     1      25.146  -9.859  13.485  1.00  0.00    -0.366 N
HETATM   16  C8  UNL     1      25.759 -11.016  13.783  1.00  0.00     0.091 A
HETATM   17  C9  UNL     1      26.940 -11.000  14.489  1.00  0.00     0.033 A
HETATM   18  C10 UNL     1      27.556  -9.823  14.927  1.00  0.00     0.019 A
HETATM   19  C12 UNL     1      26.909  -8.660  14.611  1.00  0.00     0.033 A
HETATM   20  C13 UNL     1      25.717  -8.719  13.895  1.00  0.00     0.091 A
BRANCH  18  21
HETATM   21  C11 UNL     1      28.789  -9.900  15.659  1.00  0.00     0.170 C
HETATM   22  N4  UNL     1      29.947  -9.767  15.222  1.00  0.00    -0.247 N
ATOM     23  H4  UNL     1      30.684  -9.860  15.921  1.00  0.00     0.196 HD
BRANCH  21  24
HETATM   24  O1  UNL     1      28.724 -10.159  17.064  1.00  0.00    -0.344 OA
ATOM     25  H1  UNL     1      27.879 -10.094  17.493  1.00  0.00     0.219 HD
ENDBRANCH  21  24
BRANCH  22  26
HETATM   26  O2  UNL     1      30.373  -9.523  13.993  1.00  0.00    -0.288 OA
ATOM     27  H2  UNL     1      30.018  -9.798  13.156  1.00  0.00     0.244 HD
ENDBRANCH  22  26
ENDBRANCH  18  21
ENDBRANCH   1  15
TORSDOF 8
ENDMDL