MODEL 3
REMARK VINA RESULT: -6.151365445      2.330      3.364
REMARK  8 active torsions:
REMARK  status: ('A' for Active; 'I' for Inactive)
REMARK    1  A    between atoms: N1_3  and  C4_5
REMARK    2  A    between atoms: C4_5  and  C5_6
REMARK    3  A    between atoms: C5_6  and  N2_7
REMARK    4  A    between atoms: N2_7  and  C6_9
REMARK    5  A    between atoms: C7_14  and  N5_15
REMARK    6  A    between atoms: N5_15  and  C8_17
REMARK    7  A    between atoms: C8_17  and  C9_18
REMARK    8  A    between atoms: C9_18  and  C10_19
ROOT
HETATM    1  C1  UNL     1       9.271  30.500  15.681  1.00  0.00     0.123 C
HETATM    2  C2  UNL     1       9.550  29.377  15.287  1.00  0.00    -0.078 C
HETATM    3  N1  UNL     1       9.864  28.099  14.816  1.00  0.00    -0.355 N
HETATM    4  C3  UNL     1       8.781  27.278  14.324  1.00  0.00     0.159 C
ENDROOT
BRANCH   3   5
HETATM    5  C4  UNL     1      11.235  27.635  14.828  1.00  0.00     0.151 C
BRANCH   5   6
HETATM    6  C5  UNL     1      11.944  27.986  13.526  1.00  0.00     0.158 C
BRANCH   6   7
HETATM    7  N2  UNL     1      12.953  28.963  13.748  1.00  0.00    -0.223 N
ATOM      8  H2  UNL     1      12.637  29.928  13.841  1.00  0.00     0.177 HD
BRANCH   7   9
HETATM    9  C6  UNL     1      14.217  28.767  13.844  1.00  0.00     0.707 A
HETATM   10  N3  UNL     1      15.186  29.531  14.390  1.00  0.00    -0.117 N
HETATM   11  N4  UNL     1      16.345  28.890  14.240  1.00  0.00    -0.117 N
ATOM     12  H3  UNL     1      15.054  30.437  14.838  1.00  0.00     0.206 HD
HETATM   13  C7  UNL     1      16.142  27.723  13.603  1.00  0.00     0.707 A
ATOM     14  H4  UNL     1      17.250  29.235  14.560  1.00  0.00     0.206 HD
HETATM   15  N6  UNL     1      14.811  27.658  13.362  1.00  0.00    -0.020 N
ATOM     16  H6  UNL     1      14.334  26.889  12.890  1.00  0.00     0.203 HD
BRANCH  13  17
HETATM   17  N5  UNL     1      17.021  26.811  13.268  1.00  0.00    -0.224 N
ATOM     18  H5  UNL     1      17.786  27.067  12.644  1.00  0.00     0.177 HD
BRANCH  17  19
HETATM   19  C8  UNL     1      16.938  25.450  13.758  1.00  0.00     0.142 C
BRANCH  19  20
HETATM   20  C9  UNL     1      15.941  24.725  12.883  1.00  0.00     0.058 C
BRANCH  20  21
HETATM   21  C10 UNL     1      15.523  23.423  13.402  1.00  0.00    -0.057 A
HETATM   22  C11 UNL     1      16.175  22.847  14.485  1.00  0.00     0.007 A
HETATM   23  C12 UNL     1      15.800  21.620  15.000  1.00  0.00     0.001 A
HETATM   24  C13 UNL     1      14.744  20.915  14.443  1.00  0.00     0.000 A
HETATM   25  C14 UNL     1      14.107  21.501  13.368  1.00  0.00     0.001 A
HETATM   26  C15 UNL     1      14.463  22.704  12.851  1.00  0.00     0.007 A
ENDBRANCH  20  21
ENDBRANCH  19  20
ENDBRANCH  17  19
ENDBRANCH  13  17
ENDBRANCH   7   9
ENDBRANCH   6   7
ENDBRANCH   5   6
ENDBRANCH   3   5
TORSDOF 8
ENDMDL