MODEL 1
REMARK VINA RESULT: -6.411171538      0.000      0.000
REMARK  6 active torsions:
REMARK  status: ('A' for Active; 'I' for Inactive)
REMARK    1  A    between atoms: C9_11  and  C10_12
REMARK    2  A    between atoms: C13_17  and  C14_18
REMARK    3  A    between atoms: C14_18  and  N3_19
REMARK    4  A    between atoms: N3_19  and  C16_21
REMARK    5  A    between atoms: C16_21  and  C17_22
REMARK    6  A    between atoms: C17_22  and  O1_23
ROOT
HETATM    1  C10 UNL     1      15.376  24.259  12.599  1.00  0.00     0.045 C
HETATM    2  C11 UNL     1      14.806  23.052  13.140  1.00  0.00     0.050 A
HETATM    3  C12 UNL     1      15.551  21.944  13.570  1.00  0.00     0.119 A
HETATM    4  N2  UNL     1      14.714  20.977  13.989  1.00  0.00    -0.352 N
ATOM      5  H2  UNL     1      14.982  20.063  14.354  1.00  0.00     0.166 HD
HETATM    6  C13 UNL     1      13.461  21.438  13.839  1.00  0.00     0.110 A
HETATM    7  N4  UNL     1      13.518  22.672  13.333  1.00  0.00    -0.343 N
ATOM      8  H4  UNL     1      12.705  23.250  13.122  1.00  0.00     0.167 HD
ENDROOT
BRANCH   1   9
HETATM    9  C9  UNL     1      15.706  25.383  13.181  1.00  0.00     0.004 A
HETATM   10  C2  UNL     1      16.843  25.706  13.890  1.00  0.00     0.034 A
HETATM   11  C1  UNL     1      17.905  24.992  14.182  1.00  0.00     0.044 C
HETATM   12  N1  UNL     1      16.668  27.011  14.276  1.00  0.00    -0.355 N
HETATM   13  C3  UNL     1      15.506  27.480  13.843  1.00  0.00     0.043 A
ATOM     14  H1  UNL     1      17.341  27.548  14.822  1.00  0.00     0.166 HD
HETATM   15  C4  UNL     1      14.915  28.724  13.989  1.00  0.00     0.030 A
HETATM   16  C8  UNL     1      14.847  26.500  13.143  1.00  0.00     0.003 A
HETATM   17  C5  UNL     1      13.695  28.928  13.430  1.00  0.00     0.002 A
HETATM   18  C6  UNL     1      12.996  27.972  12.718  1.00  0.00     0.001 A
HETATM   19  C7  UNL     1      13.612  26.749  12.591  1.00  0.00     0.014 A
ENDBRANCH   1   9
BRANCH   6  20
HETATM   20  C14 UNL     1      12.217  20.700  14.177  1.00  0.00     0.348 C
BRANCH  20  21
HETATM   21  N3  UNL     1      11.325  20.600  13.050  1.00  0.00     0.093 N
HETATM   22  C15 UNL     1      10.156  21.403  13.318  1.00  0.00     0.310 C
BRANCH  21  23
HETATM   23  C16 UNL     1      10.907  19.257  12.778  1.00  0.00     0.298 C
BRANCH  23  24
HETATM   24  C17 UNL     1       9.861  18.867  13.798  1.00  0.00     0.194 C
BRANCH  24  25
HETATM   25  O1  UNL     1      10.309  17.787  14.552  1.00  0.00    -0.399 OA
ATOM     26  H1  UNL     1       9.784  17.698  15.339  1.00  0.00     0.209 HD
ENDBRANCH  24  25
ENDBRANCH  23  24
ENDBRANCH  21  23
ENDBRANCH  20  21
ENDBRANCH   6  20
TORSDOF 6
ENDMDL