MODEL 4
REMARK VINA RESULT: -5.960858187      1.604      2.667
REMARK  9 active torsions:
REMARK  status: ('A' for Active; 'I' for Inactive)
REMARK    1  A    between atoms: C6_6  and  C7_7
REMARK    2  A    between atoms: C7_7  and  C8_8
REMARK    3  A    between atoms: C8_8  and  C9_9
REMARK    4  A    between atoms: C9_9  and  N1_10
REMARK    5  A    between atoms: N1_10  and  C10_12
REMARK    6  A    between atoms: C13_17  and  N3_18
REMARK    7  A    between atoms: N3_18  and  C14_20
REMARK    8  A    between atoms: C14_20  and  C15_21
REMARK    9  A    between atoms: C15_21  and  O1_22
ROOT
HETATM    1  C10 UNL     1      15.035  27.087  14.850  1.00  0.00     0.118 A
HETATM    2  C11 UNL     1      14.529  27.974  13.923  1.00  0.00     0.066 A
HETATM    3  C12 UNL     1      13.161  28.221  13.900  1.00  0.00     0.110 A
HETATM    4  N2  UNL     1      12.351  27.598  14.774  1.00  0.00    -0.202 N
ATOM      5  H2  UNL     1      11.348  27.782  14.752  1.00  0.00     0.183 HD
HETATM    6  C13 UNL     1      12.849  26.734  15.674  1.00  0.00     0.679 A
HETATM    7  N4  UNL     1      14.171  26.493  15.699  1.00  0.00    -0.177 N
ATOM      8  H4  UNL     1      14.536  25.835  16.388  1.00  0.00     0.185 HD
ENDROOT
BRANCH   1   9
HETATM    9  N1  UNL     1      16.282  26.790  14.953  1.00  0.00    -0.376 N
ATOM     10  H1  UNL     1      16.725  26.958  15.857  1.00  0.00     0.161 HD
BRANCH   9  11
HETATM   11  C9  UNL     1      17.100  26.248  13.919  1.00  0.00     0.121 C
BRANCH  11  12
HETATM   12  C8  UNL     1      16.362  25.062  13.279  1.00  0.00     0.024 C
BRANCH  12  13
HETATM   13  C7  UNL     1      16.700  23.851  14.096  1.00  0.00     0.040 C
BRANCH  13  14
HETATM   14  C6  UNL     1      15.732  22.764  13.997  1.00  0.00    -0.058 A
HETATM   15  C5  UNL     1      15.755  21.655  14.808  1.00  0.00     0.007 A
HETATM   16  C4  UNL     1      14.814  20.672  14.659  1.00  0.00     0.001 A
HETATM   17  C3  UNL     1      13.814  20.755  13.698  1.00  0.00     0.007 A
HETATM   18  C2  UNL     1      13.800  21.873  12.888  1.00  0.00    -0.061 A
HETATM   19  C1  UNL     1      12.734  21.978  11.851  1.00  0.00     0.048 C
HETATM   20  C16 UNL     1      14.737  22.882  13.015  1.00  0.00     0.013 A
ENDBRANCH  13  14
ENDBRANCH  12  13
ENDBRANCH  11  12
ENDBRANCH   9  11
ENDBRANCH   1   9
BRANCH   6  21
HETATM   21  N3  UNL     1      12.042  26.156  16.496  1.00  0.00    -0.224 N
ATOM     22  H3  UNL     1      12.234  26.222  17.495  1.00  0.00     0.177 HD
BRANCH  21  23
HETATM   23  C14 UNL     1      10.881  25.419  16.066  1.00  0.00     0.164 C
BRANCH  23  24
HETATM   24  C15 UNL     1      10.404  24.614  17.282  1.00  0.00     0.184 C
BRANCH  24  25
HETATM   25  O1  UNL     1      11.006  25.232  18.396  1.00  0.00    -0.399 OA
ATOM     26  H1  UNL     1      10.374  25.873  18.700  1.00  0.00     0.209 HD
ENDBRANCH  24  25
ENDBRANCH  23  24
ENDBRANCH  21  23
ENDBRANCH   6  21
TORSDOF 9
ENDMDL