MODEL 2
REMARK VINA RESULT: -6.281176030      2.598      5.369
REMARK  8 active torsions:
REMARK  status: ('A' for Active; 'I' for Inactive)
REMARK    1  A    between atoms: C2_2  and  C3_3
REMARK    2  A    between atoms: C3_3  and  C4_4
REMARK    3  A    between atoms: C4_4  and  N1_5
REMARK    4  A    between atoms: N1_5  and  C5_7
REMARK    5  A    between atoms: C7_14  and  N4_15
REMARK    6  A    between atoms: N4_15  and  C8_17
REMARK    7  A    between atoms: C8_17  and  C9_18
REMARK    8  A    between atoms: C9_18  and  C10_19
ROOT
HETATM    1  C5  UNL     1      12.802  23.791  14.329  1.00  0.00     0.696 A
HETATM    2  N2  UNL     1      12.398  23.151  15.433  1.00  0.00    -0.140 N
ATOM      3  H2  UNL     1      12.482  22.138  15.517  1.00  0.00     0.189 HD
HETATM    4  C6  UNL     1      11.878  23.895  16.431  1.00  0.00     0.352 A
HETATM    5  O1  UNL     1      11.498  23.298  17.468  1.00  0.00    -0.246 OA
HETATM    6  N3  UNL     1      11.769  25.229  16.322  1.00  0.00    -0.140 N
ATOM      7  H3  UNL     1      11.370  25.757  17.099  1.00  0.00     0.189 HD
HETATM    8  C7  UNL     1      12.171  25.893  15.217  1.00  0.00     0.696 A
HETATM    9  N5  UNL     1      12.687  25.155  14.226  1.00  0.00    -0.022 N
ATOM     10  H5  UNL     1      13.002  25.618  13.373  1.00  0.00     0.203 HD
ENDROOT
BRANCH   8  11
HETATM   11  N4  UNL     1      12.059  27.180  15.126  1.00  0.00    -0.225 N
ATOM     12  H4  UNL     1      11.890  27.750  15.955  1.00  0.00     0.177 HD
BRANCH  11  13
HETATM   13  C8  UNL     1      12.182  27.786  13.821  1.00  0.00     0.142 C
BRANCH  13  14
HETATM   14  C9  UNL     1      13.324  28.776  13.758  1.00  0.00     0.058 C
BRANCH  14  15
HETATM   15  C10 UNL     1      14.495  28.037  13.193  1.00  0.00    -0.057 A
HETATM   16  C11 UNL     1      14.506  27.620  11.880  1.00  0.00     0.007 A
HETATM   17  C12 UNL     1      15.562  26.935  11.313  1.00  0.00     0.001 A
HETATM   18  C13 UNL     1      16.667  26.643  12.077  1.00  0.00     0.000 A
HETATM   19  C14 UNL     1      16.654  27.062  13.396  1.00  0.00     0.001 A
HETATM   20  C15 UNL     1      15.603  27.744  13.960  1.00  0.00     0.007 A
ENDBRANCH  14  15
ENDBRANCH  13  14
ENDBRANCH  11  13
ENDBRANCH   8  11
BRANCH   1  21
HETATM   21  N1  UNL     1      13.306  23.153  13.340  1.00  0.00    -0.225 N
ATOM     22  H1  UNL     1      12.788  22.357  12.967  1.00  0.00     0.177 HD
BRANCH  21  23
HETATM   23  C4  UNL     1      14.554  23.492  12.727  1.00  0.00     0.142 C
BRANCH  23  24
HETATM   24  C3  UNL     1      15.720  23.429  13.715  1.00  0.00     0.046 C
BRANCH  24  25
HETATM   25  C2  UNL     1      15.943  22.017  14.080  1.00  0.00    -0.035 C
HETATM   26  C1  UNL     1      15.838  21.579  15.314  1.00  0.00     0.007 C
ENDBRANCH  24  25
ENDBRANCH  23  24
ENDBRANCH  21  23
ENDBRANCH   1  21
TORSDOF 8
ENDMDL