MODEL 2
REMARK VINA RESULT: -5.627659346      1.588      2.231
REMARK  7 active torsions:
REMARK  status: ('A' for Active; 'I' for Inactive)
REMARK    1  A    between atoms: S1_2  and  C2_3
REMARK    2  A    between atoms: N2_8  and  C6_9
REMARK    3  A    between atoms: C6_9  and  C7_10
REMARK    4  A    between atoms: C7_10  and  C8_11
REMARK    5  A    between atoms: C9_12  and  C10_13
REMARK    6  A    between atoms: C10_13  and  N3_14
REMARK    7  A    between atoms: C12_18  and  N5_19
ROOT
HETATM    1  C8  UNL     1      16.443  22.515  14.470  1.00  0.00    -0.027 C
HETATM    2  C9  UNL     1      16.294  23.754  14.054  1.00  0.00    -0.009 C
ENDROOT
BRANCH   2   3
HETATM    3  C10 UNL     1      17.383  24.755  14.074  1.00  0.00     0.177 C
BRANCH   3   4
HETATM    4  N3  UNL     1      16.916  26.086  13.832  1.00  0.00    -0.270 N
HETATM    5  C11 UNL     1      16.992  26.754  12.669  1.00  0.00     0.218 A
HETATM    6  N4  UNL     1      16.443  27.984  12.837  1.00  0.00    -0.185 N
HETATM    7  C12 UNL     1      16.030  28.064  14.110  1.00  0.00     0.691 A
ATOM      8  H4  UNL     1      16.360  28.712  12.128  1.00  0.00     0.185 HD
HETATM    9  N6  UNL     1      16.329  26.899  14.693  1.00  0.00    -0.129 N
ATOM     10  H6  UNL     1      16.132  26.669  15.667  1.00  0.00     0.206 HD
BRANCH   7  11
HETATM   11  N5  UNL     1      15.457  29.066  14.671  1.00  0.00    -0.233 N
ATOM     12  H52 UNL     1      15.295  29.981  14.250  1.00  0.00     0.174 HD
ATOM     13  H51 UNL     1      15.078  29.102  15.617  1.00  0.00     0.174 HD
ENDBRANCH   7  11
ENDBRANCH   3   4
ENDBRANCH   2   3
BRANCH   1  14
HETATM   14  C7  UNL     1      15.332  21.553  14.432  1.00  0.00     0.047 C
BRANCH  14  15
HETATM   15  C6  UNL     1      14.202  22.028  13.525  1.00  0.00     0.134 C
BRANCH  15  16
HETATM   16  N2  UNL     1      12.975  22.214  14.276  1.00  0.00    -0.336 N
HETATM   17  C2  UNL     1      11.799  21.584  14.113  1.00  0.00     0.088 A
HETATM   18  C3  UNL     1      10.922  22.084  15.048  1.00  0.00     0.128 A
HETATM   19  N1  UNL     1      11.564  23.007  15.767  1.00  0.00    -0.354 N
HETATM   20  C4  UNL     1      11.006  23.788  16.867  1.00  0.00     0.156 C
HETATM   21  C5  UNL     1      12.804  23.076  15.290  1.00  0.00     0.185 A
BRANCH  17  22
HETATM   22  S1  UNL     1      11.397  20.332  12.937  1.00  0.00    -0.115 SA
HETATM   23  C1  UNL     1      11.350  21.016  11.264  1.00  0.00     0.097 C
ENDBRANCH  17  22
ENDBRANCH  15  16
ENDBRANCH  14  15
ENDBRANCH   1  14
TORSDOF 7
ENDMDL