MODEL 1
REMARK VINA RESULT: -6.425473421      0.000      0.000
REMARK  8 active torsions:
REMARK  status: ('A' for Active; 'I' for Inactive)
REMARK    1  A    between atoms: C2_3  and  N7_24
REMARK    2  A    between atoms: C3_4  and  C4_5
REMARK    3  A    between atoms: N2_8  and  C7_9
REMARK    4  A    between atoms: C7_9  and  C8_10
REMARK    5  A    between atoms: C8_10  and  C9_11
REMARK    6  A    between atoms: C9_11  and  N3_12
REMARK    7  A    between atoms: N7_24  and  N8_26
REMARK    8  A    between atoms: N8_26  and  N9_27
ROOT
HETATM    1  N1  UNL     1      13.107  23.242  15.858  1.00  0.00    -0.190 NA
HETATM    2  C1  UNL     1      13.385  22.493  14.989  1.00  0.00     0.120 C
HETATM    3  C2  UNL     1      13.689  21.583  13.927  1.00  0.00     0.143 C
HETATM    4  C3  UNL     1      14.517  21.939  12.970  1.00  0.00     0.055 C
ENDROOT
BRANCH   3   5
HETATM    5  N7  UNL     1      13.075  20.268  13.919  1.00  0.00    -0.206 N
ATOM      6  H7  UNL     1      13.636  19.445  13.696  1.00  0.00     0.204 HD
BRANCH   5   7
HETATM    7  N8  UNL     1      11.879  20.143  14.181  1.00  0.00    -0.243 NA
BRANCH   7   8
HETATM    8  N9  UNL     1      10.653  20.046  14.327  1.00  0.00    -0.260 N
ATOM      9  H92 UNL     1      10.666  20.854  13.706  1.00  0.00     0.193 HD
ATOM     10  H91 UNL     1       9.662  19.886  14.507  1.00  0.00     0.193 HD
ENDBRANCH   7   8
ENDBRANCH   5   7
ENDBRANCH   3   5
BRANCH   4  11
HETATM   11  C4  UNL     1      15.142  23.246  12.961  1.00  0.00    -0.031 A
HETATM   12  C5  UNL     1      14.783  24.181  12.014  1.00  0.00     0.028 A
HETATM   13  C6  UNL     1      15.393  25.398  12.005  1.00  0.00     0.091 A
HETATM   14  N2  UNL     1      16.367  25.771  12.896  1.00  0.00    -0.366 N
HETATM   15  C12 UNL     1      16.694  24.847  13.800  1.00  0.00     0.091 A
HETATM   16  C13 UNL     1      16.102  23.592  13.852  1.00  0.00     0.028 A
BRANCH  14  17
HETATM   17  C7  UNL     1      16.907  27.106  12.813  1.00  0.00     0.129 C
BRANCH  17  18
HETATM   18  C8  UNL     1      16.064  28.197  13.325  1.00  0.00     0.042 C
BRANCH  18  19
HETATM   19  C9  UNL     1      15.566  28.211  14.705  1.00  0.00     0.152 C
BRANCH  19  20
HETATM   20  N3  UNL     1      14.282  27.610  14.951  1.00  0.00    -0.273 N
HETATM   21  C10 UNL     1      13.247  27.609  14.040  1.00  0.00     0.218 A
HETATM   22  N4  UNL     1      12.212  26.998  14.598  1.00  0.00    -0.185 N
HETATM   23  C11 UNL     1      12.534  26.600  15.838  1.00  0.00     0.691 A
ATOM     24  H4  UNL     1      11.306  26.852  14.152  1.00  0.00     0.185 HD
HETATM   25  N5  UNL     1      11.823  25.974  16.716  1.00  0.00    -0.233 N
HETATM   26  N6  UNL     1      13.835  27.005  16.014  1.00  0.00    -0.129 N
ATOM     27  H52 UNL     1      10.857  25.673  16.586  1.00  0.00     0.174 HD
ATOM     28  H51 UNL     1      12.068  25.671  17.659  1.00  0.00     0.174 HD
ATOM     29  H6  UNL     1      14.378  26.852  16.863  1.00  0.00     0.206 HD
ENDBRANCH  19  20
ENDBRANCH  18  19
ENDBRANCH  17  18
ENDBRANCH  14  17
ENDBRANCH   4  11
TORSDOF 8
ENDMDL