MODEL 2
REMARK VINA RESULT: -6.980427764      1.865      4.588
REMARK  6 active torsions:
REMARK  status: ('A' for Active; 'I' for Inactive)
REMARK    1  A    between atoms: C2_3  and  N2_4
REMARK       I    between atoms: N2_4  and  C3_6
REMARK    2  A    between atoms: N4_8  and  C4_10
REMARK    3  A    between atoms: C4_10  and  C5_11
REMARK    4  A    between atoms: C5_11  and  C6_12
REMARK    5  A    between atoms: C11_17  and  N5_18
REMARK    6  A    between atoms: N5_18  and  C12_20
ROOT
HETATM    1  N1  UNL     1       7.342  26.149  18.561  1.00  0.00    -0.196 NA
HETATM    2  C1  UNL     1       7.743  25.269  17.930  1.00  0.00     0.078 C
HETATM    3  C2  UNL     1       8.253  24.133  17.146  1.00  0.00     0.246 C
ENDROOT
BRANCH   3   4
HETATM    4  N2  UNL     1       9.473  24.484  16.467  1.00  0.00    -0.352 N
HETATM    5  C3  UNL     1      10.752  24.436  17.055  1.00  0.00     0.184 C
HETATM    6  N3  UNL     1      11.050  25.216  18.204  1.00  0.00    -0.064 NA
HETATM    7  N4  UNL     1      11.665  23.687  16.564  1.00  0.00    -0.364 N
ATOM      8  H4  UNL     1      12.591  23.649  16.989  1.00  0.00     0.162 HD
ATOM      9  H2  UNL     1       9.408  24.787  15.495  1.00  0.00     0.163 HD
BRANCH   7  10
HETATM   10  C4  UNL     1      11.353  22.883  15.378  1.00  0.00     0.127 C
BRANCH  10  11
HETATM   11  C5  UNL     1      12.154  23.481  14.238  1.00  0.00     0.060 C
BRANCH  11  12
HETATM   12  C6  UNL     1      13.580  23.071  14.299  1.00  0.00    -0.030 A
HETATM   13  C7  UNL     1      13.989  21.847  14.786  1.00  0.00     0.009 A
HETATM   14  C8  UNL     1      15.308  21.469  14.840  1.00  0.00     0.001 A
HETATM   15  C9  UNL     1      16.282  22.338  14.389  1.00  0.00     0.002 A
HETATM   16  C10 UNL     1      15.914  23.582  13.890  1.00  0.00     0.030 A
HETATM   17  C11 UNL     1      14.584  23.920  13.855  1.00  0.00     0.038 A
BRANCH  17  18
HETATM   18  N5  UNL     1      14.162  25.181  13.358  1.00  0.00    -0.356 N
ATOM     19  H5  UNL     1      13.227  25.283  12.963  1.00  0.00     0.166 HD
BRANCH  18  20
HETATM   20  C12 UNL     1      14.954  26.199  13.402  1.00  0.00     0.035 A
HETATM   21  C13 UNL     1      15.759  26.547  12.340  1.00  0.00     0.046 A
HETATM   22  C14 UNL     1      16.572  27.650  12.488  1.00  0.00     0.090 A
HETATM   23  N6  UNL     1      16.592  28.373  13.619  1.00  0.00    -0.375 N
HETATM   24  C15 UNL     1      15.812  28.046  14.663  1.00  0.00     0.090 A
ATOM     25  H6  UNL     1      17.209  29.183  13.686  1.00  0.00     0.164 HD
HETATM   26  C16 UNL     1      14.987  26.951  14.551  1.00  0.00     0.046 A
ENDBRANCH  18  20
ENDBRANCH  17  18
ENDBRANCH  11  12
ENDBRANCH  10  11
ENDBRANCH   7  10
ENDBRANCH   3   4
TORSDOF 6
ENDMDL