MODEL 3
REMARK VINA RESULT: -6.553276308      1.393      2.527
REMARK  8 active torsions:
REMARK  status: ('A' for Active; 'I' for Inactive)
REMARK    1  A    between atoms: N1_2  and  C2_4
REMARK    2  A    between atoms: C4_11  and  N4_12
REMARK    3  A    between atoms: N5_15  and  C5_16
REMARK    4  A    between atoms: C5_16  and  C6_17
REMARK    5  A    between atoms: C6_17  and  C7_18
REMARK    6  A    between atoms: C7_18  and  C8_19
REMARK    7  A    between atoms: C8_19  and  C9_20
REMARK    8  A    between atoms: C9_20  and  N6_21
ROOT
HETATM    1  C2  UNL     1      15.887  26.700  14.634  1.00  0.00     0.698 A
HETATM    2  N2  UNL     1      14.988  26.361  15.562  1.00  0.00    -0.140 N
ATOM      3  H2  UNL     1      15.225  25.668  16.271  1.00  0.00     0.189 HD
HETATM    4  C3  UNL     1      13.765  26.936  15.562  1.00  0.00     0.352 A
HETATM    5  O1  UNL     1      12.923  26.598  16.456  1.00  0.00    -0.246 OA
HETATM    6  N3  UNL     1      13.439  27.856  14.630  1.00  0.00    -0.140 N
ATOM      7  H3  UNL     1      12.515  28.289  14.632  1.00  0.00     0.189 HD
HETATM    8  C4  UNL     1      14.347  28.195  13.696  1.00  0.00     0.696 A
HETATM    9  N5  UNL     1      15.566  27.629  13.688  1.00  0.00    -0.014 N
ENDROOT
BRANCH   9  10
HETATM   10  C5  UNL     1      16.530  27.998  12.686  1.00  0.00     0.167 C
BRANCH  10  11
HETATM   11  C6  UNL     1      16.714  26.903  11.638  1.00  0.00     0.022 C
BRANCH  11  12
HETATM   12  C7  UNL     1      15.325  26.497  11.198  1.00  0.00     0.003 C
BRANCH  12  13
HETATM   13  C8  UNL     1      15.146  25.027  11.318  1.00  0.00     0.020 C
BRANCH  13  14
HETATM   14  C9  UNL     1      13.993  24.589  12.176  1.00  0.00     0.128 C
BRANCH  14  15
HETATM   15  N6  UNL     1      14.265  23.412  12.960  1.00  0.00    -0.366 N
HETATM   16  C10 UNL     1      14.964  22.389  12.383  1.00  0.00     0.090 A
HETATM   17  C11 UNL     1      15.285  21.242  13.035  1.00  0.00     0.017 A
HETATM   18  C12 UNL     1      14.903  21.065  14.347  1.00  0.00     0.003 A
HETATM   19  C13 UNL     1      14.200  22.079  14.950  1.00  0.00     0.017 A
HETATM   20  C14 UNL     1      13.896  23.243  14.229  1.00  0.00     0.090 A
ENDBRANCH  14  15
ENDBRANCH  13  14
ENDBRANCH  12  13
ENDBRANCH  11  12
ENDBRANCH  10  11
ENDBRANCH   9  10
BRANCH   1  21
HETATM   21  N1  UNL     1      17.073  26.198  14.565  1.00  0.00    -0.230 N
HETATM   22  C1  UNL     1      17.201  24.769  14.300  1.00  0.00     0.165 C
ATOM     23  H1  UNL     1      17.898  26.783  14.692  1.00  0.00     0.177 HD
ENDBRANCH   1  21
BRANCH   8  24
HETATM   24  N4  UNL     1      14.005  29.087  12.807  1.00  0.00    -0.234 N
ATOM     25  H42 UNL     1      13.538  28.821  11.940  1.00  0.00     0.174 HD
ATOM     26  H41 UNL     1      14.221  30.065  13.004  1.00  0.00     0.174 HD
ENDBRANCH   8  24
TORSDOF 8
ENDMDL