MODEL 1
REMARK VINA RESULT: -6.485439129      0.000      0.000
REMARK  8 active torsions:
REMARK  status: ('A' for Active; 'I' for Inactive)
REMARK    1  A    between atoms: C2_2  and  C3_3
REMARK    2  A    between atoms: C3_3  and  C4_4
REMARK    3  A    between atoms: C4_4  and  N1_5
REMARK    4  A    between atoms: N1_5  and  C5_7
REMARK    5  A    between atoms: C6_12  and  N4_13
REMARK    6  A    between atoms: N4_13  and  C7_15
REMARK    7  A    between atoms: C7_15  and  C8_16
REMARK    8  A    between atoms: C8_16  and  C9_17
ROOT
HETATM    1  C5  UNL     1      13.456  27.132  15.836  1.00  0.00     0.695 A
HETATM    2  N2  UNL     1      14.698  26.689  16.077  1.00  0.00    -0.130 N
ATOM      3  H2  UNL     1      14.869  26.124  16.908  1.00  0.00     0.205 HD
HETATM    4  N3  UNL     1      15.716  26.966  15.261  1.00  0.00    -0.267 N
ATOM      5  H3  UNL     1      16.643  26.604  15.489  1.00  0.00     0.189 HD
HETATM    6  C6  UNL     1      15.560  27.709  14.143  1.00  0.00     0.186 A
HETATM    7  C15 UNL     1      14.271  28.176  13.883  1.00  0.00     0.304 A
HETATM    8  O1  UNL     1      14.078  28.872  12.852  1.00  0.00    -0.263 OA
HETATM    9  N5  UNL     1      13.269  27.872  14.735  1.00  0.00    -0.152 N
ATOM     10  H5  UNL     1      12.332  28.220  14.533  1.00  0.00     0.188 HD
ENDROOT
BRANCH   6  11
HETATM   11  N4  UNL     1      16.542  27.983  13.344  1.00  0.00    -0.370 N
ATOM     12  H4  UNL     1      16.943  28.920  13.298  1.00  0.00     0.161 HD
BRANCH  11  13
HETATM   13  C7  UNL     1      17.048  26.906  12.519  1.00  0.00     0.126 C
BRANCH  13  14
HETATM   14  C8  UNL     1      15.996  26.382  11.569  1.00  0.00     0.058 C
BRANCH  14  15
HETATM   15  C9  UNL     1      15.581  25.011  11.887  1.00  0.00    -0.057 A
HETATM   16  C10 UNL     1      15.801  24.455  13.124  1.00  0.00     0.007 A
HETATM   17  C11 UNL     1      15.403  23.150  13.419  1.00  0.00     0.001 A
HETATM   18  C12 UNL     1      14.784  22.399  12.468  1.00  0.00     0.000 A
HETATM   19  C13 UNL     1      14.562  22.955  11.222  1.00  0.00     0.001 A
HETATM   20  C14 UNL     1      14.958  24.251  10.933  1.00  0.00     0.007 A
ENDBRANCH  14  15
ENDBRANCH  13  14
ENDBRANCH  11  13
ENDBRANCH   6  11
BRANCH   1  21
HETATM   21  N1  UNL     1      12.535  26.819  16.672  1.00  0.00    -0.224 N
ATOM     22  H1  UNL     1      12.607  27.151  17.634  1.00  0.00     0.177 HD
BRANCH  21  23
HETATM   23  C4  UNL     1      11.413  26.021  16.298  1.00  0.00     0.142 C
BRANCH  23  24
HETATM   24  C3  UNL     1      11.810  24.694  15.692  1.00  0.00     0.046 C
BRANCH  24  25
HETATM   25  C2  UNL     1      11.264  24.564  14.318  1.00  0.00    -0.035 C
HETATM   26  C1  UNL     1      12.013  24.833  13.273  1.00  0.00     0.007 C
ENDBRANCH  24  25
ENDBRANCH  23  24
ENDBRANCH  21  23
ENDBRANCH   1  21
TORSDOF 8
ENDMDL