MODEL 2
REMARK VINA RESULT: -8.044216237      1.739      2.529
REMARK  14 active torsions:
REMARK  status: ('A' for Active; 'I' for Inactive)
REMARK    1  A    between atoms: N1_1  and  N2_4
REMARK    2  A    between atoms: C3_8  and  N3_9
REMARK       I    between atoms: N3_9  and  C4_11
REMARK    3  A    between atoms: C4_11  and  C5_13
REMARK    4  A    between atoms: C5_13  and  N4_14
REMARK    5  A    between atoms: C5_13  and  C6_18
REMARK    6  A    between atoms: C6_18  and  C7_19
REMARK    7  A    between atoms: C7_19  and  N5_20
REMARK    8  A    between atoms: N5_20  and  C8_22
REMARK    9  A    between atoms: C10_26  and  O2_27
REMARK   10  A    between atoms: C11_29  and  O3_30
REMARK   11  A    between atoms: C12_32  and  O4_33
REMARK   12  A    between atoms: C12_32  and  C13_35
REMARK   13  A    between atoms: C14_40  and  S1_41
REMARK   14  A    between atoms: S1_41  and  N9_42
ROOT
HETATM    1  C5  UNL     1      12.513  81.589  34.141  1.00  0.00     0.276 C
ENDROOT
BRANCH   1   2
HETATM    2  C4  UNL     1      11.620  82.217  33.069  1.00  0.00     0.254 C
HETATM    3  N3  UNL     1      10.243  82.161  33.205  1.00  0.00    -0.311 N
ATOM      4  H3  UNL     1       9.895  81.676  34.033  1.00  0.00     0.170 HD
HETATM    5  O1  UNL     1      12.190  82.764  32.102  1.00  0.00    -0.271 OA
BRANCH   3   6
HETATM    6  C3  UNL     1       9.267  82.686  32.348  1.00  0.00     0.113 A
HETATM    7  C2  UNL     1       8.090  82.084  31.995  1.00  0.00     0.098 A
HETATM    8  C1  UNL     1       7.200  82.720  31.125  1.00  0.00     0.125 A
HETATM    9  N2  UNL     1       6.117  82.094  30.837  1.00  0.00    -0.292 N
HETATM   10  N10 UNL     1       7.458  83.929  30.606  1.00  0.00    -0.316 N
ATOM     11  H2  UNL     1       5.982  81.176  31.263  1.00  0.00     0.188 HD
HETATM   12  C14 UNL     1       8.608  84.518  30.951  1.00  0.00     0.226 A
ATOM     13  H10 UNL     1       6.801  84.383  29.971  1.00  0.00     0.169 HD
HETATM   14  N8  UNL     1       9.464  83.928  31.777  1.00  0.00    -0.317 N
ATOM     15  H8  UNL     1      10.325  84.426  32.004  1.00  0.00     0.169 HD
BRANCH   9  16
HETATM   16  N1  UNL     1       5.116  82.556  29.998  1.00  0.00    -0.344 N
ATOM     17  H12 UNL     1       5.218  83.514  29.662  1.00  0.00     0.176 HD
ATOM     18  H11 UNL     1       4.300  82.023  29.696  1.00  0.00     0.176 HD
ENDBRANCH   9  16
BRANCH  12  19
HETATM   19  S1  UNL     1       9.036  86.120  30.321  1.00  0.00     0.289 S
HETATM   20  O6  UNL     1      10.538  86.156  30.288  1.00  0.00    -0.198 OA
HETATM   21  O7  UNL     1       8.438  86.209  28.948  1.00  0.00    -0.198 OA
BRANCH  19  22
HETATM   22  N9  UNL     1       8.394  87.329  31.358  1.00  0.00    -0.322 N
ATOM     23  H92 UNL     1       8.762  87.551  32.283  1.00  0.00     0.169 HD
ATOM     24  H91 UNL     1       7.601  87.779  30.902  1.00  0.00     0.169 HD
ENDBRANCH  19  22
ENDBRANCH  12  19
ENDBRANCH   3   6
ENDBRANCH   1   2
BRANCH   1  25
HETATM   25  N4  UNL     1      12.754  80.211  33.862  1.00  0.00    -0.066 N
ATOM     26  H43 UNL     1      12.020  79.616  34.246  1.00  0.00     0.275 HD
ATOM     27  H42 UNL     1      12.624  80.000  32.873  1.00  0.00     0.275 HD
ATOM     28  H41 UNL     1      13.677  79.928  34.189  1.00  0.00     0.275 HD
ENDBRANCH   1  25
BRANCH   1  29
HETATM   29  C6  UNL     1      11.704  81.704  35.426  1.00  0.00     0.062 C
BRANCH  29  30
HETATM   30  C7  UNL     1      12.548  82.432  36.422  1.00  0.00     0.123 C
BRANCH  30  31
HETATM   31  N5  UNL     1      12.098  83.779  36.579  1.00  0.00    -0.377 N
ATOM     32  H5  UNL     1      11.612  84.001  37.448  1.00  0.00     0.160 HD
BRANCH  31  33
HETATM   33  C8  UNL     1      12.255  84.843  35.649  1.00  0.00     0.120 C
HETATM   34  N6  UNL     1      13.340  85.042  35.070  1.00  0.00    -0.374 N
HETATM   35  C9  UNL     1      13.576  86.079  34.134  1.00  0.00     0.155 C
ATOM     36  H6  UNL     1      14.114  84.414  35.285  1.00  0.00     0.160 HD
HETATM   37  C10 UNL     1      12.643  87.258  34.283  1.00  0.00     0.168 C
HETATM   38  C11 UNL     1      11.223  86.836  34.524  1.00  0.00     0.199 C
HETATM   39  C12 UNL     1      11.046  85.674  35.422  1.00  0.00     0.222 C
BRANCH  37  40
HETATM   40  O2  UNL     1      13.124  88.118  35.267  1.00  0.00    -0.391 OA
ATOM     41  H2  UNL     1      13.251  88.985  34.901  1.00  0.00     0.210 HD
ENDBRANCH  37  40
BRANCH  38  42
HETATM   42  O3  UNL     1      10.615  86.597  33.270  1.00  0.00    -0.389 OA
ATOM     43  H3  UNL     1       9.731  86.284  33.423  1.00  0.00     0.210 HD
ENDBRANCH  38  42
BRANCH  39  44
HETATM   44  O4  UNL     1      10.116  84.788  34.823  1.00  0.00    -0.371 OA
ATOM     45  H4  UNL     1      10.068  85.071  33.917  1.00  0.00     0.211 HD
ENDBRANCH  39  44
BRANCH  39  46
HETATM   46  C13 UNL     1      10.515  86.040  36.757  1.00  0.00     0.276 C
HETATM   47  N7  UNL     1      11.221  86.955  37.575  1.00  0.00    -0.059 NA
HETATM   48  O5  UNL     1       9.437  85.564  37.211  1.00  0.00    -0.273 OA
ENDBRANCH  39  46
ENDBRANCH  31  33
ENDBRANCH  30  31
ENDBRANCH  29  30
ENDBRANCH   1  29
TORSDOF 14
ENDMDL