MODEL 2
REMARK VINA RESULT: -7.324561082      1.278      1.719
REMARK  12 active torsions:
REMARK  status: ('A' for Active; 'I' for Inactive)
REMARK    1  A    between atoms: C2_3  and  S1_4
REMARK    2  A    between atoms: S1_4  and  C3_5
REMARK    3  A    between atoms: C3_5  and  C4_6
REMARK    4  A    between atoms: C5_9  and  C6_10
REMARK    5  A    between atoms: N3_11  and  N4_13
REMARK       I    between atoms: N4_13  and  C7_15
REMARK    6  A    between atoms: N6_17  and  N7_19
REMARK    7  A    between atoms: C9_24  and  N10_25
REMARK    8  A    between atoms: N10_25  and  N11_27
REMARK    9  A    between atoms: C10_30  and  C11_31
REMARK       I    between atoms: C11_31  and  N12_33
REMARK   10  A    between atoms: N12_33  and  C12_35
REMARK   11  A    between atoms: N15_40  and  C13_41
REMARK   12  A    between atoms: C13_41  and  O3_42
ROOT
HETATM    1  C1  UNL     1       7.118  85.719  33.996  1.00  0.00     0.157 C
HETATM    2  N1  UNL     1       8.347  85.566  33.249  1.00  0.00    -0.339 N
HETATM    3  C2  UNL     1       9.520  86.096  33.619  1.00  0.00     0.086 A
HETATM    4  C5  UNL     1      10.515  85.767  32.682  1.00  0.00     0.045 A
HETATM    5  C9  UNL     1       9.836  85.017  31.760  1.00  0.00     0.094 A
HETATM    6  C10 UNL     1       8.480  84.890  32.109  1.00  0.00     0.133 A
ENDROOT
BRANCH   6   7
HETATM    7  C11 UNL     1       7.455  84.166  31.346  1.00  0.00     0.289 C
HETATM    8  O2  UNL     1       7.160  84.505  30.174  1.00  0.00    -0.265 OA
HETATM    9  N12 UNL     1       6.789  83.061  31.945  1.00  0.00    -0.151 N
ATOM     10  H12 UNL     1       6.316  83.175  32.841  1.00  0.00     0.188 HD
BRANCH   9  11
HETATM   11  C12 UNL     1       6.785  81.917  31.355  1.00  0.00     0.717 A
HETATM   12  N13 UNL     1       6.045  81.604  30.257  1.00  0.00    -0.115 N
HETATM   13  N14 UNL     1       6.307  80.327  29.935  1.00  0.00    -0.209 N
ATOM     14  H13 UNL     1       5.405  82.229  29.765  1.00  0.00     0.207 HD
HETATM   15  N15 UNL     1       7.182  79.839  30.794  1.00  0.00    -0.181 N
ATOM     16  H14 UNL     1       5.896  79.817  29.153  1.00  0.00     0.210 HD
HETATM   17  N16 UNL     1       7.463  80.789  31.638  1.00  0.00    -0.111 N
ATOM     18  H16 UNL     1       8.114  80.691  32.416  1.00  0.00     0.207 HD
BRANCH  15  19
HETATM   19  C13 UNL     1       7.715  78.495  30.781  1.00  0.00     0.336 C
BRANCH  19  20
HETATM   20  O3  UNL     1       6.845  77.563  31.327  1.00  0.00    -0.379 OA
ATOM     21  H3  UNL     1       5.962  77.897  31.430  1.00  0.00     0.211 HD
ENDBRANCH  19  20
ENDBRANCH  15  19
ENDBRANCH   9  11
ENDBRANCH   6   7
BRANCH   5  22
HETATM   22  N10 UNL     1      10.364  84.392  30.608  1.00  0.00    -0.304 N
ATOM     23  H10 UNL     1      10.604  84.973  29.804  1.00  0.00     0.186 HD
BRANCH  22  24
HETATM   24  N11 UNL     1      10.571  83.011  30.523  1.00  0.00    -0.345 N
ATOM     25 2H11 UNL     1      10.122  82.512  29.754  1.00  0.00     0.176 HD
ATOM     26 1H11 UNL     1      11.145  82.497  31.191  1.00  0.00     0.176 HD
ENDBRANCH  22  24
ENDBRANCH   5  22
BRANCH   3  27
HETATM   27  S1  UNL     1       9.792  87.090  35.096  1.00  0.00    -0.102 SA
BRANCH  27  28
HETATM   28  C3  UNL     1       9.261  88.788  34.757  1.00  0.00     0.180 C
BRANCH  28  29
HETATM   29  C4  UNL     1       9.916  89.276  33.510  1.00  0.00     0.240 C
HETATM   30  N2  UNL     1       9.160  89.687  32.390  1.00  0.00    -0.061 NA
HETATM   31  O1  UNL     1      11.182  89.325  33.448  1.00  0.00    -0.276 OA
ENDBRANCH  28  29
ENDBRANCH  27  28
ENDBRANCH   3  27
BRANCH   4  32
HETATM   32  C6  UNL     1      11.906  86.187  32.777  1.00  0.00     0.123 C
HETATM   33  N3  UNL     1      12.901  85.698  33.264  1.00  0.00    -0.309 N
ATOM     34  H3  UNL     1      13.689  86.327  33.112  1.00  0.00     0.186 HD
BRANCH  33  35
HETATM   35  N4  UNL     1      13.322  84.634  33.923  1.00  0.00    -0.273 N
HETATM   36  C7  UNL     1      13.075  83.256  33.552  1.00  0.00     0.222 C
HETATM   37  N5  UNL     1      12.954  82.895  32.169  1.00  0.00    -0.061 NA
HETATM   38  N6  UNL     1      12.971  82.395  34.482  1.00  0.00    -0.270 N
ATOM     39  H6  UNL     1      13.068  82.718  35.444  1.00  0.00     0.189 HD
ATOM     40  H4  UNL     1      13.869  84.797  34.768  1.00  0.00     0.189 HD
BRANCH  38  41
HETATM   41  N7  UNL     1      12.737  81.056  34.273  1.00  0.00    -0.274 N
HETATM   42  C8  UNL     1      11.634  80.476  34.038  1.00  0.00     0.215 C
HETATM   43  N8  UNL     1      10.410  81.185  33.951  1.00  0.00    -0.065 NA
HETATM   44  N9  UNL     1      11.612  79.068  33.848  1.00  0.00    -0.065 NA
ATOM     45  H7  UNL     1      13.557  80.450  34.313  1.00  0.00     0.189 HD
ENDBRANCH  38  41
ENDBRANCH  33  35
ENDBRANCH   4  32
TORSDOF 12
ENDMDL