MODEL 3
REMARK VINA RESULT: -6.920234357      2.096      3.180
REMARK  16 active torsions:
REMARK  status: ('A' for Active; 'I' for Inactive)
REMARK    1  A    between atoms: C2_2  and  C3_3
REMARK    2  A    between atoms: C4_5  and  O1_6
REMARK    3  A    between atoms: C5_8  and  O2_9
REMARK    4  A    between atoms: C5_8  and  C6_11
REMARK    5  A    between atoms: C8_15  and  C9_16
REMARK    6  A    between atoms: C9_16  and  O5_18
REMARK    7  A    between atoms: O5_18  and  C10_19
REMARK    8  A    between atoms: C10_19  and  C11_20
REMARK    9  A    between atoms: C11_20  and  O6_21
REMARK   10  A    between atoms: O6_21  and  C12_22
REMARK   11  A    between atoms: C12_22  and  C13_24
REMARK   12  A    between atoms: C13_24  and  N2_25
REMARK   13  A    between atoms: C13_24  and  C14_29
REMARK   14  A    between atoms: C14_29  and  C15_30
REMARK   15  A    between atoms: C16_33  and  N3_34
REMARK   16  A    between atoms: C17_41  and  O10_42
ROOT
HETATM    1  C1  UNL     1       6.977  83.885  33.058  1.00  0.00     0.024 C
HETATM    2  C2  UNL     1       8.369  84.524  33.179  1.00  0.00     0.054 C
HETATM    3  C4  UNL     1       8.644  85.219  31.895  1.00  0.00     0.175 C
HETATM    4  C5  UNL     1       8.997  84.200  30.833  1.00  0.00     0.164 C
HETATM    5  C7  UNL     1      10.258  83.533  31.266  1.00  0.00     0.079 C
HETATM    6  C8  UNL     1      10.299  82.991  32.632  1.00  0.00     0.163 C
HETATM    7  C16 UNL     1       9.471  81.712  32.819  1.00  0.00     0.407 C
HETATM    8  N4  UNL     1       8.780  82.269  33.937  1.00  0.00    -0.011 N
ATOM      9  H41 UNL     1       8.879  81.857  34.864  1.00  0.00     0.283 HD
ATOM     10  H42 UNL     1       7.767  82.179  34.016  1.00  0.00     0.283 HD
HETATM   11  C17 UNL     1       9.386  83.559  33.632  1.00  0.00     0.258 C
ENDROOT
BRANCH   6  12
HETATM   12  C9  UNL     1      11.691  82.713  33.052  1.00  0.00     0.276 C
HETATM   13  O4  UNL     1      12.686  82.803  32.300  1.00  0.00    -0.264 OA
BRANCH  12  14
HETATM   14  O5  UNL     1      11.908  82.331  34.362  1.00  0.00    -0.319 OA
BRANCH  14  15
HETATM   15  C10 UNL     1      13.249  82.098  34.828  1.00  0.00     0.205 C
BRANCH  15  16
HETATM   16  C11 UNL     1      13.572  83.040  35.957  1.00  0.00     0.205 C
BRANCH  16  17
HETATM   17  O6  UNL     1      13.102  84.337  35.794  1.00  0.00    -0.318 OA
BRANCH  17  18
HETATM   18  C12 UNL     1      13.538  85.264  34.861  1.00  0.00     0.290 C
HETATM   19  O7  UNL     1      14.769  85.321  34.614  1.00  0.00    -0.263 OA
BRANCH  18  20
HETATM   20  C13 UNL     1      12.551  86.158  34.185  1.00  0.00     0.292 C
BRANCH  20  21
HETATM   21  N2  UNL     1      12.757  86.102  32.763  1.00  0.00    -0.065 N
ATOM     22  H23 UNL     1      13.269  86.912  32.415  1.00  0.00     0.275 HD
ATOM     23  H22 UNL     1      13.427  85.381  32.498  1.00  0.00     0.275 HD
ATOM     24  H21 UNL     1      11.857  85.984  32.297  1.00  0.00     0.275 HD
ENDBRANCH  20  21
BRANCH  20  25
HETATM   25  C14 UNL     1      12.772  87.602  34.623  1.00  0.00     0.156 C
BRANCH  25  26
HETATM   26  C15 UNL     1      12.303  88.510  33.550  1.00  0.00     0.175 C
HETATM   27  O8  UNL     1      13.133  89.217  32.951  1.00  0.00    -0.648 OA
HETATM   28  O9  UNL     1      10.962  88.568  33.221  1.00  0.00    -0.648 OA
ENDBRANCH  25  26
ENDBRANCH  20  25
ENDBRANCH  18  20
ENDBRANCH  17  18
ENDBRANCH  16  17
ENDBRANCH  15  16
ENDBRANCH  14  15
ENDBRANCH  12  14
ENDBRANCH   6  12
BRANCH   7  29
HETATM   29  N3  UNL     1      10.241  80.552  33.217  1.00  0.00    -0.049 N
ATOM     30  H33 UNL     1      11.092  80.481  32.657  1.00  0.00     0.276 HD
ATOM     31  H32 UNL     1      10.650  80.697  34.140  1.00  0.00     0.276 HD
ATOM     32  H31 UNL     1       9.725  79.673  33.190  1.00  0.00     0.276 HD
ENDBRANCH   7  29
BRANCH  11  33
HETATM   33  O10 UNL     1      10.105  83.970  34.781  1.00  0.00    -0.363 OA
ATOM     34  H10 UNL     1       9.646  83.827  35.600  1.00  0.00     0.212 HD
ENDBRANCH  11  33
BRANCH   4  35
HETATM   35  O2  UNL     1       7.959  83.318  30.589  1.00  0.00    -0.378 OA
ATOM     36  H2  UNL     1       8.142  82.742  29.856  1.00  0.00     0.211 HD
ENDBRANCH   4  35
BRANCH   4  37
HETATM   37  C6  UNL     1       9.287  84.944  29.581  1.00  0.00     0.268 C
HETATM   38  N1  UNL     1       8.795  86.246  29.383  1.00  0.00    -0.059 NA
HETATM   39  O3  UNL     1       9.989  84.423  28.656  1.00  0.00    -0.273 OA
ENDBRANCH   4  37
BRANCH   2  40
HETATM   40  C3  UNL     1       8.194  85.614  34.248  1.00  0.00     0.103 C
HETATM   41  S1  UNL     1       6.599  85.409  35.046  1.00  0.00    -0.097 SA
ENDBRANCH   2  40
BRANCH   3  42
HETATM   42  O1  UNL     1       9.734  86.067  32.055  1.00  0.00    -0.391 OA
ATOM     43  H1  UNL     1       9.728  86.720  31.365  1.00  0.00     0.210 HD
ENDBRANCH   3  42
TORSDOF 16
ENDMDL