MODEL 1
REMARK VINA RESULT: -7.676263065      0.000      0.000
REMARK  13 active torsions:
REMARK  status: ('A' for Active; 'I' for Inactive)
REMARK    1  A    between atoms: C7_21  and  C8_22
REMARK       I    between atoms: C8_22  and  N6_24
REMARK    2  A    between atoms: N6_24  and  C9_26
REMARK    3  A    between atoms: C9_26  and  C10_27
REMARK    4  A    between atoms: C10_27  and  N7_28
REMARK    5  A    between atoms: C11_30  and  C12_31
REMARK    6  A    between atoms: C11_30  and  C14_40
REMARK    7  A    between atoms: C12_31  and  C13_33
REMARK    8  A    between atoms: C13_33  and  N8_34
REMARK    9  A    between atoms: C13_33  and  O6_38
REMARK   10  A    between atoms: C14_40  and  O7_41
REMARK   11  A    between atoms: C14_40  and  C15_43
REMARK   12  A    between atoms: C15_43  and  C16_45
REMARK   13  A    between atoms: C16_45  and  O9_46
ROOT
HETATM    1  C8  UNL     1      10.759  87.587  33.576  1.00  0.00     0.253 C
HETATM    2  O4  UNL     1      11.367  88.668  33.250  1.00  0.00    -0.268 OA
HETATM    3  N6  UNL     1      11.455  86.654  34.400  1.00  0.00    -0.355 N
ATOM      4  H6  UNL     1      10.981  85.787  34.654  1.00  0.00     0.162 HD
ENDROOT
BRANCH   1   5
HETATM    5  C7  UNL     1       9.423  87.423  33.078  1.00  0.00     0.069 A
HETATM    6  C6  UNL     1       9.182  86.697  31.907  1.00  0.00     0.093 A
HETATM    7  C3  UNL     1       7.897  86.551  31.381  1.00  0.00     0.128 A
HETATM    8  C5  UNL     1      10.206  86.095  31.245  1.00  0.00     0.264 A
HETATM    9  N3  UNL     1       6.873  87.125  32.024  1.00  0.00    -0.319 N
HETATM   10  N4  UNL     1       7.677  85.842  30.258  1.00  0.00    -0.293 N
HETATM   11  C2  UNL     1       7.047  87.832  33.154  1.00  0.00     0.187 A
ATOM     12  H3  UNL     1       5.932  87.023  31.645  1.00  0.00     0.169 HD
HETATM   13  O1  UNL     1       6.185  88.459  33.919  1.00  0.00    -0.217 OA
HETATM   14  C17 UNL     1       8.335  87.992  33.701  1.00  0.00     0.079 A
HETATM   15  N2  UNL     1       6.794  89.006  34.906  1.00  0.00    -0.242 N
HETATM   16  C1  UNL     1       8.149  88.744  34.819  1.00  0.00     0.135 A
ATOM     17  H2  UNL     1       6.347  89.551  35.643  1.00  0.00     0.196 HD
HETATM   18  N1  UNL     1       9.013  89.143  35.650  1.00  0.00    -0.383 N
ATOM     19  H12 UNL     1       8.874  89.706  36.489  1.00  0.00     0.157 HD
ATOM     20  H11 UNL     1      10.013  88.950  35.587  1.00  0.00     0.157 HD
HETATM   21  C4  UNL     1       8.698  85.253  29.611  1.00  0.00     0.328 A
ATOM     22  H4  UNL     1       6.728  85.751  29.895  1.00  0.00     0.172 HD
HETATM   23  O2  UNL     1       8.482  84.589  28.555  1.00  0.00    -0.247 OA
HETATM   24  N5  UNL     1       9.936  85.385  30.107  1.00  0.00    -0.275 N
ATOM     25  H5  UNL     1      10.709  84.937  29.615  1.00  0.00     0.173 HD
HETATM   26  O3  UNL     1      11.400  86.169  31.647  1.00  0.00    -0.267 OA
ENDBRANCH   1   5
BRANCH   3  27
HETATM   27  C9  UNL     1      12.768  86.866  34.885  1.00  0.00     0.142 C
BRANCH  27  28
HETATM   28  C10 UNL     1      13.832  85.903  34.491  1.00  0.00     0.139 C
BRANCH  28  29
HETATM   29  N7  UNL     1      13.325  84.762  33.796  1.00  0.00    -0.386 N
HETATM   30  C11 UNL     1      13.292  83.546  34.186  1.00  0.00     0.092 C
ATOM     31  H7  UNL     1      12.940  84.941  32.869  1.00  0.00     0.159 HD
BRANCH  30  32
HETATM   32  C12 UNL     1      13.801  83.115  35.479  1.00  0.00     0.230 C
HETATM   33  O5  UNL     1      15.060  83.012  35.690  1.00  0.00    -0.286 OA
BRANCH  32  34
HETATM   34  C13 UNL     1      12.951  82.767  36.636  1.00  0.00     0.393 C
BRANCH  34  35
HETATM   35  N8  UNL     1      11.730  83.600  36.597  1.00  0.00    -0.046 N
ATOM     36  H83 UNL     1      11.858  84.455  36.055  1.00  0.00     0.277 HD
ATOM     37  H82 UNL     1      10.992  83.182  36.030  1.00  0.00     0.277 HD
ATOM     38  H81 UNL     1      11.429  83.786  37.553  1.00  0.00     0.277 HD
ENDBRANCH  34  35
BRANCH  34  39
HETATM   39  O6  UNL     1      12.446  81.453  36.509  1.00  0.00    -0.364 OA
ATOM     40  H6  UNL     1      12.927  80.852  37.066  1.00  0.00     0.212 HD
ENDBRANCH  34  39
ENDBRANCH  32  34
ENDBRANCH  30  32
BRANCH  30  41
HETATM   41  C14 UNL     1      12.667  82.558  33.241  1.00  0.00     0.243 C
BRANCH  41  42
HETATM   42  O7  UNL     1      13.337  82.724  32.003  1.00  0.00    -0.382 OA
ATOM     43  H7  UNL     1      12.976  83.511  31.612  1.00  0.00     0.211 HD
ENDBRANCH  41  42
BRANCH  41  44
HETATM   44  C15 UNL     1      11.238  82.923  33.023  1.00  0.00     0.184 C
HETATM   45  O8  UNL     1      10.698  83.768  33.750  1.00  0.00    -0.292 OA
BRANCH  44  46
HETATM   46  C16 UNL     1      10.497  82.261  31.927  1.00  0.00     0.245 C
BRANCH  46  47
HETATM   47  O9  UNL     1      10.965  82.673  30.668  1.00  0.00    -0.393 OA
ATOM     48  H9  UNL     1      10.250  82.934  30.100  1.00  0.00     0.209 HD
ENDBRANCH  46  47
ENDBRANCH  44  46
ENDBRANCH  41  44
ENDBRANCH  30  41
ENDBRANCH  28  29
ENDBRANCH  27  28
ENDBRANCH   3  27
TORSDOF 13
ENDMDL