MODEL 2
REMARK VINA RESULT: -6.697948968      2.366      4.747
REMARK  15 active torsions:
REMARK  status: ('A' for Active; 'I' for Inactive)
REMARK    1  A    between atoms: N1_2  and  C2_5
REMARK    2  A    between atoms: C3_6  and  N2_7
REMARK    3  A    between atoms: C5_12  and  N3_13
REMARK    4  A    between atoms: N3_13  and  N4_14
REMARK    5  A    between atoms: C6_17  and  O1_18
REMARK    6  A    between atoms: O1_18  and  C7_19
REMARK    7  A    between atoms: C8_21  and  O3_22
REMARK    8  A    between atoms: O3_22  and  C9_23
REMARK    9  A    between atoms: C10_24  and  N5_25
REMARK   10  A    between atoms: C12_30  and  N6_31
REMARK   11  A    between atoms: C13_35  and  O4_36
REMARK   12  A    between atoms: C14_38  and  N7_39
REMARK   13  A    between atoms: C16_43  and  N8_44
REMARK   14  A    between atoms: C18_49  and  N9_50
REMARK   15  A    between atoms: C19_54  and  O5_55
ROOT
HETATM    1  C7  UNL     1      10.371  82.373  32.617  1.00  0.00     0.294 C
HETATM    2  O2  UNL     1      10.299  83.682  33.239  1.00  0.00    -0.327 OA
HETATM    3  C8  UNL     1      11.573  84.189  33.248  1.00  0.00     0.293 C
HETATM    4  C16 UNL     1      12.633  83.198  33.630  1.00  0.00     0.240 C
HETATM    5  C17 UNL     1      12.140  81.922  34.189  1.00  0.00     0.075 C
HETATM    6  C18 UNL     1      10.752  81.504  33.750  1.00  0.00     0.240 C
ENDROOT
BRANCH   1   7
HETATM    7  O1  UNL     1       9.103  82.076  32.126  1.00  0.00    -0.349 OA
BRANCH   7   8
HETATM    8  C6  UNL     1       8.198  83.119  32.284  1.00  0.00     0.176 C
HETATM    9  C5  UNL     1       7.661  83.741  31.072  1.00  0.00     0.132 C
HETATM   10  C4  UNL     1       6.360  83.042  30.697  1.00  0.00     0.060 C
HETATM   11  C3  UNL     1       5.340  83.552  31.724  1.00  0.00     0.218 C
HETATM   12  C2  UNL     1       5.831  83.296  33.127  1.00  0.00     0.246 C
HETATM   13  C19 UNL     1       7.109  82.538  33.187  1.00  0.00     0.181 C
BRANCH   9  14
HETATM   14  N3  UNL     1       8.475  83.813  29.911  1.00  0.00    -0.141 NA
BRANCH  14  15
HETATM   15  N4  UNL     1       9.697  84.433  30.138  1.00  0.00    -0.348 N
ATOM     16  H42 UNL     1       9.774  85.340  30.598  1.00  0.00     0.172 HD
ATOM     17  H41 UNL     1      10.491  83.891  29.799  1.00  0.00     0.172 HD
ENDBRANCH  14  15
ENDBRANCH   9  14
BRANCH  11  18
HETATM   18  N2  UNL     1       4.069  82.971  31.435  1.00  0.00    -0.073 N
ATOM     19  H23 UNL     1       3.321  83.643  31.606  1.00  0.00     0.274 HD
ATOM     20  H22 UNL     1       3.956  82.840  30.430  1.00  0.00     0.274 HD
ATOM     21  H21 UNL     1       3.885  82.099  31.931  1.00  0.00     0.274 HD
ENDBRANCH  11  18
BRANCH  12  22
HETATM   22  N1  UNL     1       5.856  84.517  33.913  1.00  0.00    -0.070 N
HETATM   23  C1  UNL     1       4.643  84.630  34.703  1.00  0.00     0.267 C
ATOM     24  H12 UNL     1       6.011  85.341  33.332  1.00  0.00     0.277 HD
ATOM     25  H11 UNL     1       6.694  84.581  34.491  1.00  0.00     0.277 HD
ENDBRANCH  12  22
BRANCH  13  26
HETATM   26  O5  UNL     1       7.601  82.608  34.489  1.00  0.00    -0.391 OA
ATOM     27  H5  UNL     1       8.419  83.092  34.474  1.00  0.00     0.210 HD
ENDBRANCH  13  26
ENDBRANCH   7   8
ENDBRANCH   1   7
BRANCH   6  28
HETATM   28  N9  UNL     1      10.635  80.096  33.581  1.00  0.00    -0.070 N
ATOM     29  H93 UNL     1      10.836  79.858  32.610  1.00  0.00     0.274 HD
ATOM     30  H92 UNL     1      11.411  79.637  34.058  1.00  0.00     0.274 HD
ATOM     31  H91 UNL     1       9.761  79.650  33.860  1.00  0.00     0.274 HD
ENDBRANCH   6  28
BRANCH   3  32
HETATM   32  O3  UNL     1      11.617  85.324  34.050  1.00  0.00    -0.349 OA
BRANCH  32  33
HETATM   33  C9  UNL     1      10.419  85.664  34.641  1.00  0.00     0.188 C
HETATM   34  C10 UNL     1      10.592  86.038  36.109  1.00  0.00     0.216 C
HETATM   35  C11 UNL     1      11.425  87.259  36.301  1.00  0.00     0.070 C
HETATM   36  C12 UNL     1      11.995  87.853  35.048  1.00  0.00     0.216 C
HETATM   37  C13 UNL     1      10.984  88.001  33.941  1.00  0.00     0.181 C
HETATM   38  C14 UNL     1       9.927  86.928  33.969  1.00  0.00     0.246 C
BRANCH  34  39
HETATM   39  N5  UNL     1       9.239  86.350  36.592  1.00  0.00    -0.072 N
ATOM     40  H53 UNL     1       9.193  86.533  37.595  1.00  0.00     0.274 HD
ATOM     41  H52 UNL     1       8.895  87.261  36.289  1.00  0.00     0.274 HD
ATOM     42  H51 UNL     1       8.657  85.569  36.289  1.00  0.00     0.274 HD
ENDBRANCH  34  39
BRANCH  36  43
HETATM   43  N6  UNL     1      12.452  89.206  35.390  1.00  0.00    -0.072 N
ATOM     44  H63 UNL     1      12.578  89.806  34.575  1.00  0.00     0.274 HD
ATOM     45  H62 UNL     1      11.736  89.767  35.853  1.00  0.00     0.274 HD
ATOM     46  H61 UNL     1      13.300  89.100  35.947  1.00  0.00     0.274 HD
ENDBRANCH  36  43
BRANCH  37  47
HETATM   47  O4  UNL     1      10.357  89.228  33.927  1.00  0.00    -0.391 OA
ATOM     48  H4  UNL     1       9.755  89.340  33.200  1.00  0.00     0.210 HD
ENDBRANCH  37  47
BRANCH  38  49
HETATM   49  N7  UNL     1       9.342  86.655  32.674  1.00  0.00    -0.070 N
HETATM   50  C15 UNL     1       7.970  87.066  32.709  1.00  0.00     0.267 C
ATOM     51  H72 UNL     1       9.862  87.084  31.909  1.00  0.00     0.277 HD
ATOM     52  H71 UNL     1       9.454  85.683  32.388  1.00  0.00     0.277 HD
ENDBRANCH  38  49
ENDBRANCH  32  33
ENDBRANCH   3  32
BRANCH   4  53
HETATM   53  N8  UNL     1      13.565  82.931  32.540  1.00  0.00    -0.070 N
ATOM     54  H83 UNL     1      13.382  82.023  32.112  1.00  0.00     0.274 HD
ATOM     55  H82 UNL     1      13.374  83.531  31.737  1.00  0.00     0.274 HD
ATOM     56  H81 UNL     1      14.539  83.010  32.832  1.00  0.00     0.274 HD
ENDBRANCH   4  53
TORSDOF 15
ENDMDL