MODEL 1
REMARK VINA RESULT: -7.220922459      0.000      0.000
REMARK  14 active torsions:
REMARK  status: ('A' for Active; 'I' for Inactive)
REMARK    1  A    between atoms: C3_4  and  C4_5
REMARK    2  A    between atoms: C4_5  and  N2_6
REMARK       I    between atoms: N2_6  and  C5_8
REMARK    3  A    between atoms: C5_8  and  C6_10
REMARK    4  A    between atoms: C6_10  and  C7_11
REMARK    5  A    between atoms: C7_11  and  N3_12
REMARK    6  A    between atoms: C8_17  and  N4_18
REMARK    7  A    between atoms: C9_19  and  N5_20
REMARK    8  A    between atoms: C10_26  and  N8_27
REMARK    9  A    between atoms: C11_32  and  N10_33
REMARK   10  A    between atoms: C13_39  and  N12_40
REMARK       I    between atoms: N12_40  and  C14_42
REMARK   11  A    between atoms: C14_42  and  C15_44
REMARK   12  A    between atoms: C15_44  and  N13_45
REMARK   13  A    between atoms: C15_44  and  C16_49
REMARK   14  A    between atoms: C16_49  and  O4_50
ROOT
HETATM    1  C1  UNL     1       7.267  86.235  35.157  1.00  0.00     0.221 C
HETATM    2  N1  UNL     1       8.075  86.540  34.384  1.00  0.00    -0.461 NA
HETATM    3  C2  UNL     1       9.035  86.929  33.464  1.00  0.00     0.218 C
HETATM    4  C3  UNL     1       9.881  88.061  34.062  1.00  0.00     0.179 C
HETATM    5  O2  UNL     1      10.652  87.430  34.997  1.00  0.00    -0.353 OA
HETATM    6  C8  UNL     1      10.882  86.119  34.620  1.00  0.00     0.291 C
HETATM    7  C13 UNL     1      10.094  85.848  33.388  1.00  0.00     0.173 C
ENDROOT
BRANCH   4   8
HETATM    8  C4  UNL     1       8.986  89.121  34.652  1.00  0.00     0.157 C
BRANCH   8   9
HETATM    9  N2  UNL     1       7.993  89.501  33.649  1.00  0.00    -0.358 N
HETATM   10  C5  UNL     1       7.502  90.831  33.556  1.00  0.00     0.219 C
HETATM   11  O1  UNL     1       7.941  91.693  34.363  1.00  0.00    -0.274 OA
ATOM     12  H2  UNL     1       7.644  88.795  33.000  1.00  0.00     0.162 HD
BRANCH  10  13
HETATM   13  C6  UNL     1       6.495  91.188  32.529  1.00  0.00     0.130 C
BRANCH  13  14
HETATM   14  C7  UNL     1       6.108  92.661  32.635  1.00  0.00     0.238 C
BRANCH  14  15
HETATM   15  N3  UNL     1       7.184  93.460  32.096  1.00  0.00    -0.079 N
ATOM     16  H33 UNL     1       7.347  94.311  32.635  1.00  0.00     0.274 HD
ATOM     17  H32 UNL     1       8.097  93.029  32.234  1.00  0.00     0.274 HD
ATOM     18  H31 UNL     1       6.986  93.652  31.115  1.00  0.00     0.274 HD
ENDBRANCH  14  15
ENDBRANCH  13  14
ENDBRANCH  10  13
ENDBRANCH   8   9
ENDBRANCH   4   8
BRANCH   7  19
HETATM   19  N12 UNL     1       9.416  84.572  33.368  1.00  0.00    -0.347 N
HETATM   20  C14 UNL     1       9.965  83.389  32.867  1.00  0.00     0.251 C
HETATM   21  O3  UNL     1      11.124  83.326  32.376  1.00  0.00    -0.271 OA
ATOM     22  H12 UNL     1       8.470  84.533  33.747  1.00  0.00     0.163 HD
BRANCH  20  23
HETATM   23  C15 UNL     1       9.172  82.137  32.901  1.00  0.00     0.297 C
BRANCH  23  24
HETATM   24  N13 UNL     1       9.987  80.953  32.935  1.00  0.00    -0.064 N
ATOM     25 3H13 UNL     1      10.813  81.062  32.346  1.00  0.00     0.275 HD
ATOM     26 2H13 UNL     1      10.442  80.851  33.842  1.00  0.00     0.275 HD
ATOM     27 1H13 UNL     1       9.474  80.107  32.689  1.00  0.00     0.275 HD
ENDBRANCH  23  24
BRANCH  23  28
HETATM   28  C16 UNL     1       8.207  82.065  31.723  1.00  0.00     0.206 C
BRANCH  28  29
HETATM   29  O4  UNL     1       8.512  83.040  30.793  1.00  0.00    -0.398 OA
ATOM     30  H4  UNL     1       7.808  83.675  30.738  1.00  0.00     0.209 HD
ENDBRANCH  28  29
ENDBRANCH  23  28
ENDBRANCH  20  23
ENDBRANCH   7  19
BRANCH   6  31
HETATM   31  N4  UNL     1      12.282  85.783  34.517  1.00  0.00     0.019 N
HETATM   32  C9  UNL     1      13.264  86.565  34.028  1.00  0.00     0.711 A
HETATM   33  N6  UNL     1      14.421  85.888  34.106  1.00  0.00    -0.095 N
HETATM   34  N7  UNL     1      14.193  84.684  34.638  1.00  0.00     0.106 N
ATOM     35  H6  UNL     1      15.331  86.239  33.807  1.00  0.00     0.207 HD
HETATM   36  C10 UNL     1      14.995  83.644  34.925  1.00  0.00     0.727 A
HETATM   37  C12 UNL     1      12.878  84.645  34.879  1.00  0.00     0.752 A
HETATM   38  N9  UNL     1      14.433  82.536  35.474  1.00  0.00    -0.020 N
HETATM   39  C11 UNL     1      13.114  82.448  35.737  1.00  0.00     0.705 A
ATOM     40  H9  UNL     1      15.032  81.741  35.697  1.00  0.00     0.203 HD
HETATM   41  N11 UNL     1      12.376  83.535  35.419  1.00  0.00    -0.019 N
ATOM     42  H11 UNL     1      11.373  83.504  35.605  1.00  0.00     0.203 HD
BRANCH  32  43
HETATM   43  N5  UNL     1      13.162  87.753  33.560  1.00  0.00    -0.233 N
ATOM     44  H52 UNL     1      12.385  88.381  33.768  1.00  0.00     0.174 HD
ATOM     45  H51 UNL     1      13.808  88.236  32.937  1.00  0.00     0.174 HD
ENDBRANCH  32  43
BRANCH  36  46
HETATM   46  N8  UNL     1      16.277  83.682  34.688  1.00  0.00    -0.232 N
ATOM     47  H82 UNL     1      16.644  83.366  33.791  1.00  0.00     0.174 HD
ATOM     48  H81 UNL     1      16.939  84.028  35.383  1.00  0.00     0.174 HD
ENDBRANCH  36  46
BRANCH  39  49
HETATM   49  N10 UNL     1      12.584  81.392  36.259  1.00  0.00    -0.234 N
ATOM     50 2H10 UNL     1      12.758  81.125  37.228  1.00  0.00     0.174 HD
ATOM     51 1H10 UNL     1      11.968  80.775  35.731  1.00  0.00     0.174 HD
ENDBRANCH  39  49
ENDBRANCH   6  31
TORSDOF 14
ENDMDL