MODEL 3
REMARK VINA RESULT: -6.786661999      2.848      8.079
REMARK  15 active torsions:
REMARK  status: ('A' for Active; 'I' for Inactive)
REMARK       I    between atoms: C1_4  and  N3_6
REMARK    1  A    between atoms: N3_6  and  C2_8
REMARK    2  A    between atoms: C3_9  and  N4_10
REMARK    3  A    between atoms: C5_16  and  O2_17
REMARK    4  A    between atoms: O2_17  and  C6_18
REMARK    5  A    between atoms: C7_19  and  N5_20
REMARK    6  A    between atoms: C9_25  and  N6_26
REMARK    7  A    between atoms: C10_30  and  O3_31
REMARK    8  A    between atoms: O3_31  and  C11_32
REMARK    9  A    between atoms: C12_33  and  N7_34
REMARK   10  A    between atoms: N8_40  and  C15_41
REMARK   11  A    between atoms: C15_41  and  C16_42
REMARK   12  A    between atoms: C16_42  and  C17_43
REMARK   13  A    between atoms: C17_43  and  N9_44
REMARK   14  A    between atoms: C18_48  and  O4_49
REMARK   15  A    between atoms: C19_51  and  N10_52
ROOT
HETATM    1  C6  UNL     1       8.495  82.877  33.300  1.00  0.00     0.186 C
HETATM    2  C7  UNL     1       8.494  84.367  33.482  1.00  0.00     0.217 C
HETATM    3  C8  UNL     1       8.009  85.138  32.312  1.00  0.00     0.071 C
HETATM    4  C9  UNL     1       8.172  84.264  31.082  1.00  0.00     0.217 C
HETATM    5  C10 UNL     1       7.113  83.180  31.206  1.00  0.00     0.186 C
HETATM    6  C18 UNL     1       7.452  82.351  32.384  1.00  0.00     0.180 C
ENDROOT
BRANCH   1   7
HETATM    7  O2  UNL     1       9.792  82.444  33.020  1.00  0.00    -0.349 OA
BRANCH   7   8
HETATM    8  C5  UNL     1      10.704  82.816  33.974  1.00  0.00     0.292 C
HETATM    9  O1  UNL     1      10.707  82.015  35.114  1.00  0.00    -0.357 OA
HETATM   10  C4  UNL     1      11.132  82.791  36.184  1.00  0.00     0.205 C
HETATM   11  C3  UNL     1      12.319  83.658  35.884  1.00  0.00     0.232 C
HETATM   12  C2  UNL     1      13.038  83.262  34.620  1.00  0.00     0.152 C
HETATM   13  C19 UNL     1      12.130  82.884  33.490  1.00  0.00     0.262 C
BRANCH  11  14
HETATM   14  N4  UNL     1      12.035  85.078  35.928  1.00  0.00    -0.071 N
ATOM     15  H43 UNL     1      12.838  85.605  36.272  1.00  0.00     0.274 HD
ATOM     16  H42 UNL     1      11.973  85.472  34.989  1.00  0.00     0.274 HD
ATOM     17  H41 UNL     1      11.197  85.285  36.471  1.00  0.00     0.274 HD
ENDBRANCH  11  14
BRANCH  12  18
HETATM   18  N3  UNL     1      13.919  84.355  34.244  1.00  0.00    -0.356 N
HETATM   19  C1  UNL     1      15.281  84.402  34.575  1.00  0.00     0.182 C
HETATM   20  N1  UNL     1      15.980  83.357  34.883  1.00  0.00    -0.374 N
HETATM   21  N2  UNL     1      15.951  85.656  34.578  1.00  0.00    -0.064 NA
ATOM     22  H12 UNL     1      16.971  83.391  35.123  1.00  0.00     0.158 HD
ATOM     23  H11 UNL     1      15.499  82.458  34.879  1.00  0.00     0.158 HD
ATOM     24  H3  UNL     1      13.524  85.130  33.710  1.00  0.00     0.162 HD
ENDBRANCH  12  18
BRANCH  13  25
HETATM   25  N10 UNL     1      12.603  81.665  32.901  1.00  0.00    -0.068 N
ATOM     26 3H10 UNL     1      13.411  81.813  32.297  1.00  0.00     0.275 HD
ATOM     27 2H10 UNL     1      13.045  81.050  33.583  1.00  0.00     0.275 HD
ATOM     28 1H10 UNL     1      11.831  81.212  32.412  1.00  0.00     0.275 HD
ENDBRANCH  13  25
ENDBRANCH   7   8
ENDBRANCH   1   7
BRANCH   2  29
HETATM   29  N5  UNL     1       7.685  84.765  34.644  1.00  0.00    -0.072 N
ATOM     30  H53 UNL     1       6.960  84.076  34.848  1.00  0.00     0.274 HD
ATOM     31  H52 UNL     1       8.216  84.694  35.512  1.00  0.00     0.274 HD
ATOM     32  H51 UNL     1       7.291  85.698  34.522  1.00  0.00     0.274 HD
ENDBRANCH   2  29
BRANCH   6  33
HETATM   33  O4  UNL     1       6.286  82.014  33.107  1.00  0.00    -0.390 OA
ATOM     34  H4  UNL     1       6.020  81.123  32.909  1.00  0.00     0.210 HD
ENDBRANCH   6  33
BRANCH   5  35
HETATM   35  O3  UNL     1       6.934  82.500  30.020  1.00  0.00    -0.345 OA
BRANCH  35  36
HETATM   36  C11 UNL     1       5.598  82.465  29.585  1.00  0.00     0.389 C
HETATM   37  C12 UNL     1       5.279  81.150  28.924  1.00  0.00     0.244 C
HETATM   38  C13 UNL     1       5.551  81.311  27.452  1.00  0.00     0.067 C
HETATM   39  C14 UNL     1       5.679  82.792  27.288  1.00  0.00     0.278 C
HETATM   40  N8  UNL     1       5.383  83.413  28.541  1.00  0.00     0.119 N
BRANCH  37  41
HETATM   41  N7  UNL     1       6.075  80.049  29.402  1.00  0.00    -0.071 N
ATOM     42  H73 UNL     1       7.010  80.080  28.998  1.00  0.00     0.274 HD
ATOM     43  H72 UNL     1       6.309  80.177  30.386  1.00  0.00     0.274 HD
ATOM     44  H71 UNL     1       5.649  79.135  29.250  1.00  0.00     0.274 HD
ENDBRANCH  37  41
BRANCH  40  45
HETATM   45  C15 UNL     1       4.189  84.166  28.568  1.00  0.00     0.277 C
BRANCH  45  46
HETATM   46  C16 UNL     1       3.403  84.248  27.308  1.00  0.00     0.057 C
BRANCH  46  47
HETATM   47  C17 UNL     1       1.907  84.293  27.656  1.00  0.00     0.231 C
BRANCH  47  48
HETATM   48  N9  UNL     1       1.213  85.078  26.656  1.00  0.00    -0.079 N
ATOM     49  H93 UNL     1       1.677  85.968  26.471  1.00  0.00     0.274 HD
ATOM     50  H92 UNL     1       1.295  84.677  25.722  1.00  0.00     0.274 HD
ATOM     51  H91 UNL     1       0.242  85.198  26.943  1.00  0.00     0.274 HD
ENDBRANCH  47  48
ENDBRANCH  46  47
ENDBRANCH  45  46
ENDBRANCH  40  45
ENDBRANCH  35  36
ENDBRANCH   5  35
BRANCH   4  52
HETATM   52  N6  UNL     1       7.941  85.104  29.931  1.00  0.00    -0.072 N
ATOM     53  H63 UNL     1       7.001  85.006  29.546  1.00  0.00     0.274 HD
ATOM     54  H62 UNL     1       7.884  86.095  30.165  1.00  0.00     0.274 HD
ATOM     55  H61 UNL     1       8.675  84.893  29.254  1.00  0.00     0.274 HD
ENDBRANCH   4  52
TORSDOF 15
ENDMDL