MODEL 1
REMARK VINA RESULT: -7.579991057      0.000      0.000
REMARK  12 active torsions:
REMARK  status: ('A' for Active; 'I' for Inactive)
REMARK    1  A    between atoms: O1_2  and  N1_3
REMARK       I    between atoms: C2_5  and  N3_7
REMARK    2  A    between atoms: N3_7  and  N4_9
REMARK    3  A    between atoms: C5_15  and  N6_16
REMARK    4  A    between atoms: N6_16  and  C6_18
REMARK    5  A    between atoms: C6_18  and  C7_19
REMARK    6  A    between atoms: C7_19  and  N7_20
REMARK       I    between atoms: N7_20  and  C8_22
REMARK    7  A    between atoms: C8_22  and  C9_24
REMARK    8  A    between atoms: C9_24  and  O4_25
REMARK    9  A    between atoms: C9_24  and  C10_27
REMARK   10  A    between atoms: C10_27  and  N8_28
REMARK   11  A    between atoms: N11_39  and  C13_40
REMARK   12  A    between atoms: C13_40  and  C14_41
ROOT
HETATM    1  N4  UNL     1       9.686  86.274  31.879  1.00  0.00    -0.163 N
HETATM    2  C3  UNL     1      10.813  85.595  32.184  1.00  0.00     0.300 A
HETATM    3  O2  UNL     1      11.109  84.482  31.696  1.00  0.00    -0.263 OA
HETATM    4  C4  UNL     1      11.672  86.174  33.085  1.00  0.00     0.150 A
HETATM    5  N5  UNL     1      12.810  85.545  33.427  1.00  0.00    -0.184 N
ATOM      6  H5  UNL     1      13.022  84.638  33.011  1.00  0.00     0.184 HD
HETATM    7  C5  UNL     1      13.681  86.085  34.308  1.00  0.00     0.680 A
HETATM    8  N9  UNL     1      13.405  87.279  34.859  1.00  0.00    -0.175 N
ATOM      9  H9  UNL     1      14.063  87.685  35.524  1.00  0.00     0.186 HD
HETATM   10  C11 UNL     1      12.263  87.964  34.549  1.00  0.00     0.144 A
HETATM   11  N10 UNL     1      12.057  89.090  35.100  1.00  0.00    -0.383 N
ATOM     12 1H10 UNL     1      11.206  89.601  34.869  1.00  0.00     0.157 HD
ATOM     13 2H10 UNL     1      12.718  89.492  35.764  1.00  0.00     0.157 HD
HETATM   14  C12 UNL     1      11.380  87.425  33.660  1.00  0.00     0.120 A
HETATM   15  N11 UNL     1      10.243  88.096  33.343  1.00  0.00    -0.261 N
HETATM   16  C15 UNL     1       9.447  87.441  32.436  1.00  0.00     0.356 A
HETATM   17  O7  UNL     1       8.359  88.027  32.100  1.00  0.00    -0.244 OA
ENDROOT
BRANCH   7  18
HETATM   18  N6  UNL     1      14.763  85.462  34.619  1.00  0.00    -0.224 N
ATOM     19  H6  UNL     1      15.552  85.996  34.987  1.00  0.00     0.177 HD
BRANCH  18  20
HETATM   20  C6  UNL     1      14.901  84.026  34.463  1.00  0.00     0.157 C
BRANCH  20  21
HETATM   21  C7  UNL     1      14.284  83.291  35.638  1.00  0.00     0.143 C
BRANCH  21  22
HETATM   22  N7  UNL     1      13.525  82.144  35.261  1.00  0.00    -0.357 N
HETATM   23  C8  UNL     1      12.151  82.148  34.931  1.00  0.00     0.248 C
HETATM   24  O3  UNL     1      11.467  83.221  34.950  1.00  0.00    -0.271 OA
ATOM     25  H7  UNL     1      14.013  81.250  35.227  1.00  0.00     0.162 HD
BRANCH  23  26
HETATM   26  C9  UNL     1      11.442  80.907  34.550  1.00  0.00     0.235 C
BRANCH  26  27
HETATM   27  O4  UNL     1      12.300  79.995  33.961  1.00  0.00    -0.384 OA
ATOM     28  H4  UNL     1      12.633  79.372  34.595  1.00  0.00     0.210 HD
ENDBRANCH  26  27
BRANCH  26  29
HETATM   29  C10 UNL     1      10.275  81.184  33.627  1.00  0.00     0.271 C
BRANCH  29  30
HETATM   30  N8  UNL     1      10.769  81.792  32.417  1.00  0.00    -0.076 N
ATOM     31  H83 UNL     1      11.781  81.922  32.432  1.00  0.00     0.274 HD
ATOM     32  H82 UNL     1      10.718  81.161  31.617  1.00  0.00     0.274 HD
ATOM     33  H81 UNL     1      10.267  82.665  32.255  1.00  0.00     0.274 HD
ENDBRANCH  29  30
ENDBRANCH  26  29
ENDBRANCH  23  26
ENDBRANCH  21  22
ENDBRANCH  20  21
ENDBRANCH  18  20
ENDBRANCH   7  18
BRANCH   1  34
HETATM   34  N3  UNL     1       8.815  85.696  30.972  1.00  0.00    -0.258 N
HETATM   35  C2  UNL     1       9.009  84.519  30.230  1.00  0.00     0.228 C
HETATM   36  N1  UNL     1       8.593  83.402  30.695  1.00  0.00    -0.238 N
HETATM   37  N2  UNL     1       9.649  84.549  28.972  1.00  0.00    -0.060 NA
ATOM     38  H1  UNL     1       8.735  82.556  30.143  1.00  0.00     0.197 HD
ATOM     39  H3  UNL     1       7.930  86.182  30.825  1.00  0.00     0.190 HD
BRANCH  36  40
HETATM   40  O1  UNL     1       7.959  83.298  31.917  1.00  0.00    -0.283 OA
HETATM   41  C1  UNL     1       6.997  82.294  32.186  1.00  0.00     0.237 C
ENDBRANCH  36  40
ENDBRANCH   1  34
BRANCH  15  42
HETATM   42  C13 UNL     1       9.854  89.341  33.874  1.00  0.00     0.186 C
BRANCH  42  43
HETATM   43  C14 UNL     1       8.766  89.302  34.910  1.00  0.00     0.215 C
HETATM   44  O5  UNL     1       9.015  88.661  35.948  1.00  0.00    -0.643 OA
HETATM   45  O6  UNL     1       7.563  89.920  34.756  1.00  0.00    -0.643 OA
ENDBRANCH  42  43
ENDBRANCH  15  42
TORSDOF 12
ENDMDL