MODEL 4
REMARK VINA RESULT: -7.048108034      1.966      6.743
REMARK  16 active torsions:
REMARK  status: ('A' for Active; 'I' for Inactive)
REMARK    1  A    between atoms: N1_1  and  N2_4
REMARK    2  A    between atoms: N2_4  and  C1_5
REMARK    3  A    between atoms: C1_5  and  C2_6
REMARK    4  A    between atoms: C4_8  and  N3_9
REMARK    5  A    between atoms: N3_9  and  C5_11
REMARK    6  A    between atoms: C6_13  and  O2_14
REMARK    7  A    between atoms: O2_14  and  C7_15
REMARK    8  A    between atoms: C8_16  and  N4_17
REMARK    9  A    between atoms: C10_22  and  N5_23
REMARK   10  A    between atoms: C11_27  and  O3_28
REMARK   11  A    between atoms: O3_28  and  C12_29
REMARK   12  A    between atoms: C13_30  and  N6_31
REMARK   13  A    between atoms: C15_36  and  N7_37
REMARK   14  A    between atoms: C16_41  and  O4_42
REMARK   15  A    between atoms: C18_45  and  N8_46
REMARK   16  A    between atoms: C19_50  and  O5_51
ROOT
HETATM    1  C7  UNL     1      11.966  82.372  34.221  1.00  0.00     0.186 C
HETATM    2  C8  UNL     1      11.573  81.629  35.437  1.00  0.00     0.217 C
HETATM    3  C9  UNL     1      12.721  81.653  36.427  1.00  0.00     0.071 C
HETATM    4  C10 UNL     1      12.819  83.100  36.870  1.00  0.00     0.217 C
HETATM    5  C11 UNL     1      13.103  84.033  35.752  1.00  0.00     0.183 C
HETATM    6  C19 UNL     1      12.941  83.473  34.381  1.00  0.00     0.180 C
ENDROOT
BRANCH   5   7
HETATM    7  O3  UNL     1      12.306  85.165  35.917  1.00  0.00    -0.372 OA
BRANCH   7   8
HETATM    8  C12 UNL     1      11.745  85.626  34.749  1.00  0.00     0.182 C
HETATM    9  C13 UNL     1      12.779  86.249  33.847  1.00  0.00     0.216 C
HETATM   10  C14 UNL     1      13.074  87.644  34.258  1.00  0.00     0.070 C
HETATM   11  C15 UNL     1      12.177  88.690  33.742  1.00  0.00     0.214 C
HETATM   12  C16 UNL     1      10.854  88.314  33.232  1.00  0.00     0.150 C
HETATM   13  C17 UNL     1      10.103  87.204  33.780  1.00  0.00     0.069 C
HETATM   14  C18 UNL     1      10.564  86.511  35.021  1.00  0.00     0.216 C
BRANCH   9  15
HETATM   15  N6  UNL     1      12.469  86.116  32.445  1.00  0.00    -0.072 N
ATOM     16  H63 UNL     1      12.256  85.146  32.212  1.00  0.00     0.274 HD
ATOM     17  H62 UNL     1      11.567  86.542  32.231  1.00  0.00     0.274 HD
ATOM     18  H61 UNL     1      13.198  86.483  31.834  1.00  0.00     0.274 HD
ENDBRANCH   9  15
BRANCH  11  19
HETATM   19  N7  UNL     1      12.099  89.756  34.762  1.00  0.00    -0.072 N
ATOM     20  H73 UNL     1      12.876  89.732  35.421  1.00  0.00     0.274 HD
ATOM     21  H72 UNL     1      12.275  90.685  34.379  1.00  0.00     0.274 HD
ATOM     22  H71 UNL     1      11.190  89.681  35.218  1.00  0.00     0.274 HD
ENDBRANCH  11  19
BRANCH  12  23
HETATM   23  O4  UNL     1      10.059  89.495  33.307  1.00  0.00    -0.393 OA
ATOM     24  H4  UNL     1       9.847  89.722  32.409  1.00  0.00     0.210 HD
ENDBRANCH  12  23
BRANCH  14  25
HETATM   25  N8  UNL     1      10.688  87.342  36.178  1.00  0.00    -0.072 N
ATOM     26  H83 UNL     1      11.538  87.904  36.120  1.00  0.00     0.274 HD
ATOM     27  H82 UNL     1       9.986  88.081  36.158  1.00  0.00     0.274 HD
ATOM     28  H81 UNL     1      10.654  86.845  37.068  1.00  0.00     0.274 HD
ENDBRANCH  14  25
ENDBRANCH   7   8
ENDBRANCH   5   7
BRANCH   4  29
HETATM   29  N5  UNL     1      13.848  83.173  37.890  1.00  0.00    -0.072 N
ATOM     30  H53 UNL     1      13.469  83.195  38.836  1.00  0.00     0.274 HD
ATOM     31  H52 UNL     1      14.381  82.307  37.981  1.00  0.00     0.274 HD
ATOM     32  H51 UNL     1      14.433  83.980  37.676  1.00  0.00     0.274 HD
ENDBRANCH   4  29
BRANCH   6  33
HETATM   33  O5  UNL     1      14.196  82.988  33.941  1.00  0.00    -0.390 OA
ATOM     34  H5  UNL     1      14.644  82.635  34.700  1.00  0.00     0.210 HD
ENDBRANCH   6  33
BRANCH   1  35
HETATM   35  O2  UNL     1      10.785  82.933  33.680  1.00  0.00    -0.349 OA
BRANCH  35  36
HETATM   36  C6  UNL     1      10.518  82.497  32.408  1.00  0.00     0.283 C
HETATM   37  C4  UNL     1       9.024  82.276  32.289  1.00  0.00     0.141 C
HETATM   38  C3  UNL     1       8.548  83.580  31.683  1.00  0.00     0.063 C
HETATM   39  C2  UNL     1       9.794  84.301  31.310  1.00  0.00     0.143 C
HETATM   40  O6  UNL     1      10.873  83.427  31.432  1.00  0.00    -0.353 OA
BRANCH  37  41
HETATM   41  N3  UNL     1       8.753  81.138  31.457  1.00  0.00    -0.359 N
ATOM     42  H3  UNL     1       9.524  80.650  31.002  1.00  0.00     0.162 HD
BRANCH  41  43
HETATM   43  C5  UNL     1       7.432  80.689  31.266  1.00  0.00     0.349 C
HETATM   44  O1  UNL     1       7.003  80.305  30.148  1.00  0.00    -0.284 OA
ENDBRANCH  41  43
ENDBRANCH  37  41
BRANCH  39  45
HETATM   45  C1  UNL     1       9.705  84.806  29.901  1.00  0.00     0.166 C
BRANCH  45  46
HETATM   46  N2  UNL     1      10.212  86.148  29.816  1.00  0.00    -0.146 NA
BRANCH  46  47
HETATM   47  N1  UNL     1       9.244  87.090  30.241  1.00  0.00    -0.348 N
ATOM     48  H12 UNL     1       9.372  87.707  31.043  1.00  0.00     0.172 HD
ATOM     49  H11 UNL     1       8.417  87.065  29.644  1.00  0.00     0.172 HD
ENDBRANCH  46  47
ENDBRANCH  45  46
ENDBRANCH  39  45
ENDBRANCH  35  36
ENDBRANCH   1  35
BRANCH   2  50
HETATM   50  N4  UNL     1      11.340  80.240  35.106  1.00  0.00    -0.072 N
ATOM     51  H43 UNL     1      10.479  79.886  35.521  1.00  0.00     0.274 HD
ATOM     52  H42 UNL     1      11.093  80.115  34.124  1.00  0.00     0.274 HD
ATOM     53  H41 UNL     1      12.152  79.683  35.372  1.00  0.00     0.274 HD
ENDBRANCH   2  50
TORSDOF 16
ENDMDL