MODEL 1
REMARK VINA RESULT: -6.691594661      0.000      0.000
REMARK  15 active torsions:
REMARK  status: ('A' for Active; 'I' for Inactive)
REMARK    1  A    between atoms: N2_3  and  C2_5
REMARK    2  A    between atoms: C4_7  and  N3_8
REMARK    3  A    between atoms: C5_12  and  O1_13
REMARK    4  A    between atoms: C6_15  and  N4_16
REMARK    5  A    between atoms: C7_20  and  O2_21
REMARK    6  A    between atoms: O2_21  and  C8_22
REMARK    7  A    between atoms: C9_24  and  O4_25
REMARK    8  A    between atoms: O4_25  and  C10_26
REMARK    9  A    between atoms: C11_27  and  N5_28
REMARK   10  A    between atoms: C12_32  and  O5_33
REMARK   11  A    between atoms: C13_35  and  N6_36
REMARK   12  A    between atoms: N6_36  and  C14_38
REMARK   13  A    between atoms: C15_40  and  N7_41
REMARK   14  A    between atoms: C16_45  and  N8_46
REMARK   15  A    between atoms: C18_51  and  N9_52
ROOT
HETATM    1  C8  UNL     1       9.834  86.220  33.378  1.00  0.00     0.293 C
HETATM    2  O3  UNL     1      11.066  85.896  33.902  1.00  0.00    -0.327 OA
HETATM    3  C9  UNL     1      10.817  85.652  35.480  1.00  0.00     0.293 C
HETATM    4  C16 UNL     1      10.706  87.327  35.870  1.00  0.00     0.240 C
HETATM    5  C17 UNL     1       9.451  87.804  35.238  1.00  0.00     0.075 C
HETATM    6  C18 UNL     1       9.622  87.661  33.748  1.00  0.00     0.240 C
ENDROOT
BRANCH   1   7
HETATM    7  O2  UNL     1       8.918  85.310  33.732  1.00  0.00    -0.350 OA
BRANCH   7   8
HETATM    8  C7  UNL     1       8.263  84.546  32.840  1.00  0.00     0.180 C
HETATM    9  C2  UNL     1       6.850  84.227  33.272  1.00  0.00     0.115 C
HETATM   10  C3  UNL     1       6.096  83.720  32.043  1.00  0.00     0.063 C
HETATM   11  C4  UNL     1       6.689  82.347  31.754  1.00  0.00     0.216 C
HETATM   12  C5  UNL     1       8.171  82.511  31.509  1.00  0.00     0.181 C
HETATM   13  C6  UNL     1       8.878  83.138  32.693  1.00  0.00     0.244 C
BRANCH   9  14
HETATM   14  N2  UNL     1       6.136  85.257  33.911  1.00  0.00    -0.381 N
HETATM   15  C1  UNL     1       5.595  85.089  35.059  1.00  0.00     0.185 C
HETATM   16  N1  UNL     1       5.728  83.807  35.706  1.00  0.00    -0.097 NA
ATOM     17  H2  UNL     1       6.047  86.162  33.448  1.00  0.00     0.160 HD
ENDBRANCH   9  14
BRANCH  11  18
HETATM   18  N3  UNL     1       6.100  81.883  30.517  1.00  0.00    -0.072 N
ATOM     19  H33 UNL     1       5.139  81.560  30.627  1.00  0.00     0.274 HD
ATOM     20  H32 UNL     1       5.909  82.637  29.857  1.00  0.00     0.274 HD
ATOM     21  H31 UNL     1       6.723  81.169  30.139  1.00  0.00     0.274 HD
ENDBRANCH  11  18
BRANCH  12  22
HETATM   22  O1  UNL     1       8.719  81.283  31.172  1.00  0.00    -0.391 OA
ATOM     23  H1  UNL     1       9.537  81.164  31.639  1.00  0.00     0.210 HD
ENDBRANCH  12  22
BRANCH  13  24
HETATM   24  N4  UNL     1      10.276  83.216  32.353  1.00  0.00    -0.070 N
ATOM     25  H43 UNL     1      10.491  83.973  31.705  1.00  0.00     0.274 HD
ATOM     26  H42 UNL     1      10.860  83.537  33.126  1.00  0.00     0.274 HD
ATOM     27  H41 UNL     1      10.547  82.298  32.001  1.00  0.00     0.274 HD
ENDBRANCH  13  24
ENDBRANCH   7   8
ENDBRANCH   1   7
BRANCH   6  28
HETATM   28  N9  UNL     1       8.719  88.402  32.948  1.00  0.00    -0.070 N
ATOM     29  H93 UNL     1       7.777  88.319  33.330  1.00  0.00     0.274 HD
ATOM     30  H92 UNL     1       8.888  89.399  33.078  1.00  0.00     0.274 HD
ATOM     31  H91 UNL     1       8.703  88.187  31.951  1.00  0.00     0.274 HD
ENDBRANCH   6  28
BRANCH   3  32
HETATM   32  O4  UNL     1      12.076  85.625  35.684  1.00  0.00    -0.349 OA
BRANCH  32  33
HETATM   33  C10 UNL     1      12.849  84.607  36.114  1.00  0.00     0.190 C
HETATM   34  C11 UNL     1      13.978  84.269  35.148  1.00  0.00     0.245 C
HETATM   35  C12 UNL     1      13.650  82.999  34.445  1.00  0.00     0.176 C
HETATM   36  C13 UNL     1      12.223  82.662  34.828  1.00  0.00     0.147 C
HETATM   37  C15 UNL     1      12.128  83.271  36.218  1.00  0.00     0.239 C
BRANCH  34  38
HETATM   38  N5  UNL     1      14.221  85.378  34.243  1.00  0.00    -0.070 N
ATOM     39  H53 UNL     1      14.255  86.270  34.736  1.00  0.00     0.274 HD
ATOM     40  H52 UNL     1      15.174  85.369  33.879  1.00  0.00     0.274 HD
ATOM     41  H51 UNL     1      13.529  85.385  33.494  1.00  0.00     0.274 HD
ENDBRANCH  34  38
BRANCH  35  42
HETATM   42  O5  UNL     1      13.795  83.013  33.080  1.00  0.00    -0.391 OA
ATOM     43  H5  UNL     1      13.255  82.398  32.599  1.00  0.00     0.210 HD
ENDBRANCH  35  42
BRANCH  36  44
HETATM   44  N6  UNL     1      11.988  81.251  34.948  1.00  0.00    -0.359 N
ATOM     45  H6  UNL     1      12.013  80.844  35.883  1.00  0.00     0.162 HD
BRANCH  44  46
HETATM   46  C14 UNL     1      11.729  80.396  33.874  1.00  0.00     0.348 C
HETATM   47  O6  UNL     1      10.549  80.220  33.490  1.00  0.00    -0.284 OA
ENDBRANCH  44  46
ENDBRANCH  36  44
BRANCH  37  48
HETATM   48  N7  UNL     1      12.833  82.428  37.173  1.00  0.00    -0.070 N
ATOM     49  H73 UNL     1      13.588  81.897  36.740  1.00  0.00     0.274 HD
ATOM     50  H72 UNL     1      13.399  82.970  37.827  1.00  0.00     0.274 HD
ATOM     51  H71 UNL     1      12.158  81.829  37.648  1.00  0.00     0.274 HD
ENDBRANCH  37  48
ENDBRANCH  32  33
ENDBRANCH   3  32
BRANCH   4  52
HETATM   52  N8  UNL     1      10.627  87.222  37.286  1.00  0.00    -0.070 N
ATOM     53  H83 UNL     1       9.887  86.625  37.653  1.00  0.00     0.274 HD
ATOM     54  H82 UNL     1      11.376  86.700  37.741  1.00  0.00     0.274 HD
ATOM     55  H81 UNL     1      10.564  88.214  37.517  1.00  0.00     0.274 HD
ENDBRANCH   4  52
TORSDOF 15
ENDMDL