MODEL 3
REMARK VINA RESULT: -7.412643315      3.441      7.043
REMARK  8 active torsions:
REMARK  status: ('A' for Active; 'I' for Inactive)
REMARK    1  A    between atoms: O1_2  and  C2_3
REMARK    2  A    between atoms: C2_3  and  C3_5
REMARK    3  A    between atoms: C5_7  and  O3_8
REMARK    4  A    between atoms: O3_8  and  C6_9
REMARK    5  A    between atoms: C14_18  and  O5_19
REMARK    6  A    between atoms: C18_24  and  O6_25
REMARK    7  A    between atoms: C20_28  and  O8_29
REMARK    8  A    between atoms: C20_28  and  C21_31
ROOT
HETATM    1  C3  UNL     1      18.922  13.927  27.089  1.00  0.00     0.075 C
HETATM    2  C4  UNL     1      18.210  12.826  27.920  1.00  0.00     0.029 C
HETATM    3  C5  UNL     1      18.104  14.089  25.860  1.00  0.00     0.151 C
HETATM    4  C8  UNL     1      18.550  13.369  24.633  1.00  0.00     0.046 C
HETATM    5  C9  UNL     1      20.023  13.000  24.624  1.00  0.00    -0.002 C
HETATM    6  C10 UNL     1      20.350  12.019  23.638  1.00  0.00     0.005 C
HETATM    7  C11 UNL     1      21.845  11.825  23.640  1.00  0.00     0.038 C
HETATM    8  C12 UNL     1      21.897  10.310  23.728  1.00  0.00     0.128 C
HETATM    9  C13 UNL     1      21.326  10.105  25.139  1.00  0.00     0.064 C
HETATM   10  C14 UNL     1      21.313  11.274  26.048  1.00  0.00     0.126 C
HETATM   11  C15 UNL     1      20.240  12.260  25.961  1.00  0.00     0.031 C
HETATM   12  C16 UNL     1      20.323  13.419  26.878  1.00  0.00     0.016 C
HETATM   13  C17 UNL     1      21.229  14.356  26.128  1.00  0.00     0.039 C
HETATM   14  C18 UNL     1      20.765  14.279  24.693  1.00  0.00     0.130 C
HETATM   15  O7  UNL     1      21.166   9.853  22.715  1.00  0.00    -0.349 OA
HETATM   16  C20 UNL     1      20.418  10.519  21.842  1.00  0.00     0.165 C
HETATM   17  C24 UNL     1      20.032  11.976  22.206  1.00  0.00     0.074 C
ENDROOT
BRANCH   1  18
HETATM   18  C2  UNL     1      18.896  15.100  27.996  1.00  0.00     0.269 C
HETATM   19  O2  UNL     1      17.837  15.366  28.600  1.00  0.00    -0.264 OA
BRANCH  18  20
HETATM   20  O1  UNL     1      19.970  15.933  28.220  1.00  0.00    -0.326 OA
HETATM   21  C1  UNL     1      19.951  17.323  27.961  1.00  0.00     0.213 C
ENDBRANCH  18  20
ENDBRANCH   1  18
BRANCH   3  22
HETATM   22  O3  UNL     1      17.912  15.452  25.538  1.00  0.00    -0.315 OA
BRANCH  22  23
HETATM   23  C6  UNL     1      16.698  16.040  25.263  1.00  0.00     0.255 C
HETATM   24  C7  UNL     1      15.429  15.320  25.573  1.00  0.00     0.126 C
HETATM   25  O4  UNL     1      16.693  17.189  24.748  1.00  0.00    -0.266 OA
ENDBRANCH  22  23
ENDBRANCH   3  22
BRANCH  10  26
HETATM   26  O5  UNL     1      21.042  10.629  27.316  1.00  0.00    -0.395 OA
ATOM     27  H5  UNL     1      21.311   9.739  27.123  1.00  0.00     0.210 HD
ENDBRANCH  10  26
BRANCH  14  28
HETATM   28  O6  UNL     1      21.753  14.488  23.768  1.00  0.00    -0.390 OA
HETATM   29  C19 UNL     1      22.735  15.370  24.192  1.00  0.00     0.202 C
ENDBRANCH  14  28
BRANCH  16  30
HETATM   30  O8  UNL     1      19.134   9.882  21.961  1.00  0.00    -0.365 OA
ATOM     31  H8  UNL     1      18.994   9.515  21.095  1.00  0.00     0.213 HD
ENDBRANCH  16  30
BRANCH  16  32
HETATM   32  C21 UNL     1      20.729  10.364  20.388  1.00  0.00     0.040 C
HETATM   33  C22 UNL     1      21.822  11.196  19.839  1.00  0.00     0.015 C
HETATM   34  C23 UNL     1      19.477  10.635  19.543  1.00  0.00     0.015 C
ENDBRANCH  16  32
TORSDOF 8
ENDMDL