MODEL 5
REMARK VINA RESULT: -8.041922099      2.260      6.437
REMARK  8 active torsions:
REMARK  status: ('A' for Active; 'I' for Inactive)
REMARK    1  A    between atoms: C2_2  and  C4_4
REMARK    2  A    between atoms: C6_6  and  C7_7
REMARK    3  A    between atoms: C6_6  and  C9_11
REMARK    4  A    between atoms: C7_7  and  O2_9
REMARK    5  A    between atoms: C11_14  and  C12_15
REMARK    6  A    between atoms: C11_14  and  C19_24
REMARK    7  A    between atoms: C20_25  and  O6_26
REMARK    8  A    between atoms: C25_33  and  O8_34
ROOT
HETATM    1  C4  UNL     1      23.470  13.871  22.889  1.00  0.00    -0.058 C
HETATM    2  C5  UNL     1      24.292  14.056  21.621  1.00  0.00     0.063 C
HETATM    3  C6  UNL     1      24.689  12.760  20.964  1.00  0.00     0.127 C
HETATM    4  C19 UNL     1      23.798  12.614  23.577  1.00  0.00     0.058 C
HETATM    5  C20 UNL     1      22.822  12.262  24.689  1.00  0.00     0.166 C
HETATM    6  C21 UNL     1      21.520  11.843  24.029  1.00  0.00     0.187 A
HETATM    7  O7  UNL     1      21.297  10.517  23.787  1.00  0.00    -0.366 OA
HETATM    8  C22 UNL     1      21.785  11.509  22.756  1.00  0.00     0.094 A
HETATM    9  C23 UNL     1      20.945  11.320  21.544  1.00  0.00     0.049 C
HETATM   10  C24 UNL     1      23.325  11.492  22.630  1.00  0.00     0.071 C
HETATM   11  C25 UNL     1      23.597  11.770  21.194  1.00  0.00     0.150 C
ENDROOT
BRANCH   3  12
HETATM   12  C7  UNL     1      24.782  12.982  19.492  1.00  0.00     0.275 C
HETATM   13  O1  UNL     1      24.583  14.123  18.996  1.00  0.00    -0.264 OA
BRANCH  12  14
HETATM   14  O2  UNL     1      25.089  11.921  18.690  1.00  0.00    -0.326 OA
HETATM   15  C8  UNL     1      24.364  11.727  17.471  1.00  0.00     0.213 C
ENDBRANCH  12  14
ENDBRANCH   3  12
BRANCH   3  16
HETATM   16  C9  UNL     1      26.018  12.232  21.525  1.00  0.00     0.284 C
HETATM   17  O3  UNL     1      26.874  12.175  20.506  1.00  0.00    -0.356 OA
HETATM   18  C10 UNL     1      27.677  13.184  20.179  1.00  0.00     0.214 C
HETATM   19  C11 UNL     1      27.405  14.528  20.826  1.00  0.00     0.118 C
HETATM   20  O4  UNL     1      27.841  14.408  22.106  1.00  0.00    -0.337 OA
HETATM   21  C16 UNL     1      27.580  13.329  22.863  1.00  0.00     0.161 C
HETATM   22  C17 UNL     1      27.659  13.802  24.342  1.00  0.00     0.078 C
HETATM   23  C18 UNL     1      28.560  12.190  22.921  1.00  0.00     0.078 C
HETATM   24  O5  UNL     1      26.288  12.931  22.656  1.00  0.00    -0.325 OA
BRANCH  19  25
HETATM   25  C12 UNL     1      28.369  15.357  20.075  1.00  0.00     0.016 C
HETATM   26  C13 UNL     1      28.167  16.262  19.169  1.00  0.00    -0.088 C
HETATM   27  C14 UNL     1      29.351  16.994  18.527  1.00  0.00     0.042 C
HETATM   28  C15 UNL     1      26.856  16.720  18.643  1.00  0.00     0.042 C
ENDBRANCH  19  25
ENDBRANCH   3  16
BRANCH  11  29
HETATM   29  O8  UNL     1      23.924  10.535  20.586  1.00  0.00    -0.394 OA
ATOM     30  H8  UNL     1      23.979  10.641  19.644  1.00  0.00     0.210 HD
ENDBRANCH  11  29
BRANCH   1  31
HETATM   31  C2  UNL     1      23.144  15.107  23.571  1.00  0.00    -0.068 C
HETATM   32  C1  UNL     1      24.022  16.080  23.748  1.00  0.00     0.018 C
HETATM   33  C3  UNL     1      21.841  15.535  24.147  1.00  0.00     0.047 C
ENDBRANCH   1  31
BRANCH   5  34
HETATM   34  O6  UNL     1      23.261  11.077  25.342  1.00  0.00    -0.392 OA
ATOM     35  H6  UNL     1      23.262  10.358  24.722  1.00  0.00     0.210 HD
ENDBRANCH   5  34
TORSDOF 8
ENDMDL