MODEL 4
REMARK VINA RESULT: -8.027620299      2.444      7.092
REMARK  7 active torsions:
REMARK  status: ('A' for Active; 'I' for Inactive)
REMARK    1  A    between atoms: C2_2  and  C3_3
REMARK    2  A    between atoms: C8_10  and  O3_11
REMARK    3  A    between atoms: C9_13  and  O4_14
REMARK    4  A    between atoms: O4_14  and  C10_15
REMARK    5  A    between atoms: C21_27  and  O6_28
REMARK    6  A    between atoms: C22_30  and  O7_32
REMARK    7  A    between atoms: O7_32  and  C24_33
ROOT
HETATM    1  C3  UNL     1      21.054  10.990  23.005  1.00  0.00     0.089 C
HETATM    2  O1  UNL     1      21.263  10.863  21.732  1.00  0.00    -0.362 OA
HETATM    3  C4  UNL     1      22.280  10.928  20.875  1.00  0.00     0.084 C
HETATM    4  C5  UNL     1      21.618  11.176  19.500  1.00  0.00     0.048 C
HETATM    5  C6  UNL     1      23.004   9.587  20.672  1.00  0.00     0.048 C
HETATM    6  C7  UNL     1      23.115  12.022  21.224  1.00  0.00     0.196 C
HETATM    7  O2  UNL     1      23.545  11.601  22.538  1.00  0.00    -0.339 OA
HETATM    8  C8  UNL     1      23.643  12.776  23.160  1.00  0.00     0.219 C
HETATM    9  C9  UNL     1      22.290  13.192  23.589  1.00  0.00     0.204 C
HETATM   10  C12 UNL     1      21.213  12.235  23.773  1.00  0.00     0.060 C
HETATM   11  C13 UNL     1      19.963  13.097  23.918  1.00  0.00     0.015 C
HETATM   12  C14 UNL     1      18.833  12.383  24.598  1.00  0.00    -0.013 C
HETATM   13  C15 UNL     1      17.643  13.283  24.617  1.00  0.00     0.010 C
HETATM   14  C16 UNL     1      18.667  11.068  24.001  1.00  0.00     0.000 C
HETATM   15  C17 UNL     1      17.562  11.133  22.926  1.00  0.00    -0.013 C
HETATM   16  C18 UNL     1      16.778   9.841  22.822  1.00  0.00     0.010 C
HETATM   17  C19 UNL     1      18.713  11.154  21.912  1.00  0.00     0.013 C
HETATM   18  C20 UNL     1      19.550  10.571  22.999  1.00  0.00     0.030 C
HETATM   19  C21 UNL     1      24.354  13.605  22.114  1.00  0.00     0.220 C
HETATM   20  C22 UNL     1      24.372  12.605  20.896  1.00  0.00     0.127 C
HETATM   21  C23 UNL     1      25.585  11.710  21.264  1.00  0.00     0.052 C
ENDROOT
BRANCH  20  22
HETATM   22  O7  UNL     1      24.662  13.380  19.827  1.00  0.00    -0.305 OA
BRANCH  22  23
HETATM   23  C24 UNL     1      25.083  13.211  18.577  1.00  0.00     0.255 C
HETATM   24  C25 UNL     1      26.435  13.600  18.059  1.00  0.00     0.126 C
HETATM   25  O8  UNL     1      24.323  12.693  17.744  1.00  0.00    -0.266 OA
ENDBRANCH  22  23
ENDBRANCH  20  22
BRANCH  19  26
HETATM   26  O6  UNL     1      25.630  13.956  22.440  1.00  0.00    -0.387 OA
ATOM     27  H6  UNL     1      26.179  14.185  21.699  1.00  0.00     0.210 HD
ENDBRANCH  19  26
BRANCH   8  28
HETATM   28  O3  UNL     1      24.562  12.656  24.208  1.00  0.00    -0.361 OA
ATOM     29  H3  UNL     1      25.441  12.693  23.850  1.00  0.00     0.213 HD
ENDBRANCH   8  28
BRANCH   9  30
HETATM   30  O4  UNL     1      22.439  13.988  24.769  1.00  0.00    -0.310 OA
BRANCH  30  31
HETATM   31  C10 UNL     1      22.589  15.320  24.871  1.00  0.00     0.255 C
HETATM   32  C11 UNL     1      21.471  16.237  25.161  1.00  0.00     0.126 C
HETATM   33  O5  UNL     1      23.727  15.753  24.708  1.00  0.00    -0.266 OA
ENDBRANCH  30  31
ENDBRANCH   9  30
BRANCH   1  34
HETATM   34  C2  UNL     1      21.591   9.808  23.776  1.00  0.00     0.001 C
HETATM   35  C1  UNL     1      21.861   9.808  25.056  1.00  0.00     0.010 C
ENDBRANCH   1  34
TORSDOF 7
ENDMDL