MODEL 1
REMARK VINA RESULT: -8.690126163      0.000      0.000
REMARK  6 active torsions:
REMARK  status: ('A' for Active; 'I' for Inactive)
REMARK    1  A    between atoms: C3_3  and  C4_4
REMARK    2  A    between atoms: C6_7  and  C7_8
REMARK    3  A    between atoms: C11_14  and  C12_15
REMARK    4  A    between atoms: C12_15  and  C13_16
REMARK    5  A    between atoms: C18_23  and  O6_24
REMARK    6  A    between atoms: C19_26  and  O7_27
ROOT
HETATM    1  C1  UNL     1      23.949  14.143  21.118  1.00  0.00     0.015 C
HETATM    2  C2  UNL     1      24.047  13.122  21.933  1.00  0.00    -0.067 C
HETATM    3  C3  UNL     1      25.428  12.801  22.369  1.00  0.00     0.113 C
HETATM    4  C6  UNL     1      26.001  11.923  21.293  1.00  0.00     0.150 C
HETATM    5  O2  UNL     1      25.168  10.901  20.891  1.00  0.00    -0.312 OA
HETATM    6  C10 UNL     1      24.044  10.361  21.431  1.00  0.00     0.296 C
HETATM    7  O3  UNL     1      24.063   9.131  21.799  1.00  0.00    -0.262 OA
HETATM    8  C11 UNL     1      22.785  11.024  21.648  1.00  0.00     0.169 C
HETATM    9  O4  UNL     1      21.867  10.149  22.331  1.00  0.00    -0.296 OA
HETATM   10  C17 UNL     1      21.468  10.294  23.642  1.00  0.00     0.298 C
HETATM   11  O5  UNL     1      20.496   9.690  24.128  1.00  0.00    -0.262 OA
HETATM   12  C18 UNL     1      22.288  11.241  24.462  1.00  0.00     0.184 C
HETATM   13  C19 UNL     1      21.639  11.718  25.714  1.00  0.00     0.195 C
HETATM   14  C20 UNL     1      22.112  13.146  25.850  1.00  0.00     0.190 A
HETATM   15  O8  UNL     1      23.470  13.288  25.750  1.00  0.00    -0.366 OA
HETATM   16  C21 UNL     1      22.875  13.499  24.558  1.00  0.00     0.098 A
HETATM   17  C22 UNL     1      22.714  14.989  24.207  1.00  0.00     0.050 C
HETATM   18  C23 UNL     1      22.289  12.500  23.643  1.00  0.00     0.043 C
HETATM   19  C24 UNL     1      20.780  12.879  23.614  1.00  0.00     0.023 C
HETATM   20  C25 UNL     1      22.767  12.394  22.259  1.00  0.00     0.075 C
ENDROOT
BRANCH   8  21
HETATM   21  C12 UNL     1      22.135  11.075  20.230  1.00  0.00     0.077 C
BRANCH  21  22
HETATM   22  C13 UNL     1      20.682  11.350  20.383  1.00  0.00    -0.021 C
HETATM   23  C14 UNL     1      19.738  10.536  19.947  1.00  0.00    -0.091 C
HETATM   24  C15 UNL     1      18.313  10.905  20.150  1.00  0.00     0.042 C
HETATM   25  C16 UNL     1      20.042   9.255  19.255  1.00  0.00     0.042 C
ENDBRANCH  21  22
ENDBRANCH   8  21
BRANCH   4  26
HETATM   26  C7  UNL     1      27.329  11.314  21.570  1.00  0.00     0.008 C
HETATM   27  C8  UNL     1      28.542  11.993  21.078  1.00  0.00     0.012 C
HETATM   28  C9  UNL     1      27.372   9.873  21.035  1.00  0.00     0.012 C
ENDBRANCH   4  26
BRANCH  12  29
HETATM   29  O6  UNL     1      23.425  10.618  24.758  1.00  0.00    -0.376 OA
ATOM     30  H6  UNL     1      24.102  10.998  24.210  1.00  0.00     0.211 HD
ENDBRANCH  12  29
BRANCH   3  31
HETATM   31  C4  UNL     1      26.180  13.943  22.781  1.00  0.00     0.133 C
HETATM   32  C5  UNL     1      26.881  15.002  22.053  1.00  0.00     0.091 C
HETATM   33  O1  UNL     1      26.275  14.104  24.041  1.00  0.00    -0.298 OA
ENDBRANCH   3  31
BRANCH  13  34
HETATM   34  O7  UNL     1      20.292  11.532  25.817  1.00  0.00    -0.389 OA
ATOM     35  H7  UNL     1      19.739  12.133  25.332  1.00  0.00     0.210 HD
ENDBRANCH  13  34
TORSDOF 6
ENDMDL