MODEL 2
REMARK VINA RESULT: -8.649737290      5.182      7.184
REMARK  3 active torsions:
REMARK  status: ('A' for Active; 'I' for Inactive)
REMARK    1  A    between atoms: C10_11  and  C11_12
REMARK    2  A    between atoms: C11_12  and  C12_13
REMARK    3  A    between atoms: C12_13  and  S1_14
ROOT
HETATM    1  C1  UNL     1      18.436  15.536  24.920  1.00  0.00     0.010 C
HETATM    2  C2  UNL     1      19.575  14.673  24.492  1.00  0.00    -0.011 C
HETATM    3  C3  UNL     1      20.813  15.606  24.421  1.00  0.00     0.005 C
HETATM    4  C4  UNL     1      21.840  14.475  24.193  1.00  0.00     0.008 C
HETATM    5  C5  UNL     1      21.521  13.421  25.262  1.00  0.00     0.028 C
HETATM    6  C6  UNL     1      20.089  13.838  25.596  1.00  0.00     0.037 C
HETATM    7  C7  UNL     1      19.455  12.653  26.065  1.00  0.00     0.134 C
HETATM    8  C8  UNL     1      18.991  11.799  25.004  1.00  0.00     0.077 C
HETATM    9  C9  UNL     1      19.814  10.651  24.457  1.00  0.00     0.136 C
HETATM   10  O1  UNL     1      19.739  10.635  23.157  1.00  0.00    -0.377 OA
HETATM   11  C10 UNL     1      20.385   9.961  22.239  1.00  0.00     0.157 C
HETATM   12  C13 UNL     1      21.456  10.755  21.464  1.00  0.00     0.208 A
HETATM   13  O5  UNL     1      21.386  12.062  21.219  1.00  0.00    -0.346 OA
HETATM   14  C14 UNL     1      22.151  11.660  22.466  1.00  0.00     0.293 A
HETATM   15  O6  UNL     1      21.460  12.179  23.438  1.00  0.00    -0.347 OA
HETATM   16  C15 UNL     1      21.762  12.013  24.804  1.00  0.00     0.074 C
HETATM   17  C16 UNL     1      23.311  11.993  24.834  1.00  0.00     0.047 C
HETATM   18  C17 UNL     1      21.130  10.816  25.214  1.00  0.00     0.019 C
HETATM   19  C18 UNL     1      22.074   9.628  24.922  1.00  0.00     0.021 C
HETATM   20  C19 UNL     1      20.719  10.334  26.572  1.00  0.00     0.089 C
HETATM   21  C20 UNL     1      19.722  11.017  27.394  1.00  0.00     0.228 A
HETATM   22  O7  UNL     1      18.374  11.288  27.044  1.00  0.00    -0.197 OA
HETATM   23  O8  UNL     1      18.327  12.651  26.934  1.00  0.00    -0.223 OA
HETATM   24  O9  UNL     1      19.920  11.838  28.464  1.00  0.00    -0.336 OA
HETATM   25  C21 UNL     1      20.334  12.329  27.220  1.00  0.00     0.228 A
ENDROOT
BRANCH  11  26
HETATM   26  C11 UNL     1      19.398   9.589  21.147  1.00  0.00     0.052 C
BRANCH  26  27
HETATM   27  C12 UNL     1      19.942   8.834  20.002  1.00  0.00     0.168 C
BRANCH  27  28
HETATM   28  S1  UNL     1      18.742   7.908  19.090  1.00  0.00     0.101 S
HETATM   29  O2  UNL     1      18.610   6.508  19.535  1.00  0.00    -0.595 OA
HETATM   30  O3  UNL     1      17.390   8.579  19.277  1.00  0.00    -0.595 OA
HETATM   31  O4  UNL     1      19.106   7.921  17.444  1.00  0.00    -0.595 OA
ENDBRANCH  27  28
ENDBRANCH  26  27
ENDBRANCH  11  26
TORSDOF 3
ENDMDL