MODEL 1
REMARK VINA RESULT: -8.100183711      0.000      0.000
REMARK  6 active torsions:
REMARK  status: ('A' for Active; 'I' for Inactive)
REMARK    1  A    between atoms: C2_2  and  C3_3
REMARK    2  A    between atoms: C3_3  and  C4_4
REMARK    3  A    between atoms: C16_19  and  C17_20
REMARK    4  A    between atoms: N1_21  and  N2_23
REMARK       I    between atoms: N2_23  and  C18_25
REMARK    5  A    between atoms: C18_25  and  C19_27
REMARK       I    between atoms: C19_27  and  N3_29
REMARK       I    between atoms: N3_29  and  C20_31
REMARK    6  A    between atoms: C20_31  and  O7_33
ROOT
HETATM    1  C4  UNL     1      20.754  12.854  26.711  1.00  0.00     0.009 C
HETATM    2  C5  UNL     1      21.982  12.802  25.934  1.00  0.00     0.007 C
HETATM    3  C6  UNL     1      22.283  11.534  25.187  1.00  0.00     0.009 C
HETATM    4  C7  UNL     1      22.290  11.869  23.711  1.00  0.00     0.039 C
HETATM    5  C8  UNL     1      22.344  13.356  23.608  1.00  0.00     0.072 C
HETATM    6  C9  UNL     1      23.423  13.902  22.695  1.00  0.00     0.047 C
HETATM    7  O1  UNL     1      21.107  13.970  23.423  1.00  0.00    -0.349 OA
HETATM    8  C10 UNL     1      21.371  14.790  24.468  1.00  0.00     0.275 C
HETATM    9  O2  UNL     1      20.465  15.079  25.408  1.00  0.00    -0.330 OA
HETATM   10  C11 UNL     1      19.296  14.366  25.434  1.00  0.00     0.277 C
HETATM   11  O3  UNL     1      18.445  15.209  26.192  1.00  0.00    -0.355 OA
HETATM   12  C12 UNL     1      17.134  14.839  26.127  1.00  0.00     0.120 C
HETATM   13  C13 UNL     1      16.449  15.189  24.831  1.00  0.00     0.039 C
HETATM   14  C14 UNL     1      17.042  13.397  26.492  1.00  0.00     0.033 C
HETATM   15  C15 UNL     1      18.359  12.937  27.145  1.00  0.00     0.023 C
HETATM   16  C16 UNL     1      19.432  12.984  26.032  1.00  0.00     0.047 C
HETATM   17  C22 UNL     1      22.381  13.879  25.007  1.00  0.00     0.041 C
HETATM   18  C23 UNL     1      23.672  14.641  25.352  1.00  0.00     0.024 C
ENDROOT
BRANCH  16  19
HETATM   19  C17 UNL     1      19.057  11.885  25.153  1.00  0.00     0.095 C
HETATM   20  N1  UNL     1      18.785  12.019  23.903  1.00  0.00    -0.312 N
ATOM     21  H1  UNL     1      18.840  12.961  23.513  1.00  0.00     0.185 HD
BRANCH  20  22
HETATM   22  N2  UNL     1      18.429  11.007  23.046  1.00  0.00    -0.262 N
HETATM   23  C18 UNL     1      17.140  10.904  22.502  1.00  0.00     0.328 C
HETATM   24  O4  UNL     1      16.258  11.776  22.805  1.00  0.00    -0.261 OA
ATOM     25  H2  UNL     1      19.126  10.306  22.797  1.00  0.00     0.190 HD
BRANCH  23  26
HETATM   26  C19 UNL     1      16.750   9.838  21.595  1.00  0.00     0.319 C
HETATM   27  O5  UNL     1      15.618   9.322  21.752  1.00  0.00    -0.262 OA
HETATM   28  N3  UNL     1      17.607   9.385  20.562  1.00  0.00    -0.265 N
HETATM   29  C20 UNL     1      17.225   8.349  19.683  1.00  0.00     0.367 C
ATOM     30  H3  UNL     1      18.523   9.820  20.452  1.00  0.00     0.174 HD
HETATM   31  O6  UNL     1      16.101   7.823  19.825  1.00  0.00    -0.238 OA
BRANCH  29  32
HETATM   32  O7  UNL     1      18.048   7.898  18.673  1.00  0.00    -0.309 OA
HETATM   33  C21 UNL     1      18.459   6.552  18.546  1.00  0.00     0.215 C
ENDBRANCH  29  32
ENDBRANCH  23  26
ENDBRANCH  20  22
ENDBRANCH  16  19
BRANCH   1  34
HETATM   34  C3  UNL     1      20.786  11.742  27.725  1.00  0.00     0.006 C
BRANCH  34  35
HETATM   35  C2  UNL     1      21.492  12.039  29.008  1.00  0.00    -0.004 C
HETATM   36  C1  UNL     1      21.175  13.461  29.478  1.00  0.00     0.005 C
ENDBRANCH  34  35
ENDBRANCH   1  34
TORSDOF 6
ENDMDL