MODEL 2
REMARK VINA RESULT: -8.198383504      1.848      4.917
REMARK  6 active torsions:
REMARK  status: ('A' for Active; 'I' for Inactive)
REMARK    1  A    between atoms: C2_2  and  O2_4
REMARK    2  A    between atoms: O2_4  and  C3_5
REMARK    3  A    between atoms: C9_11  and  C10_12
REMARK    4  A    between atoms: C14_21  and  O6_22
REMARK    5  A    between atoms: C19_28  and  O7_29
REMARK    6  A    between atoms: O7_29  and  C20_30
ROOT
HETATM    1  C3  UNL     1      17.156  11.254  23.681  1.00  0.00     0.142 C
HETATM    2  C4  UNL     1      18.276  12.185  24.076  1.00  0.00     0.039 C
HETATM    3  C5  UNL     1      19.590  11.477  24.037  1.00  0.00     0.011 C
HETATM    4  C6  UNL     1      20.664  12.544  24.179  1.00  0.00    -0.020 C
HETATM    5  C7  UNL     1      20.189  13.906  24.534  1.00  0.00     0.017 C
HETATM    6  C8  UNL     1      21.907  12.028  24.811  1.00  0.00     0.091 C
HETATM    7  C9  UNL     1      22.856  12.996  25.380  1.00  0.00     0.116 C
HETATM    8  N1  UNL     1      23.849  13.099  24.567  1.00  0.00    -0.263 N
ATOM      9  H1  UNL     1      24.651  13.710  24.725  1.00  0.00     0.194 HD
HETATM   10  O5  UNL     1      23.708  12.299  23.471  1.00  0.00    -0.267 OA
HETATM   11  C11 UNL     1      22.430  11.740  23.424  1.00  0.00     0.109 C
HETATM   12  C12 UNL     1      22.353  10.299  23.098  1.00  0.00     0.050 C
HETATM   13  C13 UNL     1      23.119   9.530  24.185  1.00  0.00     0.016 C
HETATM   14  C14 UNL     1      20.984   9.757  23.031  1.00  0.00     0.136 C
HETATM   15  C15 UNL     1      19.889  10.777  22.737  1.00  0.00     0.022 C
HETATM   16  C16 UNL     1      20.424  11.905  21.902  1.00  0.00     0.003 C
HETATM   17  C17 UNL     1      20.942  11.545  20.573  1.00  0.00     0.011 C
HETATM   18  C18 UNL     1      21.373  12.591  22.818  1.00  0.00     0.038 C
HETATM   19  C19 UNL     1      18.745  10.049  22.147  1.00  0.00     0.154 C
HETATM   20  C22 UNL     1      17.397  10.672  22.325  1.00  0.00     0.007 C
HETATM   21  C23 UNL     1      17.085  11.707  21.265  1.00  0.00     0.020 C
HETATM   22  C24 UNL     1      16.365   9.554  22.137  1.00  0.00     0.020 C
ENDROOT
BRANCH   1  23
HETATM   23  O2  UNL     1      15.978  12.063  23.582  1.00  0.00    -0.315 OA
BRANCH  23  24
HETATM   24  C2  UNL     1      15.526  12.799  24.642  1.00  0.00     0.255 C
HETATM   25  C1  UNL     1      15.279  14.259  24.430  1.00  0.00     0.126 C
HETATM   26  O1  UNL     1      15.336  12.234  25.738  1.00  0.00    -0.266 OA
ENDBRANCH  23  24
ENDBRANCH   1  23
BRANCH  19  27
HETATM   27  O7  UNL     1      18.898   9.831  20.763  1.00  0.00    -0.315 OA
BRANCH  27  28
HETATM   28  C20 UNL     1      19.053   8.614  20.169  1.00  0.00     0.255 C
HETATM   29  C21 UNL     1      17.888   7.976  19.509  1.00  0.00     0.126 C
HETATM   30  O8  UNL     1      20.170   8.050  20.186  1.00  0.00    -0.266 OA
ENDBRANCH  27  28
ENDBRANCH  19  27
BRANCH  14  31
HETATM   31  O6  UNL     1      20.642   9.165  24.262  1.00  0.00    -0.394 OA
ATOM     32  H6  UNL     1      21.402   8.737  24.639  1.00  0.00     0.210 HD
ENDBRANCH  14  31
BRANCH   7  33
HETATM   33  C10 UNL     1      22.741  13.728  26.629  1.00  0.00     0.225 C
HETATM   34  O3  UNL     1      22.622  13.084  27.698  1.00  0.00    -0.643 OA
HETATM   35  O4  UNL     1      22.762  15.114  26.661  1.00  0.00    -0.643 OA
ENDBRANCH   7  33
TORSDOF 6
ENDMDL