MODEL 1
REMARK VINA RESULT: -8.118408325      0.000      0.000
REMARK  9 active torsions:
REMARK  status: ('A' for Active; 'I' for Inactive)
REMARK    1  A    between atoms: C2_2  and  C3_3
REMARK    2  A    between atoms: C3_3  and  O2_5
REMARK    3  A    between atoms: O2_5  and  C4_6
REMARK    4  A    between atoms: C11_13  and  O3_14
REMARK    5  A    between atoms: C13_17  and  O4_18
REMARK    6  A    between atoms: O4_18  and  C14_19
REMARK    7  A    between atoms: C16_22  and  O6_23
REMARK    8  A    between atoms: O6_23  and  C17_24
REMARK    9  A    between atoms: C20_28  and  O8_29
ROOT
HETATM    1  C4  UNL     1      21.723  14.091  26.052  1.00  0.00     0.141 C
HETATM    2  C5  UNL     1      20.712  13.143  25.554  1.00  0.00     0.046 C
HETATM    3  C6  UNL     1      21.169  12.012  24.694  1.00  0.00     0.000 C
HETATM    4  C7  UNL     1      21.496  10.867  25.636  1.00  0.00     0.019 C
HETATM    5  C8  UNL     1      22.424  12.385  23.975  1.00  0.00    -0.026 C
HETATM    6  C9  UNL     1      22.903  11.404  22.972  1.00  0.00     0.014 C
HETATM    7  C10 UNL     1      21.876  10.630  22.249  1.00  0.00     0.042 C
HETATM    8  C11 UNL     1      20.622  10.317  22.979  1.00  0.00     0.092 C
HETATM    9  C12 UNL     1      19.543  10.071  21.910  1.00  0.00     0.076 C
HETATM   10  C13 UNL     1      18.251   9.668  22.518  1.00  0.00     0.164 C
HETATM   11  C16 UNL     1      17.932  10.236  23.840  1.00  0.00     0.164 C
HETATM   12  C19 UNL     1      18.770  11.351  24.330  1.00  0.00     0.077 C
HETATM   13  C20 UNL     1      20.104  11.525  23.726  1.00  0.00     0.099 C
HETATM   14  C21 UNL     1      22.419  13.772  23.383  1.00  0.00     0.044 C
HETATM   15  C22 UNL     1      23.259  14.632  24.272  1.00  0.00    -0.082 C
HETATM   16  C23 UNL     1      23.934  15.728  24.025  1.00  0.00     0.015 C
HETATM   17  C24 UNL     1      23.136  13.907  25.578  1.00  0.00     0.044 C
HETATM   18  C25 UNL     1      23.487  12.560  25.069  1.00  0.00     0.022 C
ENDROOT
BRANCH   1  19
HETATM   19  O2  UNL     1      21.687  14.180  27.480  1.00  0.00    -0.312 OA
BRANCH  19  20
HETATM   20  C3  UNL     1      22.307  13.341  28.350  1.00  0.00     0.282 C
HETATM   21  O1  UNL     1      23.507  13.585  28.636  1.00  0.00    -0.260 OA
BRANCH  20  22
HETATM   22  C2  UNL     1      21.621  12.207  28.932  1.00  0.00     0.072 C
HETATM   23  C1  UNL     1      20.310  12.170  29.060  1.00  0.00     0.017 C
ENDBRANCH  20  22
ENDBRANCH  19  20
ENDBRANCH   1  19
BRANCH  13  24
HETATM   24  O8  UNL     1      19.938  12.451  22.662  1.00  0.00    -0.386 OA
ATOM     25  H8  UNL     1      19.940  12.001  21.825  1.00  0.00     0.210 HD
ENDBRANCH  13  24
BRANCH   8  26
HETATM   26  O3  UNL     1      20.745   9.183  23.695  1.00  0.00    -0.387 OA
ATOM     27  H3  UNL     1      19.979   8.629  23.595  1.00  0.00     0.210 HD
ENDBRANCH   8  26
BRANCH  11  28
HETATM   28  O6  UNL     1      16.555  10.614  23.849  1.00  0.00    -0.314 OA
BRANCH  28  29
HETATM   29  C17 UNL     1      15.619  10.122  24.709  1.00  0.00     0.255 C
HETATM   30  C18 UNL     1      15.477   8.644  24.956  1.00  0.00     0.126 C
HETATM   31  O7  UNL     1      14.863  10.918  25.304  1.00  0.00    -0.266 OA
ENDBRANCH  28  29
ENDBRANCH  11  28
BRANCH  10  32
HETATM   32  O4  UNL     1      17.231  10.014  21.567  1.00  0.00    -0.314 OA
BRANCH  32  33
HETATM   33  C14 UNL     1      16.697   9.144  20.666  1.00  0.00     0.255 C
HETATM   34  C15 UNL     1      15.636   8.156  21.057  1.00  0.00     0.126 C
HETATM   35  O5  UNL     1      17.129   9.195  19.475  1.00  0.00    -0.266 OA
ENDBRANCH  32  33
ENDBRANCH  10  32
TORSDOF 9
ENDMDL