MODEL 4
REMARK VINA RESULT: -8.755132657      2.135      4.826
REMARK  7 active torsions:
REMARK  status: ('A' for Active; 'I' for Inactive)
REMARK    1  A    between atoms: C2_2  and  C3_3
REMARK    2  A    between atoms: C2_2  and  C5_7
REMARK    3  A    between atoms: C3_3  and  O2_5
REMARK    4  A    between atoms: C9_11  and  O3_12
REMARK    5  A    between atoms: C14_18  and  O4_19
REMARK    6  A    between atoms: C15_21  and  O5_22
REMARK    7  A    between atoms: O5_22  and  C16_23
ROOT
HETATM    1  C5  UNL     1      22.467  11.223  20.183  1.00  0.00     0.024 C
HETATM    2  C6  UNL     1      21.490  11.078  19.075  1.00  0.00     0.010 C
HETATM    3  C7  UNL     1      20.284  10.322  19.652  1.00  0.00     0.008 C
HETATM    4  C8  UNL     1      19.603  11.279  20.562  1.00  0.00     0.020 C
HETATM    5  C9  UNL     1      18.433  10.624  21.325  1.00  0.00     0.127 C
HETATM    6  C10 UNL     1      18.426  11.485  22.515  1.00  0.00     0.026 C
HETATM    7  C11 UNL     1      17.810  11.081  23.760  1.00  0.00     0.015 C
HETATM    8  C12 UNL     1      18.740  11.675  24.831  1.00  0.00     0.018 C
HETATM    9  C13 UNL     1      18.059  12.620  25.731  1.00  0.00     0.041 C
HETATM   10  C14 UNL     1      18.749  13.827  26.173  1.00  0.00     0.151 C
HETATM   11  C15 UNL     1      20.207  13.946  26.087  1.00  0.00     0.194 C
HETATM   12  C18 UNL     1      21.029  12.720  26.046  1.00  0.00     0.083 C
HETATM   13  C19 UNL     1      22.493  13.189  26.189  1.00  0.00     0.048 C
HETATM   14  C20 UNL     1      20.805  11.792  27.213  1.00  0.00     0.048 C
HETATM   15  O7  UNL     1      21.028  12.058  24.820  1.00  0.00    -0.372 OA
HETATM   16  C21 UNL     1      19.916  12.287  24.053  1.00  0.00     0.135 C
HETATM   17  C22 UNL     1      19.928  11.386  22.867  1.00  0.00    -0.007 C
HETATM   18  C23 UNL     1      20.335  10.016  23.235  1.00  0.00     0.019 C
HETATM   19  C24 UNL     1      20.485  11.916  21.595  1.00  0.00     0.004 C
HETATM   20  C25 UNL     1      21.926  11.668  21.491  1.00  0.00     0.015 C
ENDROOT
BRANCH   1  21
HETATM   21  C2  UNL     1      23.607  12.052  19.720  1.00  0.00     0.012 C
HETATM   22  C1  UNL     1      24.123  13.036  20.421  1.00  0.00     0.025 C
BRANCH  21  23
HETATM   23  C3  UNL     1      24.181  11.759  18.416  1.00  0.00     0.288 C
HETATM   24  O1  UNL     1      24.679  10.627  18.138  1.00  0.00    -0.260 OA
BRANCH  23  25
HETATM   25  O2  UNL     1      24.203  12.732  17.409  1.00  0.00    -0.323 OA
HETATM   26  C4  UNL     1      25.335  13.529  17.151  1.00  0.00     0.213 C
ENDBRANCH  23  25
ENDBRANCH  21  23
ENDBRANCH   1  21
BRANCH   5  27
HETATM   27  O3  UNL     1      17.269  10.690  20.561  1.00  0.00    -0.395 OA
ATOM     28  H3  UNL     1      17.459  11.072  19.712  1.00  0.00     0.210 HD
ENDBRANCH   5  27
BRANCH  10  29
HETATM   29  O4  UNL     1      18.208  14.952  25.490  1.00  0.00    -0.393 OA
ATOM     30  H4  UNL     1      18.733  15.719  25.688  1.00  0.00     0.210 HD
ENDBRANCH  10  29
BRANCH  11  31
HETATM   31  O5  UNL     1      20.686  14.692  27.213  1.00  0.00    -0.311 OA
BRANCH  31  32
HETATM   32  C16 UNL     1      20.869  16.045  27.229  1.00  0.00     0.255 C
HETATM   33  C17 UNL     1      21.246  16.715  25.953  1.00  0.00     0.126 C
HETATM   34  O6  UNL     1      20.718  16.666  28.298  1.00  0.00    -0.266 OA
ENDBRANCH  31  32
ENDBRANCH  11  31
TORSDOF 7
ENDMDL