MODEL 5
REMARK VINA RESULT: -6.991522787      1.806      3.244
REMARK  7 active torsions:
REMARK  status: ('A' for Active; 'I' for Inactive)
REMARK    1  A    between atoms: O1_2  and  C2_3
REMARK    2  A    between atoms: C2_3  and  C3_4
REMARK    3  A    between atoms: C7_8  and  O2_9
REMARK    4  A    between atoms: C16_20  and  O4_21
REMARK    5  A    between atoms: O4_21  and  C17_22
REMARK    6  A    between atoms: C20_26  and  O6_27
REMARK    7  A    between atoms: C24_32  and  O8_33
ROOT
HETATM    1  C3  UNL     1      19.419  11.787  23.226  1.00  0.00     0.002 C
HETATM    2  C4  UNL     1      20.232  11.196  22.150  1.00  0.00     0.022 C
HETATM    3  C5  UNL     1      18.864  10.593  24.018  1.00  0.00     0.018 C
HETATM    4  C6  UNL     1      18.529  11.159  25.317  1.00  0.00     0.034 C
HETATM    5  C7  UNL     1      19.728  11.682  26.106  1.00  0.00     0.134 C
HETATM    6  C8  UNL     1      20.657  12.601  25.363  1.00  0.00     0.042 C
HETATM    7  C9  UNL     1      21.802  11.644  24.952  1.00  0.00     0.026 C
HETATM    8  C10 UNL     1      19.952  12.902  24.054  1.00  0.00    -0.059 C
HETATM    9  C11 UNL     1      20.422  13.902  23.113  1.00  0.00    -0.019 C
HETATM   10  C12 UNL     1      21.707  14.624  23.252  1.00  0.00     0.069 C
HETATM   11  C13 UNL     1      21.703  15.551  24.395  1.00  0.00     0.108 C
HETATM   12  O3  UNL     1      20.615  16.450  24.215  1.00  0.00    -0.375 OA
HETATM   13  C14 UNL     1      19.900  15.950  25.340  1.00  0.00     0.180 C
HETATM   14  C15 UNL     1      21.092  15.169  25.631  1.00  0.00     0.088 C
HETATM   15  C16 UNL     1      21.140  13.765  26.113  1.00  0.00     0.113 C
HETATM   16  C19 UNL     1      22.626  13.661  26.545  1.00  0.00     0.048 C
HETATM   17  C20 UNL     1      23.773  14.114  25.835  1.00  0.00     0.077 C
HETATM   18  C22 UNL     1      23.985  15.532  25.432  1.00  0.00     0.217 C
HETATM   19  O7  UNL     1      23.937  16.489  26.446  1.00  0.00    -0.373 OA
HETATM   20  C23 UNL     1      23.154  17.274  25.591  1.00  0.00     0.213 C
HETATM   21  C24 UNL     1      23.028  16.200  24.574  1.00  0.00     0.143 C
ENDROOT
BRANCH   1  22
HETATM   22  C2  UNL     1      18.131  12.318  22.552  1.00  0.00     0.180 C
BRANCH  22  23
HETATM   23  O1  UNL     1      17.714  11.687  21.446  1.00  0.00    -0.395 OA
HETATM   24  C1  UNL     1      16.322  11.666  21.449  1.00  0.00     0.201 C
ENDBRANCH  22  23
ENDBRANCH   1  22
BRANCH   5  25
HETATM   25  O2  UNL     1      20.364  10.469  26.508  1.00  0.00    -0.394 OA
ATOM     26  H2  UNL     1      19.626   9.875  26.572  1.00  0.00     0.210 HD
ENDBRANCH   5  25
BRANCH  15  27
HETATM   27  O4  UNL     1      20.424  14.005  27.304  1.00  0.00    -0.304 OA
BRANCH  27  28
HETATM   28  C17 UNL     1      20.694  14.109  28.584  1.00  0.00     0.255 C
HETATM   29  C18 UNL     1      20.498  12.940  29.512  1.00  0.00     0.126 C
HETATM   30  O5  UNL     1      21.109  15.168  29.025  1.00  0.00    -0.266 OA
ENDBRANCH  27  28
ENDBRANCH  15  27
BRANCH  17  31
HETATM   31  O6  UNL     1      24.477  13.311  24.965  1.00  0.00    -0.358 OA
HETATM   32  C21 UNL     1      25.701  13.734  24.551  1.00  0.00     0.209 C
ENDBRANCH  17  31
BRANCH  21  33
HETATM   33  O8  UNL     1      23.502  16.639  23.319  1.00  0.00    -0.381 OA
ATOM     34  H8  UNL     1      24.298  16.167  23.104  1.00  0.00     0.211 HD
ENDBRANCH  21  33
TORSDOF 7
ENDMDL