MODEL 5
REMARK VINA RESULT: -8.288366736      1.277      1.573
REMARK  7 active torsions:
REMARK  status: ('A' for Active; 'I' for Inactive)
REMARK    1  A    between atoms: C2_2  and  C4_4
REMARK    2  A    between atoms: C4_4  and  O2_6
REMARK    3  A    between atoms: O2_6  and  C5_7
REMARK    4  A    between atoms: C8_10  and  O3_11
REMARK    5  A    between atoms: C9_13  and  O4_14
REMARK    6  A    between atoms: C19_27  and  O7_28
REMARK    7  A    between atoms: O7_28  and  C20_29
ROOT
HETATM    1  C5  UNL     1      19.331  11.237  21.655  1.00  0.00     0.166 C
HETATM    2  C6  UNL     1      20.828  10.862  21.599  1.00  0.00     0.025 C
HETATM    3  C7  UNL     1      21.348  11.355  20.312  1.00  0.00     0.042 C
HETATM    4  C8  UNL     1      22.726  11.036  19.914  1.00  0.00     0.156 C
HETATM    5  C9  UNL     1      23.666  12.180  19.730  1.00  0.00     0.121 A
HETATM    6  C10 UNL     1      24.938  12.055  20.606  1.00  0.00     0.059 A
HETATM    7  C11 UNL     1      26.258  12.435  19.912  1.00  0.00     0.016 C
HETATM    8  C12 UNL     1      23.941  13.083  20.842  1.00  0.00     0.100 A
HETATM    9  C13 UNL     1      24.409  14.501  20.438  1.00  0.00     0.050 C
HETATM   10  O5  UNL     1      22.962  13.137  21.737  1.00  0.00    -0.347 OA
HETATM   11  C14 UNL     1      23.107  12.913  23.038  1.00  0.00     0.266 C
HETATM   12  O6  UNL     1      22.388  13.654  23.938  1.00  0.00    -0.350 OA
HETATM   13  C15 UNL     1      21.017  13.619  23.872  1.00  0.00     0.063 C
HETATM   14  C16 UNL     1      20.645  15.057  23.444  1.00  0.00     0.046 C
HETATM   15  C17 UNL     1      20.363  13.482  25.256  1.00  0.00     0.046 C
HETATM   16  C18 UNL     1      20.525  12.708  22.887  1.00  0.00     0.057 C
HETATM   17  C19 UNL     1      19.173  12.092  22.924  1.00  0.00     0.169 C
HETATM   18  C22 UNL     1      21.294  11.377  22.862  1.00  0.00     0.010 C
HETATM   19  C23 UNL     1      22.686  11.450  23.273  1.00  0.00     0.042 C
HETATM   20  C24 UNL     1      22.900  11.232  24.783  1.00  0.00     0.015 C
ENDROOT
BRANCH   1  21
HETATM   21  O2  UNL     1      18.477  10.180  21.569  1.00  0.00    -0.309 OA
BRANCH  21  22
HETATM   22  C4  UNL     1      17.518   9.976  20.592  1.00  0.00     0.288 C
HETATM   23  O1  UNL     1      16.492  10.641  20.775  1.00  0.00    -0.260 OA
BRANCH  22  24
HETATM   24  C2  UNL     1      17.691   9.072  19.462  1.00  0.00     0.004 C
HETATM   25  C1  UNL     1      18.759   9.077  18.719  1.00  0.00     0.024 C
HETATM   26  C3  UNL     1      16.594   8.123  19.166  1.00  0.00     0.054 C
ENDBRANCH  22  24
ENDBRANCH  21  22
ENDBRANCH   1  21
BRANCH  17  27
HETATM   27  O7  UNL     1      18.082  12.874  22.980  1.00  0.00    -0.313 OA
BRANCH  27  28
HETATM   28  C20 UNL     1      16.850  12.680  23.516  1.00  0.00     0.255 C
HETATM   29  C21 UNL     1      16.618  11.573  24.463  1.00  0.00     0.126 C
HETATM   30  O8  UNL     1      15.979  13.492  23.144  1.00  0.00    -0.266 OA
ENDBRANCH  27  28
ENDBRANCH  17  27
BRANCH   4  31
HETATM   31  O3  UNL     1      22.675  10.425  18.620  1.00  0.00    -0.392 OA
ATOM     32  H3  UNL     1      23.249  10.918  18.045  1.00  0.00     0.210 HD
ENDBRANCH   4  31
BRANCH   5  33
HETATM   33  O4  UNL     1      23.915  12.667  18.424  1.00  0.00    -0.384 OA
ATOM     34  H4  UNL     1      24.810  12.719  18.112  1.00  0.00     0.210 HD
ENDBRANCH   5  33
TORSDOF 7
ENDMDL