MODEL 4
REMARK VINA RESULT: -7.904016372      1.404      1.672
REMARK  8 active torsions:
REMARK  status: ('A' for Active; 'I' for Inactive)
REMARK    1  A    between atoms: C2_2  and  O2_4
REMARK    2  A    between atoms: O2_4  and  C3_5
REMARK    3  A    between atoms: C13_16  and  O4_17
REMARK    4  A    between atoms: O4_17  and  C14_18
REMARK    5  A    between atoms: C17_22  and  O6_23
REMARK    6  A    between atoms: C19_26  and  O7_27
REMARK    7  A    between atoms: O7_27  and  C20_28
REMARK    8  A    between atoms: C22_31  and  O9_33
ROOT
HETATM    1  C3  UNL     1      18.643  13.523  24.134  1.00  0.00     0.166 C
HETATM    2  C4  UNL     1      18.905  13.280  25.550  1.00  0.00     0.078 C
HETATM    3  C5  UNL     1      20.275  13.270  26.069  1.00  0.00     0.092 A
HETATM    4  C6  UNL     1      20.491  14.363  27.151  1.00  0.00     0.049 C
HETATM    5  O3  UNL     1      20.678  12.019  26.815  1.00  0.00    -0.364 OA
HETATM    6  C7  UNL     1      21.368  12.631  25.618  1.00  0.00     0.089 A
HETATM    7  C8  UNL     1      22.748  13.206  26.032  1.00  0.00     0.049 C
HETATM    8  C9  UNL     1      21.544  11.564  24.644  1.00  0.00     0.045 C
HETATM    9  C10 UNL     1      20.354  10.963  23.970  1.00  0.00     0.041 C
HETATM   10  C11 UNL     1      19.834  11.790  22.803  1.00  0.00    -0.036 C
HETATM   11  C12 UNL     1      18.491  12.378  23.165  1.00  0.00    -0.015 C
HETATM   12  C13 UNL     1      17.348  11.486  23.337  1.00  0.00     0.170 C
HETATM   13  C16 UNL     1      17.568  10.325  22.378  1.00  0.00     0.058 A
HETATM   14  C17 UNL     1      16.677   9.902  21.340  1.00  0.00     0.132 A
HETATM   15  C18 UNL     1      17.582  11.019  21.038  1.00  0.00     0.057 A
HETATM   16  C19 UNL     1      18.984  10.873  20.539  1.00  0.00     0.177 C
HETATM   17  C22 UNL     1      20.070  11.265  21.470  1.00  0.00     0.105 C
HETATM   18  C23 UNL     1      21.032  10.056  21.511  1.00  0.00     0.053 C
ENDROOT
BRANCH   1  19
HETATM   19  O2  UNL     1      17.595  14.458  23.899  1.00  0.00    -0.312 OA
BRANCH  19  20
HETATM   20  C2  UNL     1      17.382  15.609  24.596  1.00  0.00     0.255 C
HETATM   21  C1  UNL     1      16.257  15.772  25.535  1.00  0.00     0.126 C
HETATM   22  O1  UNL     1      18.177  16.559  24.428  1.00  0.00    -0.266 OA
ENDBRANCH  19  20
ENDBRANCH   1  19
BRANCH  12  23
HETATM   23  O4  UNL     1      17.052  10.898  24.532  1.00  0.00    -0.311 OA
BRANCH  23  24
HETATM   24  C14 UNL     1      15.828  10.309  24.766  1.00  0.00     0.255 C
HETATM   25  C15 UNL     1      15.650   8.831  24.749  1.00  0.00     0.126 C
HETATM   26  O5  UNL     1      14.861  11.076  24.995  1.00  0.00    -0.266 OA
ENDBRANCH  23  24
ENDBRANCH  12  23
BRANCH  17  27
HETATM   27  O9  UNL     1      20.888  12.155  20.698  1.00  0.00    -0.383 OA
ATOM     28  H9  UNL     1      20.746  13.060  20.950  1.00  0.00     0.211 HD
ENDBRANCH  17  27
BRANCH  16  29
HETATM   29  O7  UNL     1      19.080   9.502  20.110  1.00  0.00    -0.312 OA
BRANCH  29  30
HETATM   30  C20 UNL     1      18.978   9.098  18.799  1.00  0.00     0.255 C
HETATM   31  C21 UNL     1      18.326   7.870  18.342  1.00  0.00     0.126 C
HETATM   32  O8  UNL     1      19.492   9.854  17.919  1.00  0.00    -0.266 OA
ENDBRANCH  29  30
ENDBRANCH  16  29
BRANCH  14  33
HETATM   33  O6  UNL     1      15.305  10.134  21.337  1.00  0.00    -0.395 OA
ATOM     34  H6  UNL     1      14.904  10.990  21.234  1.00  0.00     0.210 HD
ENDBRANCH  14  33
TORSDOF 8
ENDMDL