MODEL 3
REMARK VINA RESULT: -6.870598359      3.916      7.236
REMARK  8 active torsions:
REMARK  status: ('A' for Active; 'I' for Inactive)
REMARK    1  A    between atoms: C2_2  and  O2_4
REMARK    2  A    between atoms: O2_4  and  C3_5
REMARK    3  A    between atoms: C11_13  and  O3_14
REMARK    4  A    between atoms: C12_16  and  S1_17
REMARK    5  A    between atoms: C13_21  and  C14_22
REMARK    6  A    between atoms: C14_22  and  O7_25
REMARK    7  A    between atoms: C17_27  and  O8_28
REMARK    8  A    between atoms: O8_28  and  C18_29
ROOT
HETATM    1  C3  UNL     1      19.860  11.949  21.631  1.00  0.00     0.147 C
HETATM    2  C4  UNL     1      20.135  11.136  20.379  1.00  0.00     0.034 C
HETATM    3  C5  UNL     1      21.492  10.611  20.207  1.00  0.00     0.012 C
HETATM    4  C6  UNL     1      22.550  11.122  21.131  1.00  0.00    -0.036 C
HETATM    5  C7  UNL     1      23.597   9.978  21.162  1.00  0.00     0.015 C
HETATM    6  C8  UNL     1      23.297  12.196  20.323  1.00  0.00     0.015 C
HETATM    7  C9  UNL     1      22.146  11.556  22.494  1.00  0.00     0.010 C
HETATM    8  C10 UNL     1      22.737  10.516  23.452  1.00  0.00     0.020 C
HETATM    9  C11 UNL     1      22.800  12.840  22.850  1.00  0.00     0.176 C
HETATM   10  C12 UNL     1      22.520  13.178  24.328  1.00  0.00     0.099 C
HETATM   11  C13 UNL     1      21.106  13.371  24.618  1.00  0.00     0.029 C
HETATM   12  C17 UNL     1      20.306  12.203  24.119  1.00  0.00     0.079 C
HETATM   13  C20 UNL     1      20.668  11.525  22.822  1.00  0.00     0.044 C
HETATM   14  C21 UNL     1      20.225  10.057  23.010  1.00  0.00     0.026 C
ENDROOT
BRANCH  11  15
HETATM   15  C14 UNL     1      20.474  14.702  24.698  1.00  0.00     0.081 C
HETATM   16  C15 UNL     1      18.971  14.747  24.512  1.00  0.00     0.051 C
HETATM   17  C16 UNL     1      20.561  15.322  26.123  1.00  0.00     0.051 C
BRANCH  15  18
HETATM   18  O7  UNL     1      20.974  15.698  23.877  1.00  0.00    -0.386 OA
ATOM     19  H7  UNL     1      21.840  15.570  23.509  1.00  0.00     0.211 HD
ENDBRANCH  15  18
ENDBRANCH  11  15
BRANCH  10  20
HETATM   20  S1  UNL     1      23.779  14.248  24.856  1.00  0.00     0.137 S
HETATM   21  O4  UNL     1      24.151  14.197  26.294  1.00  0.00    -0.591 OA
HETATM   22  O5  UNL     1      25.104  13.719  24.206  1.00  0.00    -0.591 OA
HETATM   23  O6  UNL     1      23.740  15.790  24.199  1.00  0.00    -0.591 OA
ENDBRANCH  10  20
BRANCH  12  24
HETATM   24  O8  UNL     1      19.971  11.277  25.121  1.00  0.00    -0.282 OA
BRANCH  24  25
HETATM   25  C18 UNL     1      19.493  11.353  26.348  1.00  0.00     0.259 C
HETATM   26  C19 UNL     1      20.296  10.973  27.536  1.00  0.00     0.126 C
HETATM   27  O9  UNL     1      18.331  11.759  26.471  1.00  0.00    -0.265 OA
ENDBRANCH  24  25
ENDBRANCH  12  24
BRANCH   9  28
HETATM   28  O3  UNL     1      22.646  13.948  22.149  1.00  0.00    -0.389 OA
ATOM     29  H3  UNL     1      23.088  14.762  22.359  1.00  0.00     0.210 HD
ENDBRANCH   9  28
BRANCH   1  30
HETATM   30  O2  UNL     1      18.485  11.679  22.021  1.00  0.00    -0.315 OA
BRANCH  30  31
HETATM   31  C2  UNL     1      17.516  11.296  21.145  1.00  0.00     0.255 C
HETATM   32  C1  UNL     1      17.350   9.937  20.584  1.00  0.00     0.126 C
HETATM   33  O1  UNL     1      16.693  12.178  20.784  1.00  0.00    -0.266 OA
ENDBRANCH  30  31
ENDBRANCH   1  30
TORSDOF 8
ENDMDL