MODEL 5
REMARK VINA RESULT: -7.666038758      1.486      1.831
REMARK  8 active torsions:
REMARK  status: ('A' for Active; 'I' for Inactive)
REMARK    1  A    between atoms: C2_2  and  O2_4
REMARK    2  A    between atoms: O2_4  and  C3_5
REMARK    3  A    between atoms: C9_11  and  O3_12
REMARK    4  A    between atoms: C10_14  and  O4_15
REMARK    5  A    between atoms: C11_17  and  O5_18
REMARK    6  A    between atoms: O5_18  and  C12_19
REMARK    7  A    between atoms: C14_22  and  O7_23
REMARK    8  A    between atoms: O7_23  and  C15_24
ROOT
HETATM    1  C3  UNL     1      25.077  13.450  22.118  1.00  0.00     0.144 C
HETATM    2  C4  UNL     1      23.668  13.886  21.900  1.00  0.00     0.026 C
HETATM    3  C5  UNL     1      23.569  13.016  20.750  1.00  0.00     0.003 C
HETATM    4  C6  UNL     1      22.918  11.717  20.822  1.00  0.00     0.006 C
HETATM    5  C7  UNL     1      23.137  10.817  21.958  1.00  0.00     0.009 C
HETATM    6  C8  UNL     1      22.841  11.209  23.323  1.00  0.00     0.029 C
HETATM    7  C9  UNL     1      21.718  10.346  23.924  1.00  0.00     0.160 C
HETATM    8  C10 UNL     1      20.724  11.354  24.538  1.00  0.00     0.117 C
HETATM    9  C11 UNL     1      21.395  11.838  25.787  1.00  0.00     0.199 C
HETATM   10  C14 UNL     1      22.551  12.624  25.225  1.00  0.00     0.174 C
HETATM   11  C17 UNL     1      22.439  12.556  23.699  1.00  0.00     0.006 C
HETATM   12  C18 UNL     1      22.811  13.765  23.091  1.00  0.00     0.005 C
HETATM   13  C19 UNL     1      21.497  14.560  22.942  1.00  0.00     0.006 C
HETATM   14  C20 UNL     1      20.485  13.793  23.811  1.00  0.00     0.009 C
HETATM   15  C21 UNL     1      20.905  12.439  23.570  1.00  0.00     0.037 C
HETATM   16  C22 UNL     1      25.081  13.075  20.628  1.00  0.00    -0.016 C
HETATM   17  C23 UNL     1      25.817  11.841  20.283  1.00  0.00     0.018 C
HETATM   18  C24 UNL     1      25.589  14.240  19.762  1.00  0.00     0.018 C
ENDROOT
BRANCH   1  19
HETATM   19  O2  UNL     1      26.047  14.262  22.570  1.00  0.00    -0.315 OA
BRANCH  19  20
HETATM   20  C2  UNL     1      27.335  14.017  22.956  1.00  0.00     0.255 C
HETATM   21  C1  UNL     1      28.519  14.210  22.092  1.00  0.00     0.126 C
HETATM   22  O1  UNL     1      27.461  13.605  24.128  1.00  0.00    -0.266 OA
ENDBRANCH  19  20
ENDBRANCH   1  19
BRANCH  10  23
HETATM   23  O7  UNL     1      22.667  13.899  25.744  1.00  0.00    -0.313 OA
BRANCH  23  24
HETATM   24  C15 UNL     1      23.732  14.276  26.507  1.00  0.00     0.255 C
HETATM   25  C16 UNL     1      24.811  15.100  25.855  1.00  0.00     0.126 C
HETATM   26  O8  UNL     1      23.853  13.970  27.721  1.00  0.00    -0.266 OA
ENDBRANCH  23  24
ENDBRANCH  10  23
BRANCH   7  27
HETATM   27  O3  UNL     1      22.159   9.432  24.841  1.00  0.00    -0.392 OA
ATOM     28  H3  UNL     1      21.951   8.533  24.614  1.00  0.00     0.210 HD
ENDBRANCH   7  27
BRANCH   9  29
HETATM   29  O5  UNL     1      20.578  12.558  26.642  1.00  0.00    -0.310 OA
BRANCH  29  30
HETATM   30  C12 UNL     1      20.476  12.246  27.990  1.00  0.00     0.255 C
HETATM   31  C13 UNL     1      19.187  12.158  28.721  1.00  0.00     0.126 C
HETATM   32  O6  UNL     1      21.528  12.024  28.644  1.00  0.00    -0.266 OA
ENDBRANCH  29  30
ENDBRANCH   9  29
BRANCH   8  33
HETATM   33  O4  UNL     1      19.487  10.837  24.692  1.00  0.00    -0.384 OA
ATOM     34  H4  UNL     1      18.938  10.966  23.927  1.00  0.00     0.210 HD
ENDBRANCH   8  33
TORSDOF 8
ENDMDL