MODEL 3
REMARK VINA RESULT: -7.675392230      1.785      2.008
REMARK  4 active torsions:
REMARK  status: ('A' for Active; 'I' for Inactive)
REMARK    1  A    between atoms: C2_2  and  N1_4
REMARK    2  A    between atoms: N1_4  and  N2_6
REMARK       I    between atoms: N2_6  and  C3_8
REMARK    3  A    between atoms: C3_8  and  C4_10
REMARK    4  A    between atoms: C5_11  and  C6_12
ROOT
HETATM    1  C6  UNL     1      22.780  11.949  22.601  1.00  0.00     0.080 C
HETATM    2  C7  UNL     1      23.786  11.352  21.676  1.00  0.00     0.025 C
HETATM    3  C8  UNL     1      23.286  10.484  20.589  1.00  0.00    -0.042 C
HETATM    4  C9  UNL     1      23.427   9.023  20.990  1.00  0.00     0.015 C
HETATM    5  C10 UNL     1      24.260  10.634  19.401  1.00  0.00     0.015 C
HETATM    6  C11 UNL     1      21.940  10.840  20.060  1.00  0.00     0.012 C
HETATM    7  C12 UNL     1      22.064  12.277  19.524  1.00  0.00     0.010 C
HETATM    8  C13 UNL     1      20.824  13.012  19.910  1.00  0.00     0.039 C
HETATM    9  C14 UNL     1      19.876  11.849  20.239  1.00  0.00     0.075 C
HETATM   10  C15 UNL     1      19.571  11.217  18.910  1.00  0.00     0.047 C
HETATM   11  O2  UNL     1      18.829  12.312  20.951  1.00  0.00    -0.348 OA
HETATM   12  C16 UNL     1      17.781  11.494  21.192  1.00  0.00     0.284 C
HETATM   13  O3  UNL     1      17.477  10.480  20.280  1.00  0.00    -0.288 OA
HETATM   14  C17 UNL     1      17.098   9.677  21.333  1.00  0.00     0.270 C
HETATM   15  O4  UNL     1      16.384   8.667  21.450  1.00  0.00    -0.265 OA
HETATM   16  C18 UNL     1      17.886  10.513  22.260  1.00  0.00     0.141 C
HETATM   17  C19 UNL     1      19.174   9.904  22.587  1.00  0.00     0.021 C
HETATM   18  C20 UNL     1      20.184   9.764  21.513  1.00  0.00     0.022 C
HETATM   19  C21 UNL     1      20.857  11.003  21.066  1.00  0.00     0.056 C
HETATM   20  C22 UNL     1      21.359  11.830  22.160  1.00  0.00     0.146 C
HETATM   21  O5  UNL     1      20.565  12.505  22.799  1.00  0.00    -0.296 OA
ENDROOT
BRANCH   1  22
HETATM   22  C5  UNL     1      22.847  11.340  23.937  1.00  0.00    -0.009 C
HETATM   23  C4  UNL     1      22.924  11.940  25.084  1.00  0.00     0.072 C
BRANCH  23  24
HETATM   24  C3  UNL     1      22.971  13.331  25.403  1.00  0.00     0.259 C
HETATM   25  N2  UNL     1      24.204  13.880  25.900  1.00  0.00    -0.266 N
ATOM     26  H2  UNL     1      25.017  13.275  26.016  1.00  0.00     0.190 HD
HETATM   27  O1  UNL     1      22.015  14.109  25.283  1.00  0.00    -0.267 OA
BRANCH  25  28
HETATM   28  N1  UNL     1      24.296  15.228  26.222  1.00  0.00    -0.292 N
ATOM     29  H1  UNL     1      23.441  15.767  26.354  1.00  0.00     0.187 HD
BRANCH  28  30
HETATM   30  C2  UNL     1      25.568  15.884  26.375  1.00  0.00     0.088 C
HETATM   31  C1  UNL     1      26.820  15.167  26.650  1.00  0.00     0.083 C
HETATM   32  S1  UNL     1      25.617  17.500  26.234  1.00  0.00    -0.064 SA
ENDBRANCH  28  30
ENDBRANCH  25  28
ENDBRANCH  23  24
ENDBRANCH   1  22
TORSDOF 4
ENDMDL