MODEL 2
REMARK VINA RESULT: -7.358854438      1.774      3.254
REMARK  4 active torsions:
REMARK  status: ('A' for Active; 'I' for Inactive)
REMARK    1  A    between atoms: O1_2  and  C2_3
REMARK    2  A    between atoms: C3_5  and  C4_6
REMARK    3  A    between atoms: C4_6  and  O3_7
REMARK    4  A    between atoms: C5_9  and  O4_10
ROOT
HETATM    1  C2  UNL     1      20.284  13.308  26.282  1.00  0.00     0.266 C
HETATM    2  O2  UNL     1      21.023  12.404  26.962  1.00  0.00    -0.349 OA
HETATM    3  C3  UNL     1      22.251  12.783  27.452  1.00  0.00     0.203 C
HETATM    4  C5  UNL     1      23.038  13.679  26.573  1.00  0.00     0.288 C
HETATM    5  O5  UNL     1      22.473  14.119  25.424  1.00  0.00    -0.353 OA
HETATM    6  C6  UNL     1      21.947  13.212  24.558  1.00  0.00     0.134 C
HETATM    7  C7  UNL     1      22.609  11.877  24.494  1.00  0.00     0.033 C
HETATM    8  C8  UNL     1      22.064  11.262  23.216  1.00  0.00     0.012 C
HETATM    9  C9  UNL     1      20.571  10.944  23.376  1.00  0.00    -0.035 C
HETATM   10  C10 UNL     1      20.612   9.481  23.875  1.00  0.00     0.016 C
HETATM   11  C11 UNL     1      20.026  10.837  21.983  1.00  0.00    -0.001 C
HETATM   12  C12 UNL     1      19.708  12.107  21.288  1.00  0.00     0.011 C
HETATM   13  C13 UNL     1      18.931   9.802  21.861  1.00  0.00     0.024 C
HETATM   14  C14 UNL     1      17.750  10.118  22.654  1.00  0.00    -0.076 C
HETATM   15  C15 UNL     1      17.563  11.083  23.526  1.00  0.00    -0.023 C
HETATM   16  C16 UNL     1      18.436  12.142  23.992  1.00  0.00     0.033 C
HETATM   17  C17 UNL     1      19.854  11.772  24.339  1.00  0.00     0.009 C
HETATM   18  C18 UNL     1      20.493  13.066  24.775  1.00  0.00     0.075 C
HETATM   19  C19 UNL     1      16.532   9.237  22.474  1.00  0.00     0.072 C
HETATM   20  C20 UNL     1      16.275   9.132  20.964  1.00  0.00     0.178 C
HETATM   21  F1  UNL     1      16.043  10.397  20.470  1.00  0.00    -0.249 F
HETATM   22  C21 UNL     1      17.506   8.569  20.343  1.00  0.00     0.032 C
HETATM   23  C22 UNL     1      17.421   8.324  18.875  1.00  0.00     0.086 C
HETATM   24  C23 UNL     1      18.864   8.413  18.456  1.00  0.00     0.127 C
HETATM   25  O6  UNL     1      19.377   8.079  17.410  1.00  0.00    -0.298 OA
HETATM   26  C24 UNL     1      19.667   9.017  19.583  1.00  0.00     0.084 C
HETATM   27  C25 UNL     1      18.584   9.664  20.395  1.00  0.00     0.008 C
ENDROOT
BRANCH   3  28
HETATM   28  C4  UNL     1      22.170  13.256  28.895  1.00  0.00     0.201 C
BRANCH  28  29
HETATM   29  O3  UNL     1      21.140  12.540  29.498  1.00  0.00    -0.398 OA
ATOM     30  H3  UNL     1      21.498  12.154  30.290  1.00  0.00     0.209 HD
ENDBRANCH  28  29
ENDBRANCH   3  28
BRANCH   4  31
HETATM   31  O4  UNL     1      23.374  14.837  27.318  1.00  0.00    -0.369 OA
ATOM     32  H4  UNL     1      23.929  14.570  28.041  1.00  0.00     0.212 HD
ENDBRANCH   4  31
BRANCH   1  33
HETATM   33  O1  UNL     1      20.479  14.623  26.611  1.00  0.00    -0.366 OA
HETATM   34  C1  UNL     1      19.396  15.159  27.343  1.00  0.00     0.204 C
ENDBRANCH   1  33
TORSDOF 4
ENDMDL