MODEL 5
REMARK VINA RESULT: -5.122078155     11.247     13.567
REMARK  6 active torsions:
REMARK  status: ('A' for Active; 'I' for Inactive)
REMARK    1  A    between atoms: N1_2  and  C3_4
REMARK    2  A    between atoms: C10_12  and  C11_13
REMARK    3  A    between atoms: C11_13  and  O2_14
REMARK    4  A    between atoms: O2_14  and  C12_15
REMARK    5  A    between atoms: C12_15  and  C13_17
REMARK    6  A    between atoms: C14_19  and  O4_20
ROOT
HETATM    1  C3  UNL     1      19.238   9.525  20.485  1.00  0.00     0.257 C
HETATM    2  C4  UNL     1      20.191  10.105  19.500  1.00  0.00     0.115 C
HETATM    3  C5  UNL     1      21.499  10.618  20.041  1.00  0.00     0.030 C
HETATM    4  C6  UNL     1      21.467  11.926  20.730  1.00  0.00     0.042 C
HETATM    5  C7  UNL     1      21.040  12.075  22.111  1.00  0.00     0.085 A
HETATM    6  C8  UNL     1      22.174  12.830  22.908  1.00  0.00     0.049 C
HETATM    7  O1  UNL     1      19.906  13.088  22.121  1.00  0.00    -0.369 OA
HETATM    8  C9  UNL     1      19.883  11.920  22.787  1.00  0.00     0.171 A
HETATM    9  C10 UNL     1      18.858  10.820  22.649  1.00  0.00     0.055 C
HETATM   10  C14 UNL     1      17.670  11.169  23.596  1.00  0.00     0.071 C
HETATM   11  C15 UNL     1      16.844  10.089  24.127  1.00  0.00     0.040 C
HETATM   12  C16 UNL     1      15.554   9.782  23.343  1.00  0.00     0.012 C
HETATM   13  C17 UNL     1      15.890  10.472  21.987  1.00  0.00    -0.043 C
HETATM   14  C18 UNL     1      14.628  10.154  21.152  1.00  0.00     0.015 C
HETATM   15  C19 UNL     1      15.801  11.892  22.320  1.00  0.00     0.012 C
HETATM   16  C20 UNL     1      16.876  12.364  23.257  1.00  0.00     0.040 C
HETATM   17  C21 UNL     1      17.063   9.738  21.546  1.00  0.00     0.026 C
HETATM   18  C22 UNL     1      18.386  10.488  21.268  1.00  0.00     0.027 C
HETATM   19  C23 UNL     1      17.969  11.616  20.390  1.00  0.00     0.003 C
HETATM   20  C24 UNL     1      18.629  11.898  19.082  1.00  0.00     0.080 C
HETATM   21  N2  UNL     1      19.678  11.095  18.646  1.00  0.00    -0.392 N
ATOM     22  H2  UNL     1      20.071  11.224  17.714  1.00  0.00     0.159 HD
ENDROOT
BRANCH   9  23
HETATM   23  C11 UNL     1      19.437   9.723  23.498  1.00  0.00     0.195 C
BRANCH  23  24
HETATM   24  O2  UNL     1      20.820   9.463  23.390  1.00  0.00    -0.320 OA
BRANCH  24  25
HETATM   25  C12 UNL     1      21.631   9.756  24.444  1.00  0.00     0.272 C
HETATM   26  O3  UNL     1      21.143  10.076  25.563  1.00  0.00    -0.264 OA
BRANCH  25  27
HETATM   27  C13 UNL     1      23.127   9.710  24.320  1.00  0.00     0.225 C
HETATM   28 CL1  UNL     1      23.661   9.606  22.649  1.00  0.00    -0.120 Cl
ENDBRANCH  25  27
ENDBRANCH  24  25
ENDBRANCH  23  24
ENDBRANCH   9  23
BRANCH  10  29
HETATM   29  O4  UNL     1      18.370  11.581  24.784  1.00  0.00    -0.389 OA
ATOM     30  H4  UNL     1      17.837  12.314  25.068  1.00  0.00     0.210 HD
ENDBRANCH  10  29
BRANCH   1  31
HETATM   31  N1  UNL     1      18.586   8.358  19.937  1.00  0.00     0.087 N
HETATM   32  C1  UNL     1      19.560   7.622  19.069  1.00  0.00     0.310 C
HETATM   33  C2  UNL     1      17.534   8.611  18.967  1.00  0.00     0.310 C
ENDBRANCH   1  31
TORSDOF 6
ENDMDL