MODEL 4
REMARK VINA RESULT: -7.999103797      7.640      9.722
REMARK  5 active torsions:
REMARK  status: ('A' for Active; 'I' for Inactive)
REMARK    1  A    between atoms: C2_2  and  O2_4
REMARK    2  A    between atoms: O2_4  and  C3_5
REMARK    3  A    between atoms: C3_5  and  C4_6
REMARK    4  A    between atoms: C15_17  and  O3_18
REMARK    5  A    between atoms: C20_27  and  C22_29
ROOT
HETATM    1  C4  UNL     1      25.243  10.772  19.350  1.00  0.00     0.009 C
HETATM    2  C5  UNL     1      24.620  10.670  17.961  1.00  0.00     0.020 C
HETATM    3  C6  UNL     1      25.541  12.252  19.575  1.00  0.00     0.052 C
HETATM    4  C7  UNL     1      26.833  12.401  18.831  1.00  0.00     0.067 C
HETATM    5  C8  UNL     1      26.542  13.356  17.660  1.00  0.00     0.039 C
HETATM    6  C9  UNL     1      26.961  14.667  18.296  1.00  0.00     0.010 C
HETATM    7  C10 UNL     1      28.333  14.235  18.847  1.00  0.00     0.018 C
HETATM    8  C11 UNL     1      27.955  12.991  19.601  1.00  0.00     0.042 C
HETATM    9  C12 UNL     1      29.175  12.130  19.729  1.00  0.00     0.030 C
HETATM   10  C13 UNL     1      30.157  12.323  18.568  1.00  0.00     0.024 C
HETATM   11  C14 UNL     1      28.942  10.665  19.853  1.00  0.00     0.052 C
HETATM   12  C15 UNL     1      27.552  10.315  20.356  1.00  0.00     0.149 C
HETATM   13  C16 UNL     1      26.646  10.250  19.202  1.00  0.00     0.161 C
HETATM   14  O4  UNL     1      27.145  11.176  18.242  1.00  0.00    -0.371 OA
HETATM   15  C17 UNL     1      29.905  12.606  20.944  1.00  0.00     0.159 C
HETATM   16  O5  UNL     1      30.347  11.736  21.738  1.00  0.00    -0.292 OA
HETATM   17  C18 UNL     1      30.174  13.972  21.330  1.00  0.00     0.071 C
HETATM   18  C19 UNL     1      29.718  15.058  20.773  1.00  0.00     0.034 C
HETATM   19 CL1  UNL     1      30.310  16.525  21.580  1.00  0.00    -0.087 Cl
HETATM   20  C20 UNL     1      28.838  15.362  19.647  1.00  0.00     0.087 C
HETATM   21  C21 UNL     1      27.682  16.195  20.196  1.00  0.00     0.033 C
ENDROOT
BRANCH   1  22
HETATM   22  C3  UNL     1      24.427  10.171  20.406  1.00  0.00     0.190 C
BRANCH  22  23
HETATM   23  O2  UNL     1      24.271  10.790  21.603  1.00  0.00    -0.321 OA
BRANCH  23  24
HETATM   24  C2  UNL     1      23.290  11.041  22.468  1.00  0.00     0.254 C
HETATM   25  C1  UNL     1      22.790  10.048  23.496  1.00  0.00     0.126 C
HETATM   26  O1  UNL     1      22.714  12.137  22.479  1.00  0.00    -0.266 OA
ENDBRANCH  23  24
ENDBRANCH  22  23
ENDBRANCH   1  22
BRANCH  12  27
HETATM   27  O3  UNL     1      27.203  11.062  21.443  1.00  0.00    -0.393 OA
ATOM     28  H3  UNL     1      27.862  11.715  21.648  1.00  0.00     0.210 HD
ENDBRANCH  12  27
BRANCH  20  29
HETATM   29  C22 UNL     1      29.587  16.279  18.739  1.00  0.00     0.187 C
HETATM   30  O6  UNL     1      30.639  15.906  18.158  1.00  0.00    -0.647 OA
HETATM   31  O7  UNL     1      29.174  17.584  18.483  1.00  0.00    -0.647 OA
ENDBRANCH  20  29
TORSDOF 5
ENDMDL