MODEL 3
REMARK VINA RESULT: -7.444435450      2.119      4.701
REMARK  6 active torsions:
REMARK  status: ('A' for Active; 'I' for Inactive)
REMARK    1  A    between atoms: C3_3  and  O1_4
REMARK    2  A    between atoms: O1_4  and  N1_5
REMARK    3  A    between atoms: C4_7  and  O2_8
REMARK    4  A    between atoms: C4_7  and  C5_10
REMARK    5  A    between atoms: C15_21  and  O4_23
REMARK    6  A    between atoms: C21_30  and  O5_31
ROOT
HETATM    1  C1  UNL     1      22.467  11.556  20.017  1.00  0.00     0.014 C
HETATM    2  C2  UNL     1      23.082  10.698  20.600  1.00  0.00    -0.089 C
HETATM    3  C3  UNL     1      23.802   9.672  21.317  1.00  0.00     0.294 C
ENDROOT
BRANCH   3   4
HETATM    4  O1  UNL     1      23.461   9.682  22.711  1.00  0.00    -0.267 OA
BRANCH   4   5
HETATM    5  N1  UNL     1      22.375  10.359  23.171  1.00  0.00    -0.247 N
HETATM    6  C4  UNL     1      21.735  10.073  24.225  1.00  0.00     0.145 C
ATOM      7  H1  UNL     1      22.052  11.158  22.625  1.00  0.00     0.196 HD
BRANCH   6   8
HETATM    8  O2  UNL     1      22.262   8.967  24.890  1.00  0.00    -0.348 OA
ATOM      9  H2  UNL     1      23.072   8.659  24.503  1.00  0.00     0.219 HD
ENDBRANCH   6   8
BRANCH   6  10
HETATM   10  C5  UNL     1      20.580  10.686  24.839  1.00  0.00     0.107 C
HETATM   11  C6  UNL     1      19.549  10.862  23.770  1.00  0.00    -0.050 C
HETATM   12  C7  UNL     1      19.502  10.743  22.453  1.00  0.00    -0.014 C
HETATM   13  C10 UNL     1      18.200  11.255  24.256  1.00  0.00     0.065 C
HETATM   14  C8  UNL     1      18.144  11.066  21.945  1.00  0.00     0.107 C
HETATM   15  C9  UNL     1      17.665  11.945  23.058  1.00  0.00     0.147 C
HETATM   16  O3  UNL     1      17.015  12.935  22.879  1.00  0.00    -0.296 OA
HETATM   17  C11 UNL     1      17.426   9.913  24.281  1.00  0.00     0.033 C
HETATM   18  C12 UNL     1      18.150  11.969  25.536  1.00  0.00    -0.055 C
HETATM   19  C13 UNL     1      17.221  13.192  25.536  1.00  0.00     0.039 C
HETATM   20  C24 UNL     1      19.414  12.240  26.257  1.00  0.00    -0.037 C
HETATM   21  C14 UNL     1      16.961  13.444  27.034  1.00  0.00     0.044 C
HETATM   22  C15 UNL     1      18.238  14.122  27.506  1.00  0.00     0.080 C
HETATM   23  C16 UNL     1      18.053  14.436  28.974  1.00  0.00     0.048 C
HETATM   24  C17 UNL     1      19.470  13.421  27.145  1.00  0.00     0.095 C
HETATM   25 CL1  UNL     1      20.557  14.736  26.531  1.00  0.00    -0.111 Cl
HETATM   26  C18 UNL     1      20.299  12.965  28.364  1.00  0.00     0.015 C
HETATM   27  C19 UNL     1      19.710  11.766  29.046  1.00  0.00     0.012 C
HETATM   28  C20 UNL     1      21.648  12.700  27.796  1.00  0.00     0.039 C
HETATM   29  C21 UNL     1      21.823  12.087  26.495  1.00  0.00     0.132 C
HETATM   30  C22 UNL     1      20.727  12.061  25.464  1.00  0.00     0.022 C
HETATM   31  C23 UNL     1      20.921  13.029  24.358  1.00  0.00     0.024 C
BRANCH  22  32
HETATM   32  O4  UNL     1      18.102  15.404  26.896  1.00  0.00    -0.388 OA
ATOM     33  H4  UNL     1      18.433  15.222  26.024  1.00  0.00     0.210 HD
ENDBRANCH  22  32
BRANCH  29  34
HETATM   34  O5  UNL     1      22.907  12.786  25.893  1.00  0.00    -0.394 OA
ATOM     35  H5  UNL     1      23.481  12.112  25.551  1.00  0.00     0.210 HD
ENDBRANCH  29  34
ENDBRANCH   6  10
ENDBRANCH   4   5
ENDBRANCH   3   4
TORSDOF 6
ENDMDL