MODEL 5
REMARK VINA RESULT: -7.847294818      1.281      1.490
REMARK  6 active torsions:
REMARK  status: ('A' for Active; 'I' for Inactive)
REMARK    1  A    between atoms: C2_2  and  S1_3
REMARK    2  A    between atoms: S1_3  and  N1_6
REMARK    3  A    between atoms: N1_6  and  C3_8
REMARK    4  A    between atoms: C7_13  and  O3_14
REMARK       I    between atoms: N3_20  and  C11_21
REMARK    5  A    between atoms: C11_21  and  O5_23
REMARK    6  A    between atoms: O5_23  and  C12_24
ROOT
HETATM    1  C3  UNL     1      20.632  10.381  20.605  1.00  0.00     0.038 C
HETATM    2  C4  UNL     1      19.794   9.425  19.834  1.00  0.00     0.018 A
HETATM    3  C5  UNL     1      19.797   8.315  19.080  1.00  0.00     0.107 A
HETATM    4  N2  UNL     1      18.511   7.918  18.823  1.00  0.00    -0.341 N
HETATM    5  C6  UNL     1      18.109   6.757  18.043  1.00  0.00     0.158 C
HETATM    6  C7  UNL     1      17.635   8.747  19.390  1.00  0.00     0.153 A
HETATM    7  C8  UNL     1      18.369   9.652  19.992  1.00  0.00     0.038 A
HETATM    8  C9  UNL     1      18.159  10.787  20.857  1.00  0.00     0.001 C
HETATM    9  C10 UNL     1      17.435  10.571  21.912  1.00  0.00     0.117 C
HETATM   10 CL1  UNL     1      16.596   9.249  22.509  1.00  0.00    -0.064 Cl
HETATM   11  N3  UNL     1      18.085  11.516  22.886  1.00  0.00    -0.282 N
HETATM   12  C11 UNL     1      17.327  12.149  23.840  1.00  0.00     0.368 C
HETATM   13  O4  UNL     1      16.058  11.944  23.920  1.00  0.00    -0.238 OA
HETATM   14  C16 UNL     1      19.584  11.605  22.710  1.00  0.00     0.147 C
HETATM   15  C17 UNL     1      20.113  11.550  21.323  1.00  0.00     0.064 C
HETATM   16  C18 UNL     1      18.817  12.079  20.549  1.00  0.00     0.030 C
HETATM   17  C19 UNL     1      19.121  12.303  19.128  1.00  0.00     0.016 C
ENDROOT
BRANCH   1  18
HETATM   18  N1  UNL     1      21.664   9.801  21.366  1.00  0.00    -0.287 N
ATOM     19  H1  UNL     1      21.386   9.054  22.002  1.00  0.00     0.178 HD
BRANCH  18  20
HETATM   20  S1  UNL     1      23.233  10.177  21.354  1.00  0.00     0.230 S
HETATM   21  O1  UNL     1      24.207   9.062  21.725  1.00  0.00    -0.206 OA
HETATM   22  O2  UNL     1      23.486  11.213  22.430  1.00  0.00    -0.206 OA
BRANCH  20  23
HETATM   23  C2  UNL     1      23.930  10.900  19.888  1.00  0.00     0.159 C
HETATM   24  C1  UNL     1      25.425  10.534  19.917  1.00  0.00     0.023 C
ENDBRANCH  20  23
ENDBRANCH  18  20
ENDBRANCH   1  18
BRANCH   6  25
HETATM   25  O3  UNL     1      16.265   8.804  19.451  1.00  0.00    -0.345 OA
ATOM     26  H3  UNL     1      15.604   9.358  19.054  1.00  0.00     0.219 HD
ENDBRANCH   6  25
BRANCH  12  27
HETATM   27  O5  UNL     1      17.775  13.027  24.782  1.00  0.00    -0.294 OA
BRANCH  27  28
HETATM   28  C12 UNL     1      18.406  12.675  25.988  1.00  0.00     0.061 C
HETATM   29  C13 UNL     1      18.362  11.191  26.266  1.00  0.00     0.046 C
HETATM   30  C14 UNL     1      19.809  13.145  26.116  1.00  0.00     0.046 C
HETATM   31  C15 UNL     1      17.590  13.347  27.085  1.00  0.00     0.046 C
ENDBRANCH  27  28
ENDBRANCH  12  27
TORSDOF 6
ENDMDL