MODEL 1
REMARK VINA RESULT: -8.684691417      0.000      0.000
REMARK  6 active torsions:
REMARK  status: ('A' for Active; 'I' for Inactive)
REMARK    1  A    between atoms: C5_5  and  O1_6
REMARK    2  A    between atoms: C7_9  and  C8_10
REMARK    3  A    between atoms: C8_10  and  C22_30
REMARK    4  A    between atoms: C9_11  and  C10_12
REMARK    5  A    between atoms: C13_16  and  C14_17
REMARK    6  A    between atoms: C22_30  and  O7_31
ROOT
HETATM    1  C10 UNL     1      20.497  11.342  22.205  1.00  0.00     0.050 C
HETATM    2  C11 UNL     1      21.236  10.204  21.568  1.00  0.00     0.033 C
HETATM    3  C12 UNL     1      20.596  10.013  20.187  1.00  0.00     0.113 C
HETATM    4 CL1  UNL     1      20.465   8.271  19.886  1.00  0.00    -0.123 Cl
HETATM    5  C13 UNL     1      19.259  10.671  20.286  1.00  0.00     0.160 C
HETATM    6  C15 UNL     1      18.138   9.784  19.849  1.00  0.00     0.153 C
HETATM    7  O4  UNL     1      18.350   9.101  18.839  1.00  0.00    -0.296 OA
HETATM    8  C16 UNL     1      16.812   9.626  20.476  1.00  0.00     0.120 C
HETATM    9  C17 UNL     1      16.588  10.389  21.730  1.00  0.00     0.099 C
HETATM   10  C18 UNL     1      15.138  10.110  22.148  1.00  0.00     0.050 C
HETATM   11  C19 UNL     1      16.727  11.867  21.608  1.00  0.00     0.044 C
HETATM   12  C20 UNL     1      18.172  12.225  21.919  1.00  0.00     0.047 C
HETATM   13  C21 UNL     1      19.038  11.041  21.721  1.00  0.00     0.129 C
HETATM   14  O5  UNL     1      18.658   9.951  22.453  1.00  0.00    -0.226 OA
HETATM   15  O6  UNL     1      17.388   9.955  22.787  1.00  0.00    -0.229 OA
ENDROOT
BRANCH   1  16
HETATM   16  C9  UNL     1      20.555  11.381  23.641  1.00  0.00    -0.009 C
HETATM   17  C8  UNL     1      21.418  11.148  24.537  1.00  0.00    -0.031 C
BRANCH  17  18
HETATM   18  C7  UNL     1      20.928  11.348  25.994  1.00  0.00    -0.041 C
HETATM   19  C6  UNL     1      20.637  10.406  27.065  1.00  0.00     0.082 C
HETATM   20  C5  UNL     1      20.605  11.526  27.943  1.00  0.00     0.086 C
HETATM   21  C4  UNL     1      19.345  12.038  28.613  1.00  0.00     0.043 C
HETATM   22  C23 UNL     1      20.646  12.363  26.696  1.00  0.00    -0.035 C
HETATM   23  C3  UNL     1      19.384  13.536  28.371  1.00  0.00     0.012 C
HETATM   24  C2  UNL     1      20.386  13.743  27.252  1.00  0.00     0.014 C
HETATM   25  C1  UNL     1      21.646  14.331  27.791  1.00  0.00     0.015 C
BRANCH  20  26
HETATM   26  O1  UNL     1      21.754  11.701  28.737  1.00  0.00    -0.385 OA
ATOM     27  H1  UNL     1      22.555  11.468  28.282  1.00  0.00     0.211 HD
ENDBRANCH  20  26
ENDBRANCH  17  18
BRANCH  17  28
HETATM   28  C22 UNL     1      22.817  10.792  24.492  1.00  0.00     0.203 C
BRANCH  28  29
HETATM   29  O7  UNL     1      22.930   9.366  24.653  1.00  0.00    -0.396 OA
ATOM     30  H7  UNL     1      23.848   9.128  24.591  1.00  0.00     0.209 HD
ENDBRANCH  28  29
ENDBRANCH  17  28
ENDBRANCH   1  16
BRANCH   5  31
HETATM   31  C14 UNL     1      19.180  11.863  19.378  1.00  0.00     0.194 C
HETATM   32  O2  UNL     1      18.269  11.993  18.531  1.00  0.00    -0.647 OA
HETATM   33  O3  UNL     1      20.139  12.839  19.479  1.00  0.00    -0.647 OA
ENDBRANCH   5  31
TORSDOF 6
ENDMDL