MODEL 1
REMARK VINA RESULT: -8.095857122      0.000      0.000
REMARK  6 active torsions:
REMARK  status: ('A' for Active; 'I' for Inactive)
REMARK    1  A    between atoms: C3_4  and  N2_5
REMARK    2  A    between atoms: N2_5  and  O1_6
REMARK    3  A    between atoms: N2_5  and  C4_8
REMARK    4  A    between atoms: C4_8  and  C5_9
REMARK    5  A    between atoms: C13_17  and  O2_19
REMARK    6  A    between atoms: C23_30  and  O3_31
ROOT
HETATM    1  C5  UNL     1      19.859  11.811  25.302  1.00  0.00     0.030 C
HETATM    2  C6  UNL     1      19.650  10.836  26.431  1.00  0.00     0.019 C
HETATM    3  C7  UNL     1      20.480  11.047  27.646  1.00  0.00     0.014 C
HETATM    4  C8  UNL     1      20.083  12.362  28.273  1.00  0.00    -0.009 C
HETATM    5  C9  UNL     1      18.792  12.135  29.066  1.00  0.00     0.018 C
HETATM    6  C10 UNL     1      19.824  13.416  27.246  1.00  0.00     0.002 C
HETATM    7  C11 UNL     1      20.406  14.642  27.884  1.00  0.00     0.009 C
HETATM    8  C12 UNL     1      21.503  14.232  28.819  1.00  0.00     0.038 C
HETATM    9  C13 UNL     1      21.114  12.839  29.232  1.00  0.00     0.062 C
HETATM   10  C14 UNL     1      20.599  12.916  30.662  1.00  0.00     0.046 C
HETATM   11  C15 UNL     1      20.392  13.149  25.897  1.00  0.00     0.007 C
HETATM   12  C16 UNL     1      21.857  13.330  25.784  1.00  0.00     0.007 C
HETATM   13  C17 UNL     1      22.331  13.278  24.366  1.00  0.00     0.008 C
HETATM   14  C18 UNL     1      21.353  12.476  23.489  1.00  0.00     0.026 C
HETATM   15  C19 UNL     1      22.112  12.120  22.263  1.00  0.00     0.058 C
HETATM   16  C20 UNL     1      22.581  10.713  22.246  1.00  0.00     0.008 C
HETATM   17 CL1  UNL     1      24.085  10.320  21.444  1.00  0.00    -0.089 Cl
HETATM   18  C21 UNL     1      21.889   9.768  22.819  1.00  0.00    -0.004 C
HETATM   19  C22 UNL     1      20.591  10.139  23.503  1.00  0.00     0.068 C
HETATM   20  C23 UNL     1      20.888  11.318  24.339  1.00  0.00     0.078 C
ENDROOT
BRANCH   1  21
HETATM   21  C4  UNL     1      18.538  12.208  24.701  1.00  0.00     0.111 C
BRANCH  21  22
HETATM   22  N2  UNL     1      17.340  11.742  25.260  1.00  0.00    -0.220 N
BRANCH  22  23
HETATM   23  C3  UNL     1      16.721  10.566  24.746  1.00  0.00     0.165 A
HETATM   24  C2  UNL     1      16.340  10.294  23.427  1.00  0.00     0.163 A
HETATM   25  N1  UNL     1      15.792   9.075  23.376  1.00  0.00    -0.290 N
HETATM   26  C1  UNL     1      15.277   8.431  22.207  1.00  0.00     0.178 C
HETATM   27  N4  UNL     1      15.821   8.594  24.595  1.00  0.00    -0.240 N
HETATM   28  N3  UNL     1      16.366   9.458  25.427  1.00  0.00    -0.268 N
ATOM     29  H4  UNL     1      15.469   7.675  24.863  1.00  0.00     0.208 HD
ATOM     30  H3  UNL     1      16.499   9.310  26.427  1.00  0.00     0.190 HD
ENDBRANCH  22  23
BRANCH  22  31
HETATM   31  O1  UNL     1      16.738  12.323  26.161  1.00  0.00    -0.282 OA
ATOM     32  H1  UNL     1      17.180  13.069  26.548  1.00  0.00     0.245 HD
ENDBRANCH  22  31
ENDBRANCH  21  22
ENDBRANCH   1  21
BRANCH  20  33
HETATM   33  O3  UNL     1      22.005  10.869  25.136  1.00  0.00    -0.388 OA
ATOM     34  H3  UNL     1      22.201  11.574  25.741  1.00  0.00     0.210 HD
ENDBRANCH  20  33
BRANCH   9  35
HETATM   35  O2  UNL     1      22.253  12.025  29.289  1.00  0.00    -0.389 OA
ATOM     36  H2  UNL     1      22.943  12.369  29.843  1.00  0.00     0.210 HD
ENDBRANCH   9  35
TORSDOF 6
ENDMDL