MODEL 3
REMARK VINA RESULT: -7.852431658      2.710      4.951
REMARK  6 active torsions:
REMARK  status: ('A' for Active; 'I' for Inactive)
REMARK    1  A    between atoms: C4_4  and  O1_5
REMARK    2  A    between atoms: O1_5  and  C5_6
REMARK    3  A    between atoms: C8_10  and  O3_12
REMARK    4  A    between atoms: C11_15  and  C12_16
REMARK    5  A    between atoms: C12_16  and  C13_17
REMARK    6  A    between atoms: C17_24  and  O6_25
ROOT
HETATM    1  C1  UNL     1      23.554   9.600  20.904  1.00  0.00     0.036 C
HETATM    2  C2  UNL     1      22.125   9.762  21.183  1.00  0.00    -0.025 C
HETATM    3  C3  UNL     1      21.558  10.662  21.974  1.00  0.00    -0.046 C
HETATM    4  C4  UNL     1      20.041  10.532  22.018  1.00  0.00     0.164 C
HETATM    5  C7  UNL     1      19.477  10.082  23.307  1.00  0.00     0.075 C
HETATM    6  C8  UNL     1      18.875  11.121  24.199  1.00  0.00     0.063 C
HETATM    7  C9  UNL     1      17.906  11.957  23.402  1.00  0.00     0.046 C
HETATM    8  C10 UNL     1      19.799  12.049  24.928  1.00  0.00     0.059 C
HETATM    9  C11 UNL     1      20.125  11.549  26.343  1.00  0.00     0.134 C
HETATM   10  O4  UNL     1      21.487  11.563  26.486  1.00  0.00    -0.340 OA
HETATM   11  C16 UNL     1      22.127  12.190  25.480  1.00  0.00     0.232 C
HETATM   12 BR1  UNL     1      22.323  14.097  25.685  1.00  0.00    -0.021 Br
HETATM   13  O5  UNL     1      23.279  11.682  24.975  1.00  0.00    -0.314 OA
HETATM   14  C17 UNL     1      23.332  11.078  23.751  1.00  0.00     0.269 C
HETATM   15  C18 UNL     1      22.565  11.582  22.599  1.00  0.00     0.073 C
HETATM   16  C19 UNL     1      21.622  12.651  23.234  1.00  0.00     0.025 C
HETATM   17  C20 UNL     1      21.124  11.874  24.350  1.00  0.00     0.071 C
ENDROOT
BRANCH   4  18
HETATM   18  O1  UNL     1      19.664   9.715  20.955  1.00  0.00    -0.312 OA
BRANCH  18  19
HETATM   19  C5  UNL     1      18.693   9.989  20.033  1.00  0.00     0.255 C
HETATM   20  C6  UNL     1      17.286   9.639  20.343  1.00  0.00     0.126 C
HETATM   21  O2  UNL     1      19.002  10.520  18.962  1.00  0.00    -0.266 OA
ENDBRANCH  18  19
ENDBRANCH   4  18
BRANCH   6  22
HETATM   22  O3  UNL     1      18.122  10.441  25.159  1.00  0.00    -0.390 OA
ATOM     23  H3  UNL     1      17.771  11.098  25.748  1.00  0.00     0.210 HD
ENDBRANCH   6  22
BRANCH  14  24
HETATM   24  O6  UNL     1      23.323   9.701  23.963  1.00  0.00    -0.370 OA
ATOM     25  H6  UNL     1      23.411   9.280  23.116  1.00  0.00     0.212 HD
ENDBRANCH  14  24
BRANCH   9  26
HETATM   26  C12 UNL     1      19.399  12.430  27.305  1.00  0.00     0.036 C
BRANCH  26  27
HETATM   27  C13 UNL     1      19.995  12.414  28.692  1.00  0.00    -0.020 C
HETATM   28  C14 UNL     1      18.886  12.201  29.732  1.00  0.00     0.009 C
HETATM   29  C15 UNL     1      20.625  13.748  29.025  1.00  0.00     0.009 C
ENDBRANCH  26  27
ENDBRANCH   9  26
TORSDOF 6
ENDMDL