MODEL 5
REMARK VINA RESULT: -7.325055219      8.268     10.863
REMARK  3 active torsions:
REMARK  status: ('A' for Active; 'I' for Inactive)
REMARK    1  A    between atoms: C3_3  and  C4_4
REMARK    2  A    between atoms: C7_9  and  C8_10
REMARK    3  A    between atoms: C11_15  and  O5_17
ROOT
HETATM    1  C1  UNL     1      22.203  12.907  27.527  1.00  0.00     0.044 C
HETATM    2  C2  UNL     1      21.006  12.644  26.661  1.00  0.00    -0.069 C
HETATM    3  C3  UNL     1      19.741  12.876  26.594  1.00  0.00    -0.042 C
HETATM    4  C9  UNL     1      19.691  12.356  25.223  1.00  0.00     0.033 C
HETATM    5  C10 UNL     1      18.659  11.378  24.818  1.00  0.00     0.048 C
HETATM    6  C11 UNL     1      18.451  11.284  23.349  1.00  0.00     0.062 C
HETATM    7  C12 UNL     1      17.392  10.222  23.134  1.00  0.00     0.046 C
HETATM    8  C13 UNL     1      19.610  11.049  22.464  1.00  0.00    -0.005 C
HETATM    9  C14 UNL     1      20.144   9.650  22.420  1.00  0.00     0.019 C
HETATM   10  C15 UNL     1      18.953  11.205  21.049  1.00  0.00     0.030 C
HETATM   11  C16 UNL     1      20.093  11.316  20.091  1.00  0.00     0.116 A
HETATM   12  C17 UNL     1      20.080  12.503  19.220  1.00  0.00     0.266 A
HETATM   13  O6  UNL     1      19.500  12.818  18.160  1.00  0.00    -0.265 OA
HETATM   14  O7  UNL     1      20.979  13.113  20.069  1.00  0.00    -0.314 OA
HETATM   15  C18 UNL     1      21.149  12.000  20.877  1.00  0.00     0.151 A
HETATM   16  C19 UNL     1      20.621  12.120  22.332  1.00  0.00     0.045 C
HETATM   17  C20 UNL     1      21.748  12.302  23.188  1.00  0.00     0.090 C
HETATM   18 CL1  UNL     1      22.017  14.088  23.401  1.00  0.00    -0.124 Cl
HETATM   19  C21 UNL     1      21.977  11.685  24.495  1.00  0.00     0.035 C
HETATM   20  C22 UNL     1      20.919  11.701  25.527  1.00  0.00    -0.012 C
HETATM   21  C23 UNL     1      20.780  10.317  26.197  1.00  0.00     0.021 C
ENDROOT
BRANCH   3  22
HETATM   22  C4  UNL     1      18.660  13.542  27.349  1.00  0.00     0.176 C
HETATM   23  O1  UNL     1      18.039  12.589  28.240  1.00  0.00    -0.310 OA
HETATM   24  C5  UNL     1      18.679  12.695  29.489  1.00  0.00     0.260 C
HETATM   25  O2  UNL     1      18.528  11.895  30.441  1.00  0.00    -0.265 OA
HETATM   26  C6  UNL     1      19.539  13.887  29.476  1.00  0.00     0.129 C
HETATM   27  C7  UNL     1      18.940  14.637  28.261  1.00  0.00     0.130 C
BRANCH  27  28
HETATM   28  C8  UNL     1      19.685  15.803  27.879  1.00  0.00     0.180 C
HETATM   29  O3  UNL     1      19.329  16.508  26.900  1.00  0.00    -0.648 OA
HETATM   30  O4  UNL     1      20.819  16.194  28.567  1.00  0.00    -0.648 OA
ENDBRANCH  27  28
ENDBRANCH   3  22
BRANCH   6  31
HETATM   31  O5  UNL     1      17.840  12.495  22.937  1.00  0.00    -0.389 OA
ATOM     32  H5  UNL     1      18.487  13.183  23.040  1.00  0.00     0.210 HD
ENDBRANCH   6  31
TORSDOF 3
ENDMDL