MODEL 3
REMARK VINA RESULT: -6.095847450      2.230      3.074
REMARK  5 active torsions:
REMARK  status: ('A' for Active; 'I' for Inactive)
REMARK    1  A    between atoms: C5_7  and  N2_8
REMARK    2  A    between atoms: N2_8  and  C6_10
REMARK    3  A    between atoms: C6_10  and  C7_11
REMARK    4  A    between atoms: C7_11  and  O1_12
REMARK    5  A    between atoms: N4_16  and  C8_17
ROOT
HETATM    1  C1  UNL     1     -27.350 -13.290  12.464  1.00  0.00     0.041 C
HETATM    2  C2  UNL     1     -28.325 -14.355  11.957  1.00  0.00     0.058 C
HETATM    3  C3  UNL     1     -29.738 -13.908  12.258  1.00  0.00     0.041 C
HETATM    4  C4  UNL     1     -28.178 -14.339  10.449  1.00  0.00     0.170 C
HETATM    5  N1  UNL     1     -28.661 -15.529   9.828  1.00  0.00    -0.223 N
ATOM      6  H1  UNL     1     -29.245 -15.486   8.993  1.00  0.00     0.177 HD
HETATM    7  C5  UNL     1     -28.303 -16.774  10.407  1.00  0.00     0.688 C
HETATM    8  N3  UNL     1     -28.019 -16.764  11.658  1.00  0.00    -0.134 N
ATOM      9  H3  UNL     1     -27.763 -17.658  12.078  1.00  0.00     0.205 HD
HETATM   10  N4  UNL     1     -28.028 -15.652  12.501  1.00  0.00    -0.298 N
ENDROOT
BRANCH   7  11
HETATM   11  N2  UNL     1     -28.266 -17.976   9.623  1.00  0.00    -0.223 N
ATOM     12  H2  UNL     1     -27.370 -18.440   9.476  1.00  0.00     0.177 HD
BRANCH  11  13
HETATM   13  C6  UNL     1     -29.450 -18.550   9.036  1.00  0.00     0.164 C
BRANCH  13  14
HETATM   14  C7  UNL     1     -30.412 -18.862  10.182  1.00  0.00     0.184 C
BRANCH  14  15
HETATM   15  O1  UNL     1     -31.714 -19.068   9.698  1.00  0.00    -0.399 OA
ATOM     16  H1  UNL     1     -31.696 -19.388   8.804  1.00  0.00     0.209 HD
ENDBRANCH  14  15
ENDBRANCH  13  14
ENDBRANCH  11  13
ENDBRANCH   7  11
BRANCH  10  17
HETATM   17  C8  UNL     1     -27.731 -15.908  13.876  1.00  0.00     0.104 C
HETATM   18  C9  UNL     1     -28.800 -16.654  14.620  1.00  0.00     0.027 C
HETATM   19  C10 UNL     1     -28.166 -17.070  15.959  1.00  0.00     0.002 C
HETATM   20  C11 UNL     1     -27.230 -18.239  15.759  1.00  0.00     0.000 C
HETATM   21  C12 UNL     1     -26.645 -18.110  14.369  1.00  0.00     0.002 C
HETATM   22  C13 UNL     1     -26.438 -16.636  14.095  1.00  0.00     0.027 C
ENDBRANCH  10  17
TORSDOF 5
ENDMDL