MODEL 5
REMARK VINA RESULT: -6.138471711      1.914      2.221
REMARK  5 active torsions:
REMARK  status: ('A' for Active; 'I' for Inactive)
REMARK    1  A    between atoms: C2_2  and  C3_3
REMARK    2  A    between atoms: C4_5  and  O2_6
REMARK    3  A    between atoms: O2_6  and  C5_7
REMARK    4  A    between atoms: C7_9  and  O3_10
REMARK    5  A    between atoms: C8_12  and  O4_13
ROOT
HETATM    1  C5  UNL     1     -27.349 -16.520  10.387  1.00  0.00     0.293 C
HETATM    2  C6  UNL     1     -28.283 -16.939  11.495  1.00  0.00     0.099 C
HETATM    3  C7  UNL     1     -29.625 -17.403  10.977  1.00  0.00     0.173 C
HETATM    4  C8  UNL     1     -29.372 -18.426   9.909  1.00  0.00     0.267 C
HETATM    5  N1  UNL     1     -28.431 -17.930   8.955  1.00  0.00    -0.268 N
ATOM      6  H1  UNL     1     -28.639 -17.908   7.957  1.00  0.00     0.190 HD
HETATM    7  O5  UNL     1     -27.287 -17.508   9.429  1.00  0.00    -0.250 OA
ENDROOT
BRANCH   1   8
HETATM    8  O2  UNL     1     -27.616 -15.269   9.880  1.00  0.00    -0.328 OA
BRANCH   8   9
HETATM    9  C4  UNL     1     -27.680 -14.274  10.848  1.00  0.00     0.273 C
HETATM   10  O1  UNL     1     -28.018 -13.053  10.314  1.00  0.00    -0.354 OA
HETATM   11  C3  UNL     1     -27.120 -12.419  11.171  1.00  0.00     0.137 C
HETATM   12  C9  UNL     1     -26.381 -13.716  11.311  1.00  0.00     0.029 C
HETATM   13  C10 UNL     1     -25.982 -14.059  12.729  1.00  0.00     0.022 C
HETATM   14  C11 UNL     1     -25.290 -13.922  10.300  1.00  0.00     0.022 C
BRANCH  11  15
HETATM   15  C2  UNL     1     -27.795 -11.919  12.438  1.00  0.00     0.028 C
HETATM   16  C1  UNL     1     -27.306 -10.487  12.666  1.00  0.00     0.007 C
ENDBRANCH  11  15
ENDBRANCH   8   9
ENDBRANCH   1   8
BRANCH   3  17
HETATM   17  O3  UNL     1     -30.306 -17.962  12.062  1.00  0.00    -0.391 OA
ATOM     18  H3  UNL     1     -29.740 -18.632  12.425  1.00  0.00     0.210 HD
ENDBRANCH   3  17
BRANCH   4  19
HETATM   19  O4  UNL     1     -30.566 -18.713   9.284  1.00  0.00    -0.372 OA
ATOM     20  H4  UNL     1     -31.201 -18.964   9.946  1.00  0.00     0.212 HD
ENDBRANCH   4  19
TORSDOF 5
ENDMDL