MODEL 2
REMARK VINA RESULT: -6.802276151      1.093      2.472
REMARK  7 active torsions:
REMARK  status: ('A' for Active; 'I' for Inactive)
REMARK    1  A    between atoms: C2_2  and  N2_7
REMARK    2  A    between atoms: N1_3  and  O1_5
REMARK    3  A    between atoms: N2_7  and  C3_8
REMARK    4  A    between atoms: N2_7  and  C5_12
REMARK    5  A    between atoms: C3_8  and  O2_10
REMARK    6  A    between atoms: C8_16  and  C9_17
REMARK    7  A    between atoms: C9_17  and  O4_18
ROOT
HETATM    1  C5  UNL     1     -28.882 -16.268  10.791  1.00  0.00     0.255 C
HETATM    2  O3  UNL     1     -28.519 -17.251   9.923  1.00  0.00    -0.356 OA
HETATM    3  C6  UNL     1     -29.390 -18.292   9.813  1.00  0.00     0.151 C
HETATM    4  C7  UNL     1     -30.379 -17.965   8.713  1.00  0.00     0.042 C
HETATM    5  C8  UNL     1     -30.037 -18.729  11.078  1.00  0.00     0.174 C
HETATM    6  O5  UNL     1     -30.259 -17.698  11.999  1.00  0.00    -0.372 OA
HETATM    7  C10 UNL     1     -29.106 -16.948  12.153  1.00  0.00     0.167 C
HETATM    8  C11 UNL     1     -27.930 -17.811  12.523  1.00  0.00     0.044 C
ENDROOT
BRANCH   1   9
HETATM    9  N2  UNL     1     -27.991 -15.175  10.882  1.00  0.00    -0.314 N
BRANCH   9  10
HETATM   10  C2  UNL     1     -26.566 -15.368  10.740  1.00  0.00     0.099 C
HETATM   11  C1  UNL     1     -25.616 -15.060  11.832  1.00  0.00     0.091 C
HETATM   12  N1  UNL     1     -26.116 -15.818   9.633  1.00  0.00    -0.257 N
ATOM     13  H1  UNL     1     -26.781 -16.026   8.888  1.00  0.00     0.195 HD
BRANCH  12  14
HETATM   14  O1  UNL     1     -24.795 -16.034   9.400  1.00  0.00    -0.288 OA
ATOM     15  H1  UNL     1     -24.326 -15.647   8.670  1.00  0.00     0.244 HD
ENDBRANCH  12  14
ENDBRANCH   9  10
BRANCH   9  16
HETATM   16  C3  UNL     1     -28.462 -13.834  11.119  1.00  0.00     0.219 C
HETATM   17  C4  UNL     1     -29.620 -13.813  12.098  1.00  0.00     0.063 C
BRANCH  16  18
HETATM   18  O2  UNL     1     -28.873 -13.154   9.987  1.00  0.00    -0.377 OA
ATOM     19  H2  UNL     1     -28.177 -12.932   9.380  1.00  0.00     0.212 HD
ENDBRANCH  16  18
ENDBRANCH   9  16
ENDBRANCH   1   9
BRANCH   5  20
HETATM   20  C9  UNL     1     -31.344 -19.445  10.899  1.00  0.00     0.198 C
BRANCH  20  21
HETATM   21  O4  UNL     1     -31.431 -20.594  11.683  1.00  0.00    -0.398 OA
ATOM     22  H4  UNL     1     -31.184 -21.377  11.206  1.00  0.00     0.209 HD
ENDBRANCH  20  21
ENDBRANCH   5  20
TORSDOF 7
ENDMDL