MODEL 4
REMARK VINA RESULT: -5.892633963      2.700      4.039
REMARK  4 active torsions:
REMARK  status: ('A' for Active; 'I' for Inactive)
REMARK    1  A    between atoms: C3_3  and  N1_4
REMARK    2  A    between atoms: C6_11  and  C7_12
REMARK    3  A    between atoms: C7_12  and  O1_13
REMARK    4  A    between atoms: C7_12  and  O2_15
ROOT
HETATM    1  C1  UNL     1     -30.317 -18.621  11.047  1.00  0.00     0.018 C
HETATM    2  C2  UNL     1     -29.289 -18.099  10.738  1.00  0.00    -0.072 C
HETATM    3  C3  UNL     1     -28.063 -17.450  10.356  1.00  0.00     0.162 C
ENDROOT
BRANCH   3   4
HETATM    4  N1  UNL     1     -27.768 -16.229  11.032  1.00  0.00    -0.316 N
HETATM    5  S1  UNL     1     -28.440 -14.869  10.313  1.00  0.00    -0.051 SA
HETATM    6  C4  UNL     1     -28.853 -13.467  11.308  1.00  0.00     0.131 C
HETATM    7  C5  UNL     1     -29.385 -13.889  12.624  1.00  0.00     0.204 C
HETATM    8  N2  UNL     1     -29.806 -15.262  12.633  1.00  0.00    -0.053 N
HETATM    9  C8  UNL     1     -28.333 -14.224  13.646  1.00  0.00     0.060 C
HETATM   10  C6  UNL     1     -28.573 -15.640  13.299  1.00  0.00     0.201 C
ATOM     11  H22 UNL     1     -30.704 -15.516  13.043  1.00  0.00     0.278 HD
ATOM     12  H21 UNL     1     -30.073 -15.718  11.761  1.00  0.00     0.278 HD
HETATM   13  C12 UNL     1     -27.599 -16.313  12.430  1.00  0.00     0.139 C
HETATM   14  C11 UNL     1     -26.155 -15.898  12.734  1.00  0.00     0.029 C
HETATM   15  C10 UNL     1     -26.049 -14.414  12.587  1.00  0.00     0.003 C
HETATM   16  C9  UNL     1     -26.987 -13.683  13.479  1.00  0.00     0.010 C
BRANCH  10  17
HETATM   17  C7  UNL     1     -28.851 -16.445  14.581  1.00  0.00     0.292 C
BRANCH  17  18
HETATM   18  O1  UNL     1     -29.577 -15.701  15.493  1.00  0.00    -0.369 OA
ATOM     19  H1  UNL     1     -29.082 -15.556  16.291  1.00  0.00     0.212 HD
ENDBRANCH  17  18
BRANCH  17  20
HETATM   20  O2  UNL     1     -29.424 -17.666  14.291  1.00  0.00    -0.369 OA
ATOM     21  H2  UNL     1     -30.193 -17.821  14.826  1.00  0.00     0.212 HD
ENDBRANCH  17  20
ENDBRANCH  10  17
ENDBRANCH   3   4
TORSDOF 4
ENDMDL