MODEL 2
REMARK VINA RESULT: -5.476838635      2.706      3.253
REMARK  6 active torsions:
REMARK  status: ('A' for Active; 'I' for Inactive)
REMARK    1  A    between atoms: C2_2  and  O1_3
REMARK    2  A    between atoms: C2_2  and  C5_6
REMARK    3  A    between atoms: O1_3  and  C3_4
REMARK    4  A    between atoms: C6_8  and  C7_9
REMARK    5  A    between atoms: C10_12  and  O3_14
REMARK    6  A    between atoms: C13_17  and  O4_18
ROOT
HETATM    1  C7  UNL     1     -25.585 -15.034  10.175  1.00  0.00    -0.072 C
HETATM    2  C8  UNL     1     -24.420 -15.009   9.963  1.00  0.00    -0.108 C
HETATM    3  C9  UNL     1     -22.977 -14.977   9.675  1.00  0.00     0.112 C
ENDROOT
BRANCH   1   4
HETATM    4  C6  UNL     1     -27.025 -15.079  10.418  1.00  0.00     0.235 C
HETATM    5  O2  UNL     1     -27.502 -16.391  10.425  1.00  0.00    -0.356 OA
HETATM    6  C5  UNL     1     -28.886 -16.328  10.369  1.00  0.00     0.207 C
HETATM    7  C13 UNL     1     -29.454 -15.820  11.699  1.00  0.00     0.156 C
HETATM    8  C12 UNL     1     -28.872 -14.442  11.908  1.00  0.00     0.075 C
HETATM    9  C10 UNL     1     -27.379 -14.440  11.738  1.00  0.00     0.093 C
HETATM   10  C11 UNL     1     -26.937 -12.974  11.715  1.00  0.00     0.049 C
BRANCH   6  11
HETATM   11  C2  UNL     1     -29.512 -17.625  10.075  1.00  0.00     0.068 C
HETATM   12  C1  UNL     1     -29.101 -18.326   9.043  1.00  0.00     0.049 C
BRANCH  11  13
HETATM   13  O1  UNL     1     -30.517 -18.092  10.876  1.00  0.00    -0.354 OA
BRANCH  13  14
HETATM   14  C3  UNL     1     -30.695 -19.415  11.282  1.00  0.00     0.171 C
HETATM   15  C4  UNL     1     -32.155 -19.784  11.008  1.00  0.00     0.034 C
ENDBRANCH  13  14
ENDBRANCH  11  13
ENDBRANCH   6  11
BRANCH   7  16
HETATM   16  O4  UNL     1     -29.064 -16.678  12.695  1.00  0.00    -0.392 OA
ATOM     17  H4  UNL     1     -29.675 -17.405  12.723  1.00  0.00     0.210 HD
ENDBRANCH   7  16
BRANCH   9  18
HETATM   18  O3  UNL     1     -26.712 -15.028  12.802  1.00  0.00    -0.387 OA
ATOM     19  H3  UNL     1     -27.213 -14.986  13.608  1.00  0.00     0.210 HD
ENDBRANCH   9  18
ENDBRANCH   1   4
TORSDOF 6
ENDMDL