MODEL 5
REMARK VINA RESULT: -6.631588358      1.949      2.606
REMARK  5 active torsions:
REMARK  status: ('A' for Active; 'I' for Inactive)
REMARK    1  A    between atoms: N1_1  and  C1_4
REMARK    2  A    between atoms: C3_8  and  O1_9
REMARK    3  A    between atoms: N3_11  and  C4_12
REMARK    4  A    between atoms: C4_12  and  C5_13
REMARK    5  A    between atoms: C5_13  and  N4_14
ROOT
HETATM    1  C1  UNL     1     -29.775 -18.137  11.673  1.00  0.00     0.680 A
HETATM    2  N2  UNL     1     -30.676 -18.762  10.892  1.00  0.00    -0.198 N
ATOM      3  H2  UNL     1     -31.573 -19.146  11.189  1.00  0.00     0.183 HD
HETATM    4  C2  UNL     1     -30.166 -18.784   9.637  1.00  0.00     0.162 A
HETATM    5  C3  UNL     1     -28.954 -18.171   9.666  1.00  0.00     0.174 A
HETATM    6  N3  UNL     1     -28.724 -17.775  10.932  1.00  0.00    -0.156 N
ENDROOT
BRANCH   6   7
HETATM    7  C4  UNL     1     -27.518 -17.075  11.401  1.00  0.00     0.195 C
BRANCH   7   8
HETATM    8  C5  UNL     1     -27.721 -15.622  11.180  1.00  0.00     0.089 C
BRANCH   8   9
HETATM    9  N4  UNL     1     -28.258 -14.862  12.237  1.00  0.00    -0.351 N
HETATM   10  C6  UNL     1     -29.451 -14.223  11.860  1.00  0.00     0.068 C
HETATM   11  C7  UNL     1     -29.734 -12.869  12.414  1.00  0.00     0.045 C
HETATM   12  C8  UNL     1     -30.771 -12.977  13.531  1.00  0.00     0.007 C
HETATM   13  C9  UNL     1     -30.175 -12.324  14.759  1.00  0.00     0.027 C
HETATM   14  C10 UNL     1     -29.590 -13.397  15.669  1.00  0.00     0.168 C
HETATM   15  O2  UNL     1     -29.309 -14.492  14.889  1.00  0.00    -0.386 OA
HETATM   16  C11 UNL     1     -27.992 -14.750  14.684  1.00  0.00     0.212 C
HETATM   17  C12 UNL     1     -27.486 -14.437  13.300  1.00  0.00     0.094 C
ENDBRANCH   8   9
ENDBRANCH   7   8
ENDBRANCH   6   7
BRANCH   1  18
HETATM   18  N1  UNL     1     -29.930 -17.939  12.925  1.00  0.00    -0.234 N
ATOM     19  H12 UNL     1     -30.401 -17.147  13.362  1.00  0.00     0.174 HD
ATOM     20  H11 UNL     1     -29.587 -18.570  13.649  1.00  0.00     0.174 HD
ENDBRANCH   1  18
BRANCH   5  21
HETATM   21  O1  UNL     1     -28.131 -17.999   8.572  1.00  0.00    -0.345 OA
ATOM     22  H1  UNL     1     -27.492 -17.302   8.476  1.00  0.00     0.219 HD
ENDBRANCH   5  21
TORSDOF 5
ENDMDL