MODEL 5
REMARK VINA RESULT: -6.155057867      1.438      1.985
REMARK  5 active torsions:
REMARK  status: ('A' for Active; 'I' for Inactive)
REMARK    1  A    between atoms: C2_2  and  N1_4
REMARK    2  A    between atoms: N1_4  and  C4_6
REMARK    3  A    between atoms: C5_9  and  N3_10
REMARK    4  A    between atoms: N5_16  and  C7_17
REMARK    5  A    between atoms: C7_17  and  C8_18
ROOT
HETATM    1  C4  UNL     1     -29.440 -16.638  12.063  1.00  0.00     0.696 A
HETATM    2  N2  UNL     1     -29.929 -17.889  12.276  1.00  0.00    -0.022 N
ATOM      3  H2  UNL     1     -30.111 -18.196  13.232  1.00  0.00     0.203 HD
HETATM    4  C5  UNL     1     -30.175 -18.723  11.266  1.00  0.00     0.691 A
HETATM    5  N4  UNL     1     -29.920 -18.279  10.020  1.00  0.00    -0.187 N
ATOM      6  H4  UNL     1     -30.098 -18.896   9.228  1.00  0.00     0.185 HD
HETATM    7  C6  UNL     1     -29.436 -17.044   9.791  1.00  0.00     0.218 A
HETATM    8  N5  UNL     1     -29.189 -16.201  10.818  1.00  0.00    -0.176 N
ENDROOT
BRANCH   8   9
HETATM    9  C7  UNL     1     -28.690 -14.901  10.546  1.00  0.00     0.181 C
BRANCH   9  10
HETATM   10  C8  UNL     1     -27.215 -14.738  10.494  1.00  0.00     0.204 C
HETATM   11  C9  UNL     1     -26.400 -15.970  10.360  1.00  0.00     0.035 C
HETATM   12  C10 UNL     1     -24.933 -15.523  10.254  1.00  0.00     0.004 C
HETATM   13  C11 UNL     1     -24.811 -14.032  10.081  1.00  0.00     0.027 C
HETATM   14  C12 UNL     1     -25.517 -13.253  11.145  1.00  0.00     0.233 C
HETATM   15  N6  UNL     1     -26.730 -13.905  11.597  1.00  0.00    -0.069 N
ATOM     16  H62 UNL     1     -27.432 -13.247  11.940  1.00  0.00     0.277 HD
ATOM     17  H61 UNL     1     -26.603 -14.426  12.465  1.00  0.00     0.277 HD
ENDBRANCH   9  10
ENDBRANCH   8   9
BRANCH   1  18
HETATM   18  N1  UNL     1     -29.224 -15.912  13.108  1.00  0.00    -0.221 N
ATOM     19  H1  UNL     1     -29.629 -14.976  13.112  1.00  0.00     0.178 HD
BRANCH  18  20
HETATM   20  C2  UNL     1     -28.471 -16.296  14.260  1.00  0.00     0.091 C
HETATM   21  C1  UNL     1     -28.478 -15.092  15.208  1.00  0.00     0.032 C
HETATM   22  C3  UNL     1     -27.017 -16.587  13.966  1.00  0.00     0.032 C
ENDBRANCH  18  20
ENDBRANCH   1  18
BRANCH   4  23
HETATM   23  N3  UNL     1     -30.641 -19.910  11.486  1.00  0.00    -0.234 N
ATOM     24  H32 UNL     1     -30.115 -20.605  12.017  1.00  0.00     0.174 HD
ATOM     25  H31 UNL     1     -31.556 -20.186  11.131  1.00  0.00     0.174 HD
ENDBRANCH   4  23
TORSDOF 5
ENDMDL