MODEL 2
REMARK VINA RESULT: -6.599339216      1.371      5.960
REMARK  3 active torsions:
REMARK  status: ('A' for Active; 'I' for Inactive)
REMARK    1  A    between atoms: C2_3  and  N1_4
REMARK    2  A    between atoms: N1_4  and  C3_6
REMARK    3  A    between atoms: N4_15  and  C8_16
ROOT
HETATM    1  O1  UNL     1     -28.175 -15.491  12.926  1.00  0.00    -0.262 OA
HETATM    2  C1  UNL     1     -28.351 -14.926  11.812  1.00  0.00     0.308 A
HETATM    3  C2  UNL     1     -28.285 -13.570  11.587  1.00  0.00     0.188 A
HETATM    4  N2  UNL     1     -28.530 -13.402  10.279  1.00  0.00    -0.266 N
ATOM      5  H2  UNL     1     -28.554 -12.506   9.792  1.00  0.00     0.190 HD
HETATM    6  N3  UNL     1     -28.738 -14.599   9.714  1.00  0.00    -0.235 N
ATOM      7  H3  UNL     1     -28.946 -14.760   8.729  1.00  0.00     0.208 HD
HETATM    8  N4  UNL     1     -28.633 -15.530  10.633  1.00  0.00    -0.235 N
ENDROOT
BRANCH   8   9
HETATM    9  C8  UNL     1     -28.775 -16.961  10.495  1.00  0.00     0.116 C
HETATM   10  C9  UNL     1     -29.294 -17.351   9.145  1.00  0.00     0.055 C
HETATM   11  C10 UNL     1     -29.411 -18.860   9.107  1.00  0.00     0.234 C
HETATM   12  N5  UNL     1     -30.285 -19.380  10.116  1.00  0.00    -0.075 N
HETATM   13  C11 UNL     1     -29.987 -18.933  11.446  1.00  0.00     0.234 C
ATOM     14  H52 UNL     1     -31.257 -19.178   9.882  1.00  0.00     0.277 HD
ATOM     15  H51 UNL     1     -30.305 -20.399  10.079  1.00  0.00     0.277 HD
HETATM   16  C12 UNL     1     -29.776 -17.441  11.533  1.00  0.00     0.055 C
ENDBRANCH   8   9
BRANCH   3  17
HETATM   17  N1  UNL     1     -28.020 -12.508  12.496  1.00  0.00    -0.366 N
ATOM     18  H1  UNL     1     -27.079 -12.118  12.523  1.00  0.00     0.161 HD
BRANCH  17  19
HETATM   19  C3  UNL     1     -29.001 -11.960  13.372  1.00  0.00     0.083 C
HETATM   20  C4  UNL     1     -28.717 -12.455  14.796  1.00  0.00     0.025 C
HETATM   21  C5  UNL     1     -30.101 -12.365  15.413  1.00  0.00     0.002 C
HETATM   22  C6  UNL     1     -30.941 -13.040  14.325  1.00  0.00     0.002 C
HETATM   23  C7  UNL     1     -30.362 -12.485  13.029  1.00  0.00     0.025 C
ENDBRANCH  17  19
ENDBRANCH   3  17
TORSDOF 3
ENDMDL