MODEL 5
REMARK VINA RESULT: -3.233050363      9.362     11.248
REMARK  7 active torsions:
REMARK  status: ('A' for Active; 'I' for Inactive)
REMARK    1  A    between atoms: N1_1  and  C1_4
REMARK    2  A    between atoms: C4_11  and  C5_12
REMARK    3  A    between atoms: C5_12  and  C6_13
REMARK    4  A    between atoms: C6_13  and  S1_14
REMARK    5  A    between atoms: S1_14  and  C7_15
REMARK    6  A    between atoms: C7_15  and  C8_16
REMARK    7  A    between atoms: C8_16  and  C9_17
ROOT
HETATM    1  C6  UNL     1     -25.511  -0.969 -17.156  1.00  0.00     0.078 C
ENDROOT
BRANCH   1   2
HETATM    2  C5  UNL     1     -25.988  -2.306 -16.793  1.00  0.00     0.054 C
BRANCH   2   3
HETATM    3  C4  UNL     1     -27.155  -2.449 -15.935  1.00  0.00     0.002 A
HETATM    4  C1  UNL     1     -27.165  -2.020 -14.636  1.00  0.00     0.107 A
HETATM    5  N2  UNL     1     -28.330  -2.164 -13.922  1.00  0.00    -0.339 N
HETATM    6  C2  UNL     1     -29.444  -2.694 -14.417  1.00  0.00     0.181 A
ATOM      7  H2  UNL     1     -28.341  -1.845 -12.953  1.00  0.00     0.168 HD
HETATM    8  N3  UNL     1     -29.398  -3.108 -15.704  1.00  0.00    -0.361 N
HETATM    9  C3  UNL     1     -28.328  -3.007 -16.457  1.00  0.00     0.099 A
ATOM     10  H3  UNL     1     -30.238  -3.519 -16.110  1.00  0.00     0.166 HD
BRANCH   4  11
HETATM   11  N1  UNL     1     -26.158  -1.520 -14.012  1.00  0.00    -0.385 N
ATOM     12  H12 UNL     1     -25.661  -1.968 -13.241  1.00  0.00     0.157 HD
ATOM     13  H11 UNL     1     -25.854  -0.589 -14.298  1.00  0.00     0.157 HD
ENDBRANCH   4  11
ENDBRANCH   2   3
ENDBRANCH   1   2
BRANCH   1  14
HETATM   14  S1  UNL     1     -26.767   0.264 -17.386  1.00  0.00    -0.169 SA
BRANCH  14  15
HETATM   15  C7  UNL     1     -26.499   1.723 -16.304  1.00  0.00     0.076 C
BRANCH  15  16
HETATM   16  C8  UNL     1     -27.856   2.369 -15.996  1.00  0.00     0.045 C
BRANCH  16  17
HETATM   17  C9  UNL     1     -28.731   1.251 -15.444  1.00  0.00     0.214 C
HETATM   18  C10 UNL     1     -28.596   1.131 -13.954  1.00  0.00     0.267 C
HETATM   19  N4  UNL     1     -29.904   1.566 -13.474  1.00  0.00    -0.049 N
HETATM   20  C11 UNL     1     -30.773   1.055 -14.527  1.00  0.00     0.463 C
ATOM     21  H42 UNL     1     -30.143   1.273 -12.528  1.00  0.00     0.279 HD
ATOM     22  H41 UNL     1     -29.989   2.565 -13.282  1.00  0.00     0.279 HD
HETATM   23  N5  UNL     1     -30.122   1.612 -15.717  1.00  0.00    -0.045 N
ATOM     24  H52 UNL     1     -30.296   2.600 -15.896  1.00  0.00     0.279 HD
ATOM     25  H51 UNL     1     -30.493   1.298 -16.614  1.00  0.00     0.279 HD
ENDBRANCH  16  17
ENDBRANCH  15  16
ENDBRANCH  14  15
ENDBRANCH   1  14
TORSDOF 7
ENDMDL