MODEL 1
REMARK VINA RESULT: -3.170567194      0.000      0.000
REMARK  7 active torsions:
REMARK  status: ('A' for Active; 'I' for Inactive)
REMARK    1  A    between atoms: N1_1  and  C1_4
REMARK    2  A    between atoms: C3_8  and  C4_9
REMARK    3  A    between atoms: C4_9  and  C5_10
REMARK    4  A    between atoms: C5_10  and  C6_11
REMARK    5  A    between atoms: C6_11  and  O1_12
REMARK    6  A    between atoms: O1_12  and  C7_13
REMARK    7  A    between atoms: C7_13  and  C8_14
ROOT
HETATM    1  C1  UNL     1     -30.433   0.527 -14.150  1.00  0.00     0.677 A
HETATM    2  N2  UNL     1     -29.198   0.148 -13.850  1.00  0.00    -0.202 N
ATOM      3  H2  UNL     1     -29.049  -0.507 -13.083  1.00  0.00     0.183 HD
HETATM    4  C2  UNL     1     -28.129   0.617 -14.545  1.00  0.00     0.117 A
HETATM    5  C3  UNL     1     -28.328   1.496 -15.571  1.00  0.00     0.002 A
HETATM    6  C12 UNL     1     -29.595   1.890 -15.885  1.00  0.00     0.122 A
HETATM    7  N5  UNL     1     -29.839   2.712 -16.846  1.00  0.00    -0.385 N
ATOM      8  H51 UNL     1     -30.787   3.006 -17.081  1.00  0.00     0.157 HD
ATOM      9  H52 UNL     1     -29.060   3.083 -17.389  1.00  0.00     0.157 HD
HETATM   10  N6  UNL     1     -30.642   1.391 -15.157  1.00  0.00    -0.177 N
ATOM     11  H6  UNL     1     -31.593   1.680 -15.383  1.00  0.00     0.185 HD
ENDROOT
BRANCH   5  12
HETATM   12  C4  UNL     1     -27.182   2.027 -16.324  1.00  0.00     0.046 C
BRANCH  12  13
HETATM   13  C5  UNL     1     -26.086   1.000 -16.248  1.00  0.00     0.031 C
BRANCH  13  14
HETATM   14  C6  UNL     1     -25.970   0.139 -17.488  1.00  0.00     0.168 C
BRANCH  14  15
HETATM   15  O1  UNL     1     -25.176  -0.939 -17.114  1.00  0.00    -0.385 OA
BRANCH  15  16
HETATM   16  C7  UNL     1     -25.762  -2.167 -17.232  1.00  0.00     0.226 C
BRANCH  16  17
HETATM   17  C8  UNL     1     -26.696  -2.453 -16.129  1.00  0.00     0.049 A
HETATM   18  C9  UNL     1     -28.002  -2.769 -16.431  1.00  0.00     0.030 A
HETATM   19  C10 UNL     1     -28.892  -3.042 -15.409  1.00  0.00     0.021 A
HETATM   20  C11 UNL     1     -28.490  -3.000 -14.093  1.00  0.00     0.107 A
HETATM   21  N3  UNL     1     -27.212  -2.687 -13.865  1.00  0.00    -0.312 N
HETATM   22  N4  UNL     1     -26.344  -2.422 -14.847  1.00  0.00    -0.303 N
ATOM     23  H3  UNL     1     -26.883  -2.650 -12.900  1.00  0.00     0.186 HD
ATOM     24  H4  UNL     1     -25.381  -2.188 -14.605  1.00  0.00     0.186 HD
ENDBRANCH  16  17
ENDBRANCH  15  16
ENDBRANCH  14  15
ENDBRANCH  13  14
ENDBRANCH  12  13
ENDBRANCH   5  12
BRANCH   1  25
HETATM   25  N1  UNL     1     -31.429   0.050 -13.450  1.00  0.00    -0.234 N
ATOM     26  H12 UNL     1     -31.539   0.281 -12.463  1.00  0.00     0.174 HD
ATOM     27  H11 UNL     1     -32.102  -0.565 -13.907  1.00  0.00     0.174 HD
ENDBRANCH   1  25
TORSDOF 7
ENDMDL