MODEL 1
REMARK VINA RESULT: -4.050972010      0.000      0.000
REMARK  8 active torsions:
REMARK  status: ('A' for Active; 'I' for Inactive)
REMARK    1  A    between atoms: N1_1  and  C1_4
REMARK    2  A    between atoms: C3_8  and  C4_9
REMARK    3  A    between atoms: C7_14  and  C8_15
REMARK    4  A    between atoms: C8_15  and  C9_16
REMARK    5  A    between atoms: C9_16  and  N4_17
REMARK    6  A    between atoms: N4_17  and  C10_19
REMARK    7  A    between atoms: C10_19  and  C11_20
REMARK    8  A    between atoms: C11_20  and  O1_21
ROOT
HETATM    1  C4  UNL     1     -23.969   5.768 -22.637  1.00  0.00    -0.020 A
HETATM    2  C5  UNL     1     -23.846   5.825 -21.266  1.00  0.00     0.029 A
HETATM    3  C6  UNL     1     -22.891   6.680 -20.759  1.00  0.00     0.089 A
HETATM    4  N3  UNL     1     -22.110   7.429 -21.557  1.00  0.00    -0.369 N
ATOM      5  H3  UNL     1     -21.421   8.043 -21.124  1.00  0.00     0.165 HD
HETATM    6  C7  UNL     1     -22.194   7.406 -22.905  1.00  0.00     0.011 A
HETATM    7  C12 UNL     1     -23.151   6.549 -23.433  1.00  0.00     0.037 A
ENDROOT
BRANCH   1   8
HETATM    8  C3  UNL     1     -24.971   4.869 -23.193  1.00  0.00     0.006 A
HETATM    9  C2  UNL     1     -24.876   3.506 -22.924  1.00  0.00     0.119 A
HETATM   10  N2  UNL     1     -25.766   2.652 -23.414  1.00  0.00    -0.201 N
HETATM   11  C1  UNL     1     -26.780   3.070 -24.179  1.00  0.00     0.675 A
ATOM     12  H2  UNL     1     -25.674   1.658 -23.202  1.00  0.00     0.183 HD
HETATM   13  N5  UNL     1     -26.901   4.378 -24.458  1.00  0.00    -0.201 N
HETATM   14  C13 UNL     1     -26.015   5.268 -23.976  1.00  0.00     0.119 A
ATOM     15  H5  UNL     1     -27.674   4.700 -25.041  1.00  0.00     0.183 HD
BRANCH  11  16
HETATM   16  N1  UNL     1     -27.626   2.215 -24.637  1.00  0.00    -0.234 N
ATOM     17  H12 UNL     1     -28.294   1.755 -24.018  1.00  0.00     0.174 HD
ATOM     18  H11 UNL     1     -27.630   1.991 -25.632  1.00  0.00     0.174 HD
ENDBRANCH  11  16
ENDBRANCH   1   8
BRANCH   6  19
HETATM   19  C8  UNL     1     -21.317   8.228 -23.773  1.00  0.00     0.076 C
BRANCH  19  20
HETATM   20  C9  UNL     1     -20.456   7.323 -24.631  1.00  0.00     0.124 C
BRANCH  20  21
HETATM   21  N4  UNL     1     -19.178   7.063 -24.041  1.00  0.00    -0.400 N
ATOM     22  H4  UNL     1     -18.336   7.530 -24.378  1.00  0.00     0.158 HD
BRANCH  21  23
HETATM   23  C10 UNL     1     -19.122   6.141 -22.978  1.00  0.00     0.081 C
BRANCH  23  24
HETATM   24  C11 UNL     1     -19.769   4.819 -23.162  1.00  0.00     0.208 C
BRANCH  24  25
HETATM   25  O1  UNL     1     -20.572   4.417 -22.107  1.00  0.00    -0.396 OA
ATOM     26  H1  UNL     1     -20.103   4.030 -21.378  1.00  0.00     0.209 HD
ENDBRANCH  24  25
ENDBRANCH  23  24
ENDBRANCH  21  23
ENDBRANCH  20  21
ENDBRANCH  19  20
ENDBRANCH   6  19
TORSDOF 8
ENDMDL