MODEL 2
REMARK VINA RESULT: -1.936698424      0.477      1.200
REMARK  9 active torsions:
REMARK  status: ('A' for Active; 'I' for Inactive)
REMARK    1  A    between atoms: N1_1  and  C1_5
REMARK    2  A    between atoms: C2_8  and  N3_9
REMARK    3  A    between atoms: N3_9  and  C3_11
REMARK    4  A    between atoms: C3_11  and  C4_12
REMARK    5  A    between atoms: C4_12  and  C5_13
REMARK    6  A    between atoms: C5_13  and  C6_14
REMARK    7  A    between atoms: C6_14  and  C7_15
REMARK    8  A    between atoms: C7_15  and  C8_16
REMARK    9  A    between atoms: C14_22  and  N4_23
ROOT
HETATM    1  C1  UNL     1     -30.921   0.900 -14.930  1.00  0.00     0.487 C
HETATM    2  N2  UNL     1     -30.172   1.848 -15.722  1.00  0.00    -0.327 N
ATOM      3  H2  UNL     1     -30.585   2.465 -16.421  1.00  0.00     0.164 HD
HETATM    4  C2  UNL     1     -28.931   1.815 -15.435  1.00  0.00     0.135 C
HETATM    5  C14 UNL     1     -28.752   0.792 -14.379  1.00  0.00     0.451 C
HETATM    6  N5  UNL     1     -29.926  -0.047 -14.442  1.00  0.00     0.007 N
ATOM      7  H51 UNL     1     -29.825  -0.899 -14.993  1.00  0.00     0.284 HD
ATOM      8  H52 UNL     1     -30.167  -0.528 -13.576  1.00  0.00     0.284 HD
ENDROOT
BRANCH   4   9
HETATM    9  N3  UNL     1     -27.904   2.619 -16.028  1.00  0.00    -0.377 N
ATOM     10  H3  UNL     1     -28.065   3.615 -16.177  1.00  0.00     0.160 HD
BRANCH   9  11
HETATM   11  C3  UNL     1     -26.648   2.035 -16.415  1.00  0.00     0.121 C
BRANCH  11  12
HETATM   12  C4  UNL     1     -26.894   0.737 -17.184  1.00  0.00     0.020 C
BRANCH  12  13
HETATM   13  C5  UNL     1     -25.564   0.001 -17.208  1.00  0.00     0.002 C
BRANCH  13  14
HETATM   14  C6  UNL     1     -25.720  -1.434 -17.579  1.00  0.00     0.005 C
BRANCH  14  15
HETATM   15  C7  UNL     1     -25.519  -2.340 -16.414  1.00  0.00     0.038 C
BRANCH  15  16
HETATM   16  C8  UNL     1     -26.762  -2.551 -15.671  1.00  0.00    -0.058 A
HETATM   17  C9  UNL     1     -27.896  -2.950 -16.336  1.00  0.00     0.007 A
HETATM   18  C10 UNL     1     -29.045  -3.154 -15.625  1.00  0.00     0.001 A
HETATM   19  C11 UNL     1     -29.073  -2.967 -14.278  1.00  0.00     0.000 A
HETATM   20  C12 UNL     1     -27.934  -2.564 -13.599  1.00  0.00     0.001 A
HETATM   21  C13 UNL     1     -26.780  -2.358 -14.310  1.00  0.00     0.007 A
ENDBRANCH  15  16
ENDBRANCH  14  15
ENDBRANCH  13  14
ENDBRANCH  12  13
ENDBRANCH  11  12
ENDBRANCH   9  11
ENDBRANCH   4   9
BRANCH   5  22
HETATM   22  N4  UNL     1     -28.600   1.396 -13.067  1.00  0.00    -0.043 N
ATOM     23  H43 UNL     1     -28.788   2.397 -13.094  1.00  0.00     0.277 HD
ATOM     24  H42 UNL     1     -29.350   1.110 -12.437  1.00  0.00     0.277 HD
ATOM     25  H41 UNL     1     -27.682   1.201 -12.666  1.00  0.00     0.277 HD
ENDBRANCH   5  22
BRANCH   1  26
HETATM   26  N1  UNL     1     -31.661   1.532 -13.878  1.00  0.00    -0.033 N
ATOM     27  H13 UNL     1     -32.020   2.439 -14.175  1.00  0.00     0.278 HD
ATOM     28  H12 UNL     1     -32.546   1.052 -13.712  1.00  0.00     0.278 HD
ATOM     29  H11 UNL     1     -31.120   1.614 -13.018  1.00  0.00     0.278 HD
ENDBRANCH   1  26
TORSDOF 9
ENDMDL