MODEL 2
REMARK VINA RESULT: -2.232389149      2.518      4.220
REMARK  7 active torsions:
REMARK  status: ('A' for Active; 'I' for Inactive)
REMARK    1  A    between atoms: N1_1  and  C1_4
REMARK    2  A    between atoms: N3_8  and  C3_9
REMARK    3  A    between atoms: C3_9  and  C4_10
REMARK    4  A    between atoms: C4_10  and  S1_11
REMARK    5  A    between atoms: S1_11  and  C5_12
REMARK    6  A    between atoms: C5_12  and  C6_13
REMARK    7  A    between atoms: C6_13  and  C7_14
ROOT
HETATM    1  S1  UNL     1     -30.311   1.497 -14.784  1.00  0.00    -0.167 SA
ENDROOT
BRANCH   1   2
HETATM    2  C4  UNL     1     -28.569   1.781 -15.089  1.00  0.00     0.095 C
BRANCH   2   3
HETATM    3  C3  UNL     1     -28.234   1.852 -16.566  1.00  0.00     0.160 C
BRANCH   3   4
HETATM    4  N3  UNL     1     -27.071   0.964 -16.729  1.00  0.00    -0.272 N
HETATM    5  C2  UNL     1     -25.789   1.301 -16.416  1.00  0.00     0.218 A
HETATM    6  N2  UNL     1     -24.995   0.246 -16.694  1.00  0.00    -0.185 N
HETATM    7  C1  UNL     1     -25.769  -0.739 -17.173  1.00  0.00     0.691 A
ATOM      8  H2  UNL     1     -23.984   0.205 -16.561  1.00  0.00     0.185 HD
HETATM    9  N6  UNL     1     -27.027  -0.262 -17.180  1.00  0.00    -0.129 N
ATOM     10  H6  UNL     1     -27.841  -0.789 -17.496  1.00  0.00     0.206 HD
BRANCH   7  11
HETATM   11  N1  UNL     1     -25.442  -1.923 -17.566  1.00  0.00    -0.233 N
ATOM     12  H12 UNL     1     -24.676  -2.467 -17.168  1.00  0.00     0.174 HD
ATOM     13  H11 UNL     1     -25.856  -2.502 -18.296  1.00  0.00     0.174 HD
ENDBRANCH   7  11
ENDBRANCH   3   4
ENDBRANCH   2   3
ENDBRANCH   1   2
BRANCH   1  14
HETATM   14  C5  UNL     1     -30.565  -0.017 -13.840  1.00  0.00     0.078 C
BRANCH  14  15
HETATM   15  C6  UNL     1     -30.514  -1.188 -14.813  1.00  0.00     0.052 C
BRANCH  15  16
HETATM   16  C7  UNL     1     -29.151  -1.787 -14.737  1.00  0.00    -0.014 A
HETATM   17  C8  UNL     1     -28.183  -1.195 -13.972  1.00  0.00     0.012 A
HETATM   18  C9  UNL     1     -26.929  -1.794 -13.942  1.00  0.00     0.018 A
HETATM   19  C10 UNL     1     -26.636  -2.941 -14.642  1.00  0.00     0.089 A
HETATM   20  N4  UNL     1     -27.627  -3.488 -15.385  1.00  0.00    -0.352 N
HETATM   21  C11 UNL     1     -28.857  -2.937 -15.440  1.00  0.00     0.104 A
ATOM     22  H4  UNL     1     -27.438  -4.339 -15.915  1.00  0.00     0.166 HD
HETATM   23  N5  UNL     1     -29.789  -3.491 -16.162  1.00  0.00    -0.385 N
ATOM     24  H52 UNL     1     -30.719  -3.074 -16.204  1.00  0.00     0.157 HD
ATOM     25  H51 UNL     1     -29.572  -4.342 -16.682  1.00  0.00     0.157 HD
ENDBRANCH  15  16
ENDBRANCH  14  15
ENDBRANCH   1  14
TORSDOF 7
ENDMDL