MODEL 2
REMARK VINA RESULT: -3.590600575      2.129      6.753
REMARK  8 active torsions:
REMARK  status: ('A' for Active; 'I' for Inactive)
REMARK    1  A    between atoms: C2_7  and  N3_8
REMARK    2  A    between atoms: N3_8  and  C3_10
REMARK    3  A    between atoms: C3_10  and  C4_11
REMARK    4  A    between atoms: C8_20  and  C9_21
REMARK    5  A    between atoms: C9_21  and  C10_22
REMARK    6  A    between atoms: C10_22  and  C11_23
REMARK    7  A    between atoms: C11_23  and  C12_24
REMARK    8  A    between atoms: C12_24  and  O2_25
ROOT
HETATM    1  N1  UNL     1     -23.403   6.201 -20.069  1.00  0.00    -0.385 N
ATOM      2  H11 UNL     1     -22.720   6.818 -19.631  1.00  0.00     0.157 HD
ATOM      3  H12 UNL     1     -23.941   5.524 -19.527  1.00  0.00     0.157 HD
HETATM    4  C1  UNL     1     -23.457   6.320 -21.349  1.00  0.00     0.122 A
HETATM    5  N2  UNL     1     -24.379   5.487 -21.940  1.00  0.00    -0.177 N
ATOM      6  H2  UNL     1     -24.901   4.817 -21.376  1.00  0.00     0.186 HD
HETATM    7  C2  UNL     1     -24.587   5.560 -23.259  1.00  0.00     0.679 A
HETATM    8  N5  UNL     1     -23.907   6.441 -24.015  1.00  0.00    -0.201 N
ATOM      9  H5  UNL     1     -24.077   6.489 -25.019  1.00  0.00     0.183 HD
HETATM   10  C7  UNL     1     -23.009   7.251 -23.452  1.00  0.00     0.117 A
HETATM   11  C8  UNL     1     -22.747   7.215 -22.065  1.00  0.00     0.002 A
ENDROOT
BRANCH   7  12
HETATM   12  N3  UNL     1     -25.455   4.775 -23.811  1.00  0.00    -0.218 N
ATOM     13  H3  UNL     1     -26.331   5.153 -24.172  1.00  0.00     0.178 HD
BRANCH  12  14
HETATM   14  C3  UNL     1     -25.180   3.379 -23.913  1.00  0.00     0.222 C
BRANCH  14  15
HETATM   15  C4  UNL     1     -26.408   2.578 -24.191  1.00  0.00     0.141 A
HETATM   16  N4  UNL     1     -27.658   3.019 -24.445  1.00  0.00    -0.347 N
HETATM   17  C5  UNL     1     -28.441   1.945 -24.636  1.00  0.00     0.114 A
ATOM     18  H4  UNL     1     -27.955   3.994 -24.484  1.00  0.00     0.167 HD
HETATM   19  C6  UNL     1     -27.598   0.844 -24.485  1.00  0.00     0.161 A
HETATM   20  O1  UNL     1     -26.380   1.261 -24.218  1.00  0.00    -0.307 OA
ENDBRANCH  14  15
ENDBRANCH  12  14
ENDBRANCH   7  12
BRANCH  11  21
HETATM   21  C9  UNL     1     -21.660   8.075 -21.564  1.00  0.00     0.044 C
BRANCH  21  22
HETATM   22  C10 UNL     1     -20.484   8.230 -22.452  1.00  0.00     0.007 C
BRANCH  22  23
HETATM   23  C11 UNL     1     -19.512   7.159 -22.635  1.00  0.00     0.026 C
BRANCH  23  24
HETATM   24  C12 UNL     1     -19.419   6.090 -21.607  1.00  0.00     0.164 C
BRANCH  24  25
HETATM   25  O2  UNL     1     -20.169   4.957 -22.006  1.00  0.00    -0.401 OA
ATOM     26  H2  UNL     1     -20.910   4.831 -21.425  1.00  0.00     0.209 HD
ENDBRANCH  24  25
ENDBRANCH  23  24
ENDBRANCH  22  23
ENDBRANCH  21  22
ENDBRANCH  11  21
TORSDOF 8
ENDMDL