MODEL 3
REMARK VINA RESULT: -2.157445080      9.754     12.238
REMARK  9 active torsions:
REMARK  status: ('A' for Active; 'I' for Inactive)
REMARK    1  A    between atoms: N1_1  and  C1_4
REMARK    2  A    between atoms: C4_11  and  N4_12
REMARK    3  A    between atoms: N4_12  and  C5_14
REMARK    4  A    between atoms: C5_14  and  C6_15
REMARK    5  A    between atoms: C6_15  and  C7_16
REMARK    6  A    between atoms: C7_16  and  C8_17
REMARK    7  A    between atoms: C8_17  and  C9_18
REMARK    8  A    between atoms: C9_18  and  C10_19
REMARK    9  A    between atoms: C10_19  and  O1_20
ROOT
HETATM    1  C1  UNL     1     -25.860  -2.050 -16.337  1.00  0.00     0.129 A
HETATM    2  N2  UNL     1     -25.963  -2.884 -15.289  1.00  0.00    -0.337 N
ATOM      3  H2  UNL     1     -25.534  -3.808 -15.333  1.00  0.00     0.168 HD
HETATM    4  C2  UNL     1     -26.630  -2.507 -14.181  1.00  0.00     0.182 A
HETATM    5  N3  UNL     1     -27.204  -1.290 -14.103  1.00  0.00    -0.347 N
ATOM      6  H3  UNL     1     -27.706  -1.015 -13.260  1.00  0.00     0.167 HD
HETATM    7  C3  UNL     1     -27.113  -0.440 -15.139  1.00  0.00     0.108 A
HETATM    8  C4  UNL     1     -27.709   0.813 -15.049  1.00  0.00     0.131 A
HETATM    9  N5  UNL     1     -27.585   1.620 -16.117  1.00  0.00    -0.337 N
ATOM     10  H5  UNL     1     -28.013   2.545 -16.076  1.00  0.00     0.168 HD
HETATM   11  C11 UNL     1     -26.926   1.272 -17.238  1.00  0.00     0.182 A
HETATM   12  N6  UNL     1     -26.346   0.062 -17.337  1.00  0.00    -0.347 N
ATOM     13  H6  UNL     1     -25.846  -0.205 -18.186  1.00  0.00     0.167 HD
HETATM   14  C12 UNL     1     -26.436  -0.804 -16.286  1.00  0.00     0.108 A
ENDROOT
BRANCH   8  15
HETATM   15  N4  UNL     1     -28.343   1.173 -13.997  1.00  0.00    -0.374 N
ATOM     16  H4  UNL     1     -27.947   0.980 -13.077  1.00  0.00     0.161 HD
BRANCH  15  17
HETATM   17  C5  UNL     1     -29.604   1.846 -14.101  1.00  0.00     0.121 C
BRANCH  17  18
HETATM   18  C6  UNL     1     -30.658   0.943 -14.733  1.00  0.00     0.020 C
BRANCH  18  19
HETATM   19  C7  UNL     1     -31.226   0.092 -13.643  1.00  0.00     0.002 C
BRANCH  19  20
HETATM   20  C8  UNL     1     -30.800  -1.351 -13.741  1.00  0.00     0.002 C
BRANCH  20  21
HETATM   21  C9  UNL     1     -30.404  -1.661 -15.159  1.00  0.00     0.026 C
BRANCH  21  22
HETATM   22  C10 UNL     1     -29.907  -3.086 -15.280  1.00  0.00     0.164 C
BRANCH  22  23
HETATM   23  O1  UNL     1     -28.915  -3.222 -16.222  1.00  0.00    -0.401 OA
ATOM     24  H1  UNL     1     -28.558  -2.386 -16.501  1.00  0.00     0.209 HD
ENDBRANCH  22  23
ENDBRANCH  21  22
ENDBRANCH  20  21
ENDBRANCH  19  20
ENDBRANCH  18  19
ENDBRANCH  17  18
ENDBRANCH  15  17
ENDBRANCH   8  15
BRANCH   1  25
HETATM   25  N1  UNL     1     -25.225  -2.382 -17.422  1.00  0.00    -0.384 N
ATOM     26  H12 UNL     1     -24.734  -3.276 -17.432  1.00  0.00     0.157 HD
ATOM     27  H11 UNL     1     -25.208  -1.779 -18.244  1.00  0.00     0.157 HD
ENDBRANCH   1  25
TORSDOF 9
ENDMDL