MODEL 2
REMARK VINA RESULT: -2.784686869      2.213      4.613
REMARK  9 active torsions:
REMARK  status: ('A' for Active; 'I' for Inactive)
REMARK    1  A    between atoms: N1_1  and  C1_4
REMARK    2  A    between atoms: C6_15  and  N5_16
REMARK    3  A    between atoms: N5_16  and  C7_18
REMARK    4  A    between atoms: C7_18  and  C8_19
REMARK    5  A    between atoms: C8_19  and  C9_20
REMARK    6  A    between atoms: C9_20  and  C10_21
REMARK    7  A    between atoms: C10_21  and  C11_22
REMARK    8  A    between atoms: C11_22  and  C12_23
REMARK    9  A    between atoms: C12_23  and  O1_24
ROOT
HETATM    1  C1  UNL     1     -27.635   1.720 -15.963  1.00  0.00     0.677 C
HETATM    2  N2  UNL     1     -28.744   2.273 -16.444  1.00  0.00    -0.200 N
ATOM      3  H2  UNL     1     -28.629   2.849 -17.278  1.00  0.00     0.183 HD
HETATM    4  C2  UNL     1     -30.012   2.168 -15.965  1.00  0.00     0.138 C
HETATM    5  C3  UNL     1     -30.445   1.332 -14.944  1.00  0.00     0.080 A
HETATM    6  N3  UNL     1     -31.660   1.419 -14.382  1.00  0.00    -0.349 N
ATOM      7  H3  UNL     1     -32.389   2.088 -14.631  1.00  0.00     0.166 HD
HETATM    8  C4  UNL     1     -31.751   0.471 -13.435  1.00  0.00     0.181 A
HETATM    9  N4  UNL     1     -30.586  -0.198 -13.417  1.00  0.00    -0.347 N
ATOM     10  H4  UNL     1     -30.373  -0.975 -12.792  1.00  0.00     0.167 HD
HETATM   11  C5  UNL     1     -29.746   0.295 -14.331  1.00  0.00     0.106 A
HETATM   12  C6  UNL     1     -28.468  -0.142 -14.595  1.00  0.00     0.150 C
HETATM   13  N6  UNL     1     -27.521   0.622 -15.181  1.00  0.00    -0.175 N
ATOM     14  H6  UNL     1     -26.563   0.321 -15.006  1.00  0.00     0.186 HD
ENDROOT
BRANCH  12  15
HETATM   15  N5  UNL     1     -28.133  -1.291 -14.294  1.00  0.00    -0.354 N
ATOM     16  H5  UNL     1     -28.896  -1.945 -14.468  1.00  0.00     0.166 HD
BRANCH  15  17
HETATM   17  C7  UNL     1     -27.022  -1.957 -13.788  1.00  0.00     0.062 C
BRANCH  17  18
HETATM   18  C8  UNL     1     -26.367  -2.944 -14.729  1.00  0.00     0.044 C
BRANCH  18  19
HETATM   19  C9  UNL     1     -27.424  -3.345 -15.785  1.00  0.00     0.005 C
BRANCH  19  20
HETATM   20  C10 UNL     1     -27.036  -2.713 -17.075  1.00  0.00     0.002 C
BRANCH  20  21
HETATM   21  C11 UNL     1     -25.722  -2.041 -17.119  1.00  0.00     0.026 C
BRANCH  21  22
HETATM   22  C12 UNL     1     -25.684  -0.638 -17.614  1.00  0.00     0.164 C
BRANCH  22  23
HETATM   23  O1  UNL     1     -24.807   0.163 -16.914  1.00  0.00    -0.401 OA
ATOM     24  H1  UNL     1     -24.313   0.756 -17.470  1.00  0.00     0.209 HD
ENDBRANCH  22  23
ENDBRANCH  21  22
ENDBRANCH  20  21
ENDBRANCH  19  20
ENDBRANCH  18  19
ENDBRANCH  17  18
ENDBRANCH  15  17
ENDBRANCH  12  15
BRANCH   1  25
HETATM   25  N1  UNL     1     -26.530   2.322 -16.295  1.00  0.00    -0.234 N
ATOM     26  H12 UNL     1     -26.331   2.402 -17.291  1.00  0.00     0.174 HD
ATOM     27  H11 UNL     1     -25.968   2.657 -15.512  1.00  0.00     0.174 HD
ENDBRANCH   1  25
TORSDOF 9
ENDMDL