MODEL 3
REMARK VINA RESULT: -1.336702716      1.271      2.169
REMARK  8 active torsions:
REMARK  status: ('A' for Active; 'I' for Inactive)
REMARK    1  A    between atoms: N1_2  and  C2_4
REMARK    2  A    between atoms: C3_7  and  N3_8
REMARK    3  A    between atoms: N4_13  and  C6_14
REMARK    4  A    between atoms: C6_14  and  C7_15
REMARK    5  A    between atoms: C7_15  and  C8_16
REMARK    6  A    between atoms: C8_16  and  C9_17
REMARK    7  A    between atoms: C9_17  and  C10_18
REMARK    8  A    between atoms: C10_18  and  C11_19
ROOT
HETATM    1  C2  UNL     1     -28.118  -0.869 -14.167  1.00  0.00     0.681 A
HETATM    2  N2  UNL     1     -28.634   0.290 -13.710  1.00  0.00    -0.177 N
ATOM      3  H2  UNL     1     -28.040   0.935 -13.191  1.00  0.00     0.185 HD
HETATM    4  C3  UNL     1     -29.928   0.605 -13.930  1.00  0.00     0.116 A
HETATM    5  C4  UNL     1     -30.696  -0.276 -14.625  1.00  0.00     0.066 A
HETATM    6  C5  UNL     1     -30.132  -1.460 -15.082  1.00  0.00     0.112 A
HETATM    7  N4  UNL     1     -28.844  -1.761 -14.856  1.00  0.00    -0.193 N
ENDROOT
BRANCH   7   8
HETATM    8  C6  UNL     1     -28.293  -2.976 -15.332  1.00  0.00     0.147 C
BRANCH   8   9
HETATM    9  C7  UNL     1     -27.748  -2.944 -16.716  1.00  0.00     0.021 C
BRANCH   9  10
HETATM   10  C8  UNL     1     -26.313  -2.466 -16.659  1.00  0.00     0.002 C
BRANCH  10  11
HETATM   11  C9  UNL     1     -25.976  -1.421 -17.672  1.00  0.00     0.007 C
BRANCH  11  12
HETATM   12  C10 UNL     1     -25.301  -0.280 -16.898  1.00  0.00     0.076 C
BRANCH  12  13
HETATM   13  C11 UNL     1     -26.255   0.860 -16.758  1.00  0.00     0.072 C
HETATM   14  N5  UNL     1     -26.000   2.049 -16.361  1.00  0.00    -0.378 N
HETATM   15  C12 UNL     1     -27.167   2.888 -16.351  1.00  0.00     0.140 C
ATOM     16  H5  UNL     1     -25.071   2.367 -16.082  1.00  0.00     0.160 HD
HETATM   17  C13 UNL     1     -28.300   1.886 -16.476  1.00  0.00     0.140 C
HETATM   18  N6  UNL     1     -27.618   0.746 -17.063  1.00  0.00    -0.378 N
ATOM     19  H6  UNL     1     -28.052  -0.004 -17.600  1.00  0.00     0.160 HD
ENDBRANCH  12  13
ENDBRANCH  11  12
ENDBRANCH  10  11
ENDBRANCH   9  10
ENDBRANCH   8   9
ENDBRANCH   7   8
BRANCH   1  20
HETATM   20  N1  UNL     1     -26.897  -1.117 -13.932  1.00  0.00    -0.230 N
HETATM   21  C1  UNL     1     -26.396  -2.197 -13.127  1.00  0.00     0.165 C
ATOM     22  H1  UNL     1     -26.208  -0.493 -14.353  1.00  0.00     0.177 HD
ENDBRANCH   1  20
BRANCH   4  23
HETATM   23  N3  UNL     1     -30.357   1.731 -13.464  1.00  0.00    -0.385 N
ATOM     24  H32 UNL     1     -29.759   2.531 -13.262  1.00  0.00     0.157 HD
ATOM     25  H31 UNL     1     -31.358   1.819 -13.290  1.00  0.00     0.157 HD
ENDBRANCH   4  23
TORSDOF 8
ENDMDL