MODEL 5
REMARK VINA RESULT: -4.924827245      2.016      4.487
REMARK  3 active torsions:
REMARK  status: ('A' for Active; 'I' for Inactive)
REMARK    1  A    between atoms: C2_2  and  O1_3
REMARK    2  A    between atoms: O1_3  and  C3_4
REMARK    3  A    between atoms: C3_4  and  C4_5
ROOT
HETATM    1  C4  UNL     1      -8.893 -32.071  16.260  1.00  0.00     0.210 C
HETATM    2  C5  UNL     1      -7.841 -32.651  15.306  1.00  0.00     0.037 C
HETATM    3  C6  UNL     1      -7.749 -31.657  14.196  1.00  0.00     0.029 C
HETATM    4  C7  UNL     1      -8.855 -30.648  14.437  1.00  0.00     0.233 C
HETATM    5  N1  UNL     1      -9.734 -31.280  15.417  1.00  0.00    -0.069 N
ATOM      6  H11 UNL     1     -10.312 -30.614  15.931  1.00  0.00     0.277 HD
ATOM      7  H12 UNL     1     -10.498 -31.808  14.996  1.00  0.00     0.277 HD
ENDROOT
BRANCH   1   8
HETATM    8  C3  UNL     1      -9.597 -33.244  16.897  1.00  0.00     0.207 C
BRANCH   8   9
HETATM    9  O1  UNL     1      -8.867 -33.861  17.909  1.00  0.00    -0.362 OA
BRANCH   9  10
HETATM   10  C2  UNL     1      -8.663 -33.218  19.113  1.00  0.00     0.124 C
HETATM   11  C1  UNL     1      -9.542 -33.256  20.081  1.00  0.00     0.037 C
ENDBRANCH   9  10
ENDBRANCH   8   9
ENDBRANCH   1   8
TORSDOF 3
ENDMDL