MODEL 1
REMARK VINA RESULT: -6.041414532      0.000      0.000
REMARK  3 active torsions:
REMARK  status: ('A' for Active; 'I' for Inactive)
REMARK    1  A    between atoms: C3_3  and  C4_4
REMARK    2  A    between atoms: C4_4  and  C5_5
REMARK    3  A    between atoms: C5_5  and  C6_6
ROOT
HETATM    1  C1  UNL     1      -9.450 -33.271  20.130  1.00  0.00     0.012 C
HETATM    2  C2  UNL     1      -9.993 -32.462  19.412  1.00  0.00    -0.117 C
HETATM    3  C3  UNL     1     -10.650 -31.483  18.546  1.00  0.00     0.093 C
ENDROOT
BRANCH   3   4
HETATM    4  C4  UNL     1     -11.053 -32.089  17.224  1.00  0.00     0.020 C
BRANCH   4   5
HETATM    5  C5  UNL     1      -9.965 -32.909  16.609  1.00  0.00     0.079 C
BRANCH   5   6
HETATM    6  C6  UNL     1      -9.217 -32.197  15.560  1.00  0.00     0.096 A
HETATM    7  N1  UNL     1      -9.585 -31.044  14.990  1.00  0.00    -0.288 N
HETATM    8  N2  UNL     1      -8.678 -30.710  14.102  1.00  0.00    -0.295 N
ATOM      9  H1  UNL     1     -10.428 -30.513  15.210  1.00  0.00     0.188 HD
HETATM   10  C7  UNL     1      -7.705 -31.636  14.074  1.00  0.00     0.198 A
ATOM     11  H2  UNL     1      -8.708 -29.873  13.519  1.00  0.00     0.187 HD
HETATM   12  N3  UNL     1      -8.061 -32.558  14.995  1.00  0.00    -0.340 N
ATOM     13  H3  UNL     1      -7.531 -33.399  15.224  1.00  0.00     0.168 HD
ENDBRANCH   5   6
ENDBRANCH   4   5
ENDBRANCH   3   4
TORSDOF 3
ENDMDL