MODEL 5
REMARK VINA RESULT: -5.538548835      1.700      4.599
REMARK  3 active torsions:
REMARK  status: ('A' for Active; 'I' for Inactive)
REMARK    1  A    between atoms: C3_3  and  C4_4
REMARK    2  A    between atoms: C4_4  and  C5_5
REMARK    3  A    between atoms: C5_5  and  C6_6
ROOT
HETATM    1  C1  UNL     1      -8.240 -29.549  14.283  1.00  0.00     0.012 C
HETATM    2  C2  UNL     1      -8.035 -30.730  14.336  1.00  0.00    -0.117 C
HETATM    3  C3  UNL     1      -7.784 -32.174  14.418  1.00  0.00     0.093 C
ENDROOT
BRANCH   3   4
HETATM    4  C4  UNL     1      -7.725 -32.545  15.857  1.00  0.00     0.020 C
BRANCH   4   5
HETATM    5  C5  UNL     1      -8.886 -33.405  16.305  1.00  0.00     0.076 C
BRANCH   5   6
HETATM    6  C6  UNL     1      -9.300 -33.027  17.680  1.00  0.00     0.072 C
HETATM    7  N1  UNL     1     -10.244 -32.230  18.032  1.00  0.00    -0.378 N
HETATM    8  C7  UNL     1     -10.382 -32.080  19.444  1.00  0.00     0.140 C
ATOM      9  H1  UNL     1     -10.841 -31.746  17.361  1.00  0.00     0.160 HD
HETATM   10  C8  UNL     1      -9.572 -33.232  19.998  1.00  0.00     0.140 C
HETATM   11  N2  UNL     1      -8.690 -33.511  18.874  1.00  0.00    -0.378 N
ATOM     12  H2  UNL     1      -7.784 -33.976  18.932  1.00  0.00     0.160 HD
ENDBRANCH   5   6
ENDBRANCH   4   5
ENDBRANCH   3   4
TORSDOF 3
ENDMDL