MODEL 2
REMARK VINA RESULT: -5.333648070      1.025      1.158
REMARK  4 active torsions:
REMARK  status: ('A' for Active; 'I' for Inactive)
REMARK    1  A    between atoms: C2_2  and  C3_3
REMARK    2  A    between atoms: C3_3  and  O1_4
REMARK    3  A    between atoms: O1_4  and  C4_5
REMARK    4  A    between atoms: C4_5  and  C5_6
ROOT
HETATM    1  C5  UNL     1      -9.165 -32.183  15.574  1.00  0.00     0.050 A
HETATM    2  C6  UNL     1      -7.971 -32.492  14.978  1.00  0.00     0.047 A
HETATM    3  C7  UNL     1      -7.665 -31.522  14.045  1.00  0.00     0.109 A
HETATM    4  N1  UNL     1      -8.681 -30.645  14.094  1.00  0.00    -0.312 N
ATOM      5  H1  UNL     1      -8.758 -29.805  13.521  1.00  0.00     0.186 HD
HETATM    6  N2  UNL     1      -9.574 -31.037  15.002  1.00  0.00    -0.303 N
ATOM      7  H2  UNL     1     -10.437 -30.542  15.229  1.00  0.00     0.186 HD
ENDROOT
BRANCH   1   8
HETATM    8  C4  UNL     1      -9.816 -32.982  16.618  1.00  0.00     0.226 C
BRANCH   8   9
HETATM    9  O1  UNL     1      -8.879 -33.697  17.375  1.00  0.00    -0.382 OA
BRANCH   9  10
HETATM   10  C3  UNL     1      -8.552 -32.891  18.462  1.00  0.00     0.194 C
BRANCH  10  11
HETATM   11  C2  UNL     1      -8.885 -33.503  19.753  1.00  0.00    -0.011 C
HETATM   12  C1  UNL     1      -9.983 -33.232  20.442  1.00  0.00     0.009 C
ENDBRANCH  10  11
ENDBRANCH   9  10
ENDBRANCH   8   9
ENDBRANCH   1   8
TORSDOF 4
ENDMDL