MODEL 1
REMARK VINA RESULT: -5.104851478      0.000      0.000
REMARK  4 active torsions:
REMARK  status: ('A' for Active; 'I' for Inactive)
REMARK    1  A    between atoms: N1_2  and  C2_4
REMARK    2  A    between atoms: C3_5  and  C4_6
REMARK    3  A    between atoms: N2_7  and  O1_8
REMARK    4  A    between atoms: N2_7  and  C5_10
ROOT
HETATM    1  C4  UNL     1      -8.493 -32.622  16.122  1.00  0.00     0.118 C
HETATM    2  N2  UNL     1      -9.272 -31.898  15.402  1.00  0.00    -0.267 N
ENDROOT
BRANCH   1   3
HETATM    3  C3  UNL     1      -8.975 -33.398  17.263  1.00  0.00     0.036 C
HETATM    4  C2  UNL     1      -8.598 -33.104  18.493  1.00  0.00     0.088 C
BRANCH   4   5
HETATM    5  N1  UNL     1      -9.035 -33.824  19.631  1.00  0.00    -0.385 N
HETATM    6  C1  UNL     1      -9.914 -33.373  20.458  1.00  0.00     0.117 C
ATOM      7  H1  UNL     1      -8.634 -34.746  19.805  1.00  0.00     0.163 HD
ENDBRANCH   4   5
ENDBRANCH   1   3
BRANCH   2   8
HETATM    8  O1  UNL     1     -10.616 -31.874  15.745  1.00  0.00    -0.288 OA
ATOM      9  H1  UNL     1     -11.218 -31.485  15.122  1.00  0.00     0.244 HD
ENDBRANCH   2   8
BRANCH   2  10
HETATM   10  C5  UNL     1      -8.745 -31.154  14.291  1.00  0.00     0.113 A
HETATM   11  C6  UNL     1      -8.404 -29.712  14.412  1.00  0.00     0.030 A
HETATM   12  C7  UNL     1      -7.306 -30.741  14.389  1.00  0.00     0.030 A
ENDBRANCH   2  10
TORSDOF 4
ENDMDL