MODEL 3
REMARK VINA RESULT: -4.805679458      1.490      1.732
REMARK  3 active torsions:
REMARK  status: ('A' for Active; 'I' for Inactive)
REMARK    1  A    between atoms: C3_3  and  C4_4
REMARK    2  A    between atoms: C4_4  and  O1_5
REMARK    3  A    between atoms: O1_5  and  C5_6
ROOT
HETATM    1  C5  UNL     1      -8.581 -32.456  15.389  1.00  0.00     0.172 C
HETATM    2  C6  UNL     1      -7.762 -31.951  14.205  1.00  0.00     0.265 C
HETATM    3  N1  UNL     1      -8.075 -30.592  14.671  1.00  0.00    -0.070 N
ATOM      4  H11 UNL     1      -8.051 -29.793  14.037  1.00  0.00     0.277 HD
ATOM      5  H12 UNL     1      -7.444 -30.082  15.288  1.00  0.00     0.277 HD
HETATM    6  C7  UNL     1      -9.346 -31.145  15.159  1.00  0.00     0.265 C
ENDROOT
BRANCH   1   7
HETATM    7  O1  UNL     1      -7.887 -32.491  16.581  1.00  0.00    -0.382 OA
BRANCH   7   8
HETATM    8  C4  UNL     1      -8.635 -33.188  17.516  1.00  0.00     0.172 C
BRANCH   8   9
HETATM    9  C3  UNL     1      -8.751 -32.473  18.826  1.00  0.00     0.009 A
HETATM   10  C1  UNL     1      -9.441 -33.120  19.968  1.00  0.00     0.007 A
HETATM   11  C2  UNL     1     -10.151 -32.048  19.214  1.00  0.00     0.007 A
ENDBRANCH   8   9
ENDBRANCH   7   8
ENDBRANCH   1   7
TORSDOF 3
ENDMDL