MODEL 5
REMARK VINA RESULT: -5.234827736      1.573      4.845
REMARK  2 active torsions:
REMARK  status: ('A' for Active; 'I' for Inactive)
REMARK    1  A    between atoms: C2_2  and  C3_3
REMARK    2  A    between atoms: C3_3  and  N1_4
ROOT
HETATM    1  N1  UNL     1      -9.416 -32.358  17.352  1.00  0.00    -0.373 N
ATOM      2  H1  UNL     1     -10.135 -31.839  17.857  1.00  0.00     0.161 HD
HETATM    3  C4  UNL     1      -9.017 -31.986  16.189  1.00  0.00     0.103 A
HETATM    4  C5  UNL     1      -8.047 -32.671  15.492  1.00  0.00     0.065 A
HETATM    5  C6  UNL     1      -7.648 -32.237  14.247  1.00  0.00     0.092 A
HETATM    6  N2  UNL     1      -8.226 -31.142  13.743  1.00  0.00    -0.362 N
ATOM      7  H2  UNL     1      -7.950 -30.796  12.824  1.00  0.00     0.165 HD
HETATM    8  C7  UNL     1      -9.173 -30.494  14.452  1.00  0.00     0.181 A
HETATM    9  N3  UNL     1      -9.582 -30.894  15.669  1.00  0.00    -0.339 N
ATOM     10  H3  UNL     1     -10.301 -30.381  16.178  1.00  0.00     0.168 HD
ENDROOT
BRANCH   1  11
HETATM   11  C3  UNL     1      -8.806 -33.541  17.918  1.00  0.00     0.147 C
BRANCH  11  12
HETATM   12  C2  UNL     1      -8.643 -33.323  19.385  1.00  0.00    -0.018 C
HETATM   13  C1  UNL     1      -9.701 -33.247  20.149  1.00  0.00     0.008 C
ENDBRANCH  11  12
ENDBRANCH   1  11
TORSDOF 2
ENDMDL