MODEL 3
REMARK VINA RESULT: -5.660865607      1.854      2.236
REMARK  2 active torsions:
REMARK  status: ('A' for Active; 'I' for Inactive)
REMARK    1  A    between atoms: C2_2  and  C3_3
REMARK    2  A    between atoms: C3_3  and  C4_4
ROOT
HETATM    1  C4  UNL     1      -9.265 -32.649  17.421  1.00  0.00     0.109 A
HETATM    2  N1  UNL     1      -8.132 -32.093  16.933  1.00  0.00    -0.339 N
ATOM      3  H1  UNL     1      -7.634 -31.305  17.346  1.00  0.00     0.168 HD
HETATM    4  C5  UNL     1      -7.771 -32.737  15.828  1.00  0.00     0.198 A
HETATM    5  N2  UNL     1      -8.704 -33.700  15.645  1.00  0.00    -0.295 N
ATOM      6  H2  UNL     1      -8.712 -34.370  14.876  1.00  0.00     0.187 HD
HETATM    7  N3  UNL     1      -9.611 -33.640  16.619  1.00  0.00    -0.287 N
ATOM      8  H3  UNL     1     -10.424 -34.247  16.726  1.00  0.00     0.188 HD
ENDROOT
BRANCH   1   9
HETATM    9  C3  UNL     1      -9.912 -32.129  18.668  1.00  0.00     0.037 A
HETATM   10  C6  UNL     1     -10.144 -30.680  18.834  1.00  0.00     0.023 A
HETATM   11  C7  UNL     1     -11.269 -31.522  18.400  1.00  0.00     0.023 A
BRANCH   9  12
HETATM   12  C2  UNL     1      -9.757 -33.035  19.821  1.00  0.00    -0.020 C
HETATM   13  C1  UNL     1      -8.616 -33.639  20.082  1.00  0.00     0.008 C
ENDBRANCH   9  12
ENDBRANCH   1   9
TORSDOF 2
ENDMDL