MODEL 4
REMARK VINA RESULT: -4.943733033      0.897      1.114
REMARK  3 active torsions:
REMARK  status: ('A' for Active; 'I' for Inactive)
REMARK    1  A    between atoms: C2_2  and  C3_3
REMARK    2  A    between atoms: C3_3  and  O1_4
REMARK    3  A    between atoms: O1_4  and  C4_5
ROOT
HETATM    1  C4  UNL     1      -9.876 -32.374  16.094  1.00  0.00     0.158 A
HETATM    2  C5  UNL     1      -8.755 -33.190  16.009  1.00  0.00     0.076 A
HETATM    3  C6  UNL     1      -7.880 -32.560  15.148  1.00  0.00     0.111 A
HETATM    4  N1  UNL     1      -8.474 -31.413  14.747  1.00  0.00    -0.310 N
ATOM      5  H1  UNL     1      -8.064 -30.736  14.104  1.00  0.00     0.186 HD
HETATM    6  N2  UNL     1      -9.654 -31.299  15.305  1.00  0.00    -0.280 N
ATOM      7  H2  UNL     1     -10.302 -30.523  15.165  1.00  0.00     0.189 HD
ENDROOT
BRANCH   1   8
HETATM    8  O1  UNL     1     -10.999 -32.649  16.866  1.00  0.00    -0.331 OA
BRANCH   8   9
HETATM    9  C3  UNL     1     -11.420 -31.756  17.871  1.00  0.00     0.204 C
BRANCH   9  10
HETATM   10  C2  UNL     1     -10.384 -31.574  18.911  1.00  0.00    -0.011 C
HETATM   11  C1  UNL     1     -10.109 -32.549  19.749  1.00  0.00     0.009 C
ENDBRANCH   9  10
ENDBRANCH   8   9
ENDBRANCH   1   8
TORSDOF 3
ENDMDL