MODEL 3
REMARK VINA RESULT: -4.812022365      0.888      1.019
REMARK  3 active torsions:
REMARK  status: ('A' for Active; 'I' for Inactive)
REMARK    1  A    between atoms: C2_2  and  C3_3
REMARK    2  A    between atoms: C3_3  and  O1_4
REMARK    3  A    between atoms: O1_4  and  C4_5
ROOT
HETATM    1  C4  UNL     1      -9.491 -32.112  15.645  1.00  0.00     0.159 A
HETATM    2  C5  UNL     1      -8.179 -32.531  15.375  1.00  0.00     0.145 A
HETATM    3  N1  UNL     1      -7.574 -31.606  14.638  1.00  0.00    -0.358 N
ATOM      4  H1  UNL     1      -6.614 -31.651  14.297  1.00  0.00     0.166 HD
HETATM    5  C6  UNL     1      -8.431 -30.608  14.418  1.00  0.00     0.182 A
HETATM    6  N2  UNL     1      -9.585 -30.921  15.028  1.00  0.00    -0.332 N
ATOM      7  H2  UNL     1     -10.419 -30.334  15.025  1.00  0.00     0.168 HD
ENDROOT
BRANCH   1   8
HETATM    8  O1  UNL     1     -10.437 -32.801  16.382  1.00  0.00    -0.331 OA
BRANCH   8   9
HETATM    9  C3  UNL     1     -11.190 -32.113  17.349  1.00  0.00     0.204 C
BRANCH   9  10
HETATM   10  C2  UNL     1     -10.491 -31.929  18.642  1.00  0.00    -0.011 C
HETATM   11  C1  UNL     1     -10.168 -30.715  19.007  1.00  0.00     0.009 C
ENDBRANCH   9  10
ENDBRANCH   8   9
ENDBRANCH   1   8
TORSDOF 3
ENDMDL