MODEL 4
REMARK VINA RESULT: -5.753408728      0.167      1.001
REMARK  4 active torsions:
REMARK  status: ('A' for Active; 'I' for Inactive)
REMARK    1  A    between atoms: C2_2  and  N1_4
REMARK    2  A    between atoms: N1_4  and  C4_6
REMARK    3  A    between atoms: C4_6  and  S1_9
REMARK    4  A    between atoms: S1_9  and  C6_11
ROOT
HETATM    1  C4  UNL     1      -9.038 -32.384  16.432  1.00  0.00     0.250 C
HETATM    2  C5  UNL     1      -7.601 -32.173  16.883  1.00  0.00     0.092 C
HETATM    3  F1  UNL     1      -9.063 -33.585  15.749  1.00  0.00    -0.204 F
ENDROOT
BRANCH   1   4
HETATM    4  N1  UNL     1      -9.384 -31.340  15.514  1.00  0.00    -0.349 N
ATOM      5  H1  UNL     1     -10.306 -30.911  15.589  1.00  0.00     0.163 HD
BRANCH   4   6
HETATM    6  C2  UNL     1      -8.500 -30.874  14.501  1.00  0.00    -0.005 C
HETATM    7  C1  UNL     1      -8.168 -29.602  14.493  1.00  0.00     0.037 C
HETATM    8  C3  UNL     1      -7.945 -31.777  13.460  1.00  0.00     0.067 C
ENDBRANCH   4   6
ENDBRANCH   1   4
BRANCH   1   9
HETATM    9  S1  UNL     1     -10.128 -32.511  17.802  1.00  0.00     0.080 S
HETATM   10  O1  UNL     1     -11.423 -31.478  17.724  1.00  0.00    -0.252 OA
BRANCH   9  11
HETATM   11  C6  UNL     1      -9.177 -32.281  19.285  1.00  0.00     0.085 A
HETATM   12  C7  UNL     1      -9.719 -32.738  20.586  1.00  0.00     0.019 A
HETATM   13  C8  UNL     1      -8.669 -33.563  19.901  1.00  0.00     0.019 A
ENDBRANCH   9  11
ENDBRANCH   1   9
TORSDOF 4
ENDMDL