MODEL 5
REMARK VINA RESULT: -5.966349091      1.285      1.285
REMARK  3 active torsions:
REMARK  status: ('A' for Active; 'I' for Inactive)
REMARK    1  A    between atoms: S1_2  and  C2_4
REMARK    2  A    between atoms: C2_4  and  C3_5
REMARK    3  A    between atoms: C3_5  and  C4_6
ROOT
HETATM    1  C4  UNL     1      -9.021 -32.526  18.125  1.00  0.00     0.186 C
HETATM    2  C5  UNL     1      -8.674 -33.412  19.300  1.00  0.00     0.033 C
HETATM    3  C6  UNL     1      -9.437 -33.183  20.532  1.00  0.00     0.004 C
HETATM    4  C7  UNL     1     -10.271 -31.969  20.630  1.00  0.00     0.027 C
HETATM    5  C8  UNL     1     -10.445 -31.180  19.379  1.00  0.00     0.232 C
HETATM    6  N1  UNL     1     -10.324 -31.963  18.185  1.00  0.00    -0.071 N
ATOM      7  H11 UNL     1     -11.055 -32.669  18.110  1.00  0.00     0.277 HD
ATOM      8  H12 UNL     1     -10.553 -31.427  17.348  1.00  0.00     0.277 HD
ENDROOT
BRANCH   1   9
HETATM    9  C3  UNL     1      -8.722 -33.327  16.889  1.00  0.00     0.045 C
BRANCH   9  10
HETATM   10  C2  UNL     1      -7.804 -32.727  15.902  1.00  0.00     0.110 C
BRANCH  10  11
HETATM   11  S1  UNL     1      -8.497 -31.310  15.107  1.00  0.00     0.010 S
HETATM   12  C1  UNL     1      -8.105 -31.449  13.347  1.00  0.00     0.127 C
HETATM   13  O1  UNL     1     -10.188 -31.400  15.201  1.00  0.00    -0.258 OA
ENDBRANCH  10  11
ENDBRANCH   9  10
ENDBRANCH   1   9
TORSDOF 3
ENDMDL