MODEL 5
REMARK VINA RESULT: -4.810714262      2.154      3.473
REMARK  3 active torsions:
REMARK  status: ('A' for Active; 'I' for Inactive)
REMARK    1  A    between atoms: C2_2  and  C3_3
REMARK    2  A    between atoms: C10_11  and  C11_12
REMARK    3  A    between atoms: C11_12  and  N1_13
ROOT
HETATM    1  C1  UNL     1      -8.240 -31.309  19.415  1.00  0.00     0.018 C
HETATM    2  C2  UNL     1      -8.665 -32.444  18.540  1.00  0.00    -0.009 C
HETATM    3  C4  UNL     1      -7.670 -32.602  17.393  1.00  0.00    -0.004 C
HETATM    4  C5  UNL     1      -8.143 -33.682  16.450  1.00  0.00     0.006 C
HETATM    5  C6  UNL     1      -9.351 -33.145  15.695  1.00  0.00     0.005 C
HETATM    6  C7  UNL     1      -9.946 -31.997  16.477  1.00  0.00    -0.008 C
HETATM    7  C8  UNL     1      -9.023 -30.819  16.323  1.00  0.00     0.005 C
HETATM    8  C9  UNL     1      -7.604 -31.313  16.570  1.00  0.00     0.006 C
HETATM    9  C10 UNL     1     -10.020 -32.337  17.961  1.00  0.00     0.026 C
ENDROOT
BRANCH   9  10
HETATM   10  C11 UNL     1     -10.928 -31.338  18.591  1.00  0.00     0.235 C
BRANCH  10  11
HETATM   11  N1  UNL     1     -12.250 -31.302  17.992  1.00  0.00    -0.079 N
ATOM     12  H13 UNL     1     -12.199 -31.491  16.991  1.00  0.00     0.274 HD
ATOM     13  H12 UNL     1     -12.804 -32.106  18.288  1.00  0.00     0.274 HD
ATOM     14  H11 UNL     1     -12.752 -30.432  18.169  1.00  0.00     0.274 HD
ENDBRANCH  10  11
ENDBRANCH   9  10
BRANCH   2  15
HETATM   15  C3  UNL     1      -8.539 -33.709  19.376  1.00  0.00     0.232 C
HETATM   16  F1  UNL     1      -9.457 -33.664  20.402  1.00  0.00    -0.255 F
ENDBRANCH   2  15
TORSDOF 3
ENDMDL