MODEL 4
REMARK VINA RESULT: -6.967494659      1.044      1.814
REMARK  3 active torsions:
REMARK  status: ('A' for Active; 'I' for Inactive)
REMARK    1  A    between atoms: C4_5  and  C5_6
REMARK    2  A    between atoms: C5_6  and  N1_7
REMARK    3  A    between atoms: N1_7  and  C6_9
ROOT
HETATM    1  C5  UNL     1      -8.316 -33.381  16.991  1.00  0.00     0.118 C
ENDROOT
BRANCH   1   2
HETATM    2  C4  UNL     1      -9.324 -33.235  18.113  1.00  0.00     0.006 C
HETATM    3  C3  UNL     1      -8.594 -33.464  19.417  1.00  0.00     0.009 C
HETATM    4  C2  UNL     1      -9.377 -32.604  20.390  1.00  0.00     0.037 C
HETATM    5  C1  UNL     1      -9.615 -31.348  19.588  1.00  0.00     0.170 C
HETATM    6  F1  UNL     1     -10.649 -30.644  20.135  1.00  0.00    -0.249 F
HETATM    7  C11 UNL     1      -9.884 -31.840  18.182  1.00  0.00     0.043 C
ENDBRANCH   1   2
BRANCH   1   8
HETATM    8  N1  UNL     1      -7.807 -32.118  16.542  1.00  0.00    -0.416 N
ATOM      9  H1  UNL     1      -7.446 -31.417  17.187  1.00  0.00     0.153 HD
BRANCH   8  10
HETATM   10  C6  UNL     1      -7.840 -31.912  15.146  1.00  0.00     0.084 C
HETATM   11  C7  UNL     1      -7.388 -30.602  14.605  1.00  0.00     0.009 C
HETATM   12  C8  UNL     1      -8.252 -30.959  13.413  1.00  0.00     0.013 C
HETATM   13  C10 UNL     1      -8.644 -30.017  15.182  1.00  0.00     0.013 C
HETATM   14  C9  UNL     1      -9.089 -31.343  14.610  1.00  0.00     0.009 C
ENDBRANCH   8  10
ENDBRANCH   1   8
TORSDOF 3
ENDMDL