MODEL 3
REMARK VINA RESULT: -5.000564288      2.147      4.071
REMARK  3 active torsions:
REMARK  status: ('A' for Active; 'I' for Inactive)
REMARK    1  A    between atoms: C1_2  and  C2_3
REMARK    2  A    between atoms: C2_3  and  C3_4
REMARK    3  A    between atoms: C3_4  and  N1_5
ROOT
HETATM    1  N1  UNL     1      -8.109 -32.801  16.786  1.00  0.00     0.088 N
HETATM    2  C4  UNL     1      -7.734 -31.690  15.938  1.00  0.00     0.272 C
HETATM    3  C5  UNL     1      -8.819 -31.597  14.896  1.00  0.00     0.032 C
HETATM    4  C6  UNL     1     -10.036 -31.808  15.803  1.00  0.00     0.032 C
HETATM    5  C7  UNL     1      -9.540 -33.037  16.570  1.00  0.00     0.272 C
ENDROOT
BRANCH   1   6
HETATM    6  C3  UNL     1      -7.939 -32.493  18.213  1.00  0.00     0.273 C
BRANCH   6   7
HETATM    7  C2  UNL     1      -8.715 -33.538  18.975  1.00  0.00     0.041 C
BRANCH   7   8
HETATM    8  C1  UNL     1      -9.334 -32.932  20.240  1.00  0.00     0.087 C
HETATM    9 BR1  UNL     1     -10.267 -31.324  19.656  1.00  0.00    -0.096 Br
ENDBRANCH   7   8
ENDBRANCH   6   7
ENDBRANCH   1   6
TORSDOF 3
ENDMDL