MODEL 3
REMARK VINA RESULT: -6.373140573      2.191      4.957
REMARK  2 active torsions:
REMARK  status: ('A' for Active; 'I' for Inactive)
REMARK    1  A    between atoms: C2_2  and  C3_3
REMARK    2  A    between atoms: C5_5  and  C6_7
ROOT
HETATM    1  C3  UNL     1      -8.853 -32.345  19.062  1.00  0.00     0.013 C
HETATM    2  C4  UNL     1     -10.187 -32.091  18.344  1.00  0.00     0.052 C
HETATM    3  C5  UNL     1      -9.518 -32.677  17.116  1.00  0.00     0.108 C
HETATM    4  F1  UNL     1     -10.405 -33.444  16.421  1.00  0.00    -0.243 F
HETATM    5  C11 UNL     1      -8.642 -33.455  18.054  1.00  0.00     0.052 C
ENDROOT
BRANCH   3   6
HETATM    6  C6  UNL     1      -8.843 -31.579  16.347  1.00  0.00     0.028 C
HETATM    7  C7  UNL     1      -9.772 -30.972  15.351  1.00  0.00     0.027 C
HETATM    8  C8  UNL     1      -9.133 -30.413  14.120  1.00  0.00     0.114 C
HETATM    9  N1  UNL     1      -7.778 -30.007  14.252  1.00  0.00    -0.421 N
HETATM   10  C9  UNL     1      -6.945 -30.807  15.081  1.00  0.00     0.114 C
ATOM     11  H1  UNL     1      -7.418 -29.181  13.774  1.00  0.00     0.153 HD
HETATM   12  C10 UNL     1      -7.640 -32.082  15.559  1.00  0.00     0.027 C
ENDBRANCH   3   6
BRANCH   1  13
HETATM   13  C2  UNL     1      -9.014 -32.791  20.459  1.00  0.00    -0.032 C
HETATM   14  C1  UNL     1     -10.229 -32.829  20.977  1.00  0.00     0.007 C
ENDBRANCH   1  13
TORSDOF 2
ENDMDL