MODEL 2
REMARK VINA RESULT: -7.161806252      1.065      1.139
REMARK  3 active torsions:
REMARK  status: ('A' for Active; 'I' for Inactive)
REMARK    1  A    between atoms: C3_4  and  C4_5
REMARK    2  A    between atoms: C4_5  and  N1_6
REMARK    3  A    between atoms: N1_6  and  C5_9
ROOT
HETATM    1  N1  UNL     1      -9.350 -33.093  16.815  1.00  0.00    -0.070 N
ATOM      2  H11 UNL     1      -9.940 -33.919  16.921  1.00  0.00     0.277 HD
ATOM      3  H12 UNL     1     -10.084 -32.410  16.626  1.00  0.00     0.277 HD
ENDROOT
BRANCH   1   4
HETATM    4  C4  UNL     1      -8.424 -33.222  15.699  1.00  0.00     0.240 C
BRANCH   4   5
HETATM    5  C3  UNL     1      -7.937 -31.865  15.245  1.00  0.00     0.048 A
HETATM    6  C1  UNL     1      -8.927 -30.854  14.810  1.00  0.00     0.176 A
HETATM    7  F1  UNL     1      -8.659 -29.514  15.042  1.00  0.00    -0.249 F
HETATM    8  C2  UNL     1      -8.053 -31.548  13.779  1.00  0.00     0.046 A
ENDBRANCH   4   5
ENDBRANCH   1   4
BRANCH   1   9
HETATM    9  C5  UNL     1      -8.638 -32.793  18.004  1.00  0.00     0.190 C
HETATM   10  C6  UNL     1      -8.766 -33.729  19.167  1.00  0.00     0.038 C
HETATM   11  C7  UNL     1      -8.854 -32.856  20.411  1.00  0.00    -0.012 C
HETATM   12  C8  UNL     1     -10.294 -32.427  20.528  1.00  0.00     0.005 C
HETATM   13  C11 UNL     1      -8.253 -31.541  19.881  1.00  0.00     0.011 C
HETATM   14  C9  UNL     1     -10.493 -31.676  19.215  1.00  0.00     0.007 C
HETATM   15  C10 UNL     1      -9.117 -31.476  18.634  1.00  0.00     0.016 C
ENDBRANCH   1   9
TORSDOF 3
ENDMDL