MODEL 1
REMARK VINA RESULT: -6.276021712      0.000      0.000
REMARK  5 active torsions:
REMARK  status: ('A' for Active; 'I' for Inactive)
REMARK    1  A    between atoms: C2_2  and  C3_3
REMARK    2  A    between atoms: C3_3  and  C4_4
REMARK    3  A    between atoms: C5_5  and  C6_6
REMARK    4  A    between atoms: C6_6  and  C7_7
REMARK    5  A    between atoms: C7_7  and  C8_8
ROOT
HETATM    1  C8  UNL     1     -10.009 -32.204  18.553  1.00  0.00     0.051 C
HETATM    2  C9  UNL     1     -10.125 -32.707  19.960  1.00  0.00     0.195 C
HETATM    3  C10 UNL     1      -8.708 -33.011  20.375  1.00  0.00     0.072 C
HETATM    4  C11 UNL     1      -8.039 -31.742  19.808  1.00  0.00     0.203 C
HETATM    5  F1  UNL     1      -7.123 -32.071  18.854  1.00  0.00    -0.247 F
HETATM    6  C12 UNL     1      -9.269 -31.075  19.273  1.00  0.00     0.226 C
HETATM    7  N1  UNL     1     -10.224 -31.290  20.351  1.00  0.00    -0.063 N
ATOM      8  H11 UNL     1     -10.054 -30.973  21.305  1.00  0.00     0.278 HD
ATOM      9  H12 UNL     1     -11.115 -30.796  20.401  1.00  0.00     0.278 HD
ENDROOT
BRANCH   1  10
HETATM   10  C7  UNL     1     -11.254 -31.664  17.936  1.00  0.00     0.021 C
BRANCH  10  11
HETATM   11  C6  UNL     1     -11.396 -32.016  16.474  1.00  0.00     0.094 C
BRANCH  11  12
HETATM   12  C5  UNL     1     -10.103 -31.932  15.795  1.00  0.00    -0.107 C
HETATM   13  C4  UNL     1      -9.042 -31.857  15.237  1.00  0.00    -0.107 C
BRANCH  13  14
HETATM   14  C3  UNL     1      -7.757 -31.784  14.544  1.00  0.00     0.093 C
BRANCH  14  15
HETATM   15  C2  UNL     1      -7.199 -30.392  14.740  1.00  0.00     0.007 C
HETATM   16  C1  UNL     1      -8.176 -29.333  14.276  1.00  0.00     0.006 C
ENDBRANCH  14  15
ENDBRANCH  13  14
ENDBRANCH  11  12
ENDBRANCH  10  11
ENDBRANCH   1  10
TORSDOF 5
ENDMDL