MODEL 5
REMARK VINA RESULT: -6.086273925      0.974      1.056
REMARK  3 active torsions:
REMARK  status: ('A' for Active; 'I' for Inactive)
REMARK    1  A    between atoms: C2_3  and  C3_4
REMARK    2  A    between atoms: C3_4  and  C4_5
REMARK    3  A    between atoms: C4_5  and  C5_6
ROOT
HETATM    1  N1  UNL     1      -7.394 -32.210  13.570  1.00  0.00    -0.197 NA
HETATM    2  C1  UNL     1      -7.924 -31.466  14.283  1.00  0.00     0.059 C
HETATM    3  C2  UNL     1      -8.570 -30.524  15.195  1.00  0.00     0.124 C
ENDROOT
BRANCH   3   4
HETATM    4  C3  UNL     1      -9.926 -31.101  15.605  1.00  0.00     0.019 C
BRANCH   4   5
HETATM    5  C4  UNL     1      -9.750 -32.449  16.270  1.00  0.00     0.044 C
BRANCH   5   6
HETATM    6  C5  UNL     1      -9.699 -32.266  17.740  1.00  0.00    -0.001 A
HETATM    7  C6  UNL     1      -8.661 -32.669  18.545  1.00  0.00     0.029 A
HETATM    8  C7  UNL     1      -9.017 -32.305  19.841  1.00  0.00     0.091 A
HETATM    9  N2  UNL     1     -10.208 -31.710  19.843  1.00  0.00    -0.343 N
HETATM   10  C8  UNL     1     -10.623 -31.688  18.546  1.00  0.00     0.194 A
ATOM     11  H2  UNL     1     -10.708 -31.344  20.653  1.00  0.00     0.167 HD
HETATM   12  F1  UNL     1     -11.799 -31.159  18.131  1.00  0.00    -0.186 F
ENDBRANCH   5   6
ENDBRANCH   4   5
ENDBRANCH   3   4
TORSDOF 3
ENDMDL