MODEL 1
REMARK VINA RESULT: -6.176511094      0.000      0.000
REMARK  4 active torsions:
REMARK  status: ('A' for Active; 'I' for Inactive)
REMARK    1  A    between atoms: C2_2  and  C3_3
REMARK    2  A    between atoms: C3_3  and  C4_4
REMARK    3  A    between atoms: C7_8  and  C8_9
REMARK    4  A    between atoms: C8_9  and  N1_10
ROOT
HETATM    1  C4  UNL     1      -8.802 -33.038  17.298  1.00  0.00     0.015 C
HETATM    2  C5  UNL     1     -10.112 -32.561  16.804  1.00  0.00     0.016 C
HETATM    3  C6  UNL     1      -9.911 -31.565  15.965  1.00  0.00     0.096 C
HETATM    4  F1  UNL     1     -10.904 -30.885  15.316  1.00  0.00    -0.211 F
HETATM    5  C7  UNL     1      -8.482 -31.225  15.772  1.00  0.00     0.073 C
HETATM    6  C9  UNL     1      -7.864 -31.930  16.967  1.00  0.00     0.022 C
ENDROOT
BRANCH   5   7
HETATM    7  C8  UNL     1      -7.923 -31.698  14.465  1.00  0.00     0.241 C
BRANCH   7   8
HETATM    8  N1  UNL     1      -8.438 -30.986  13.338  1.00  0.00    -0.079 N
ATOM      9  H13 UNL     1      -9.458 -30.986  13.344  1.00  0.00     0.274 HD
ATOM     10  H12 UNL     1      -8.269 -29.985  13.434  1.00  0.00     0.274 HD
ATOM     11  H11 UNL     1      -8.083 -31.330  12.446  1.00  0.00     0.274 HD
ENDBRANCH   7   8
ENDBRANCH   5   7
BRANCH   1  12
HETATM   12  C3  UNL     1      -8.833 -33.374  18.772  1.00  0.00     0.035 C
BRANCH  12  13
HETATM   13  C2  UNL     1      -9.550 -32.367  19.568  1.00  0.00    -0.036 C
HETATM   14  C1  UNL     1      -9.931 -32.614  20.806  1.00  0.00     0.007 C
ENDBRANCH  12  13
ENDBRANCH   1  12
TORSDOF 4
ENDMDL