MODEL 5
REMARK VINA RESULT: -5.246280017      2.396      3.600
REMARK  3 active torsions:
REMARK  status: ('A' for Active; 'I' for Inactive)
REMARK    1  A    between atoms: C1_2  and  C2_3
REMARK    2  A    between atoms: C2_3  and  C3_4
REMARK    3  A    between atoms: C3_4  and  C4_5
ROOT
HETATM    1  C3  UNL     1      -8.910 -32.456  17.666  1.00  0.00     0.138 C
HETATM    2  C7  UNL     1      -9.360 -33.330  18.773  1.00  0.00     0.041 C
HETATM    3  C8  UNL     1      -8.915 -32.559  20.027  1.00  0.00     0.030 C
HETATM    4  C9  UNL     1      -7.833 -31.625  19.566  1.00  0.00     0.233 C
HETATM    5  N1  UNL     1      -7.684 -31.867  18.170  1.00  0.00    -0.065 N
ATOM      6  H11 UNL     1      -7.414 -31.028  17.657  1.00  0.00     0.278 HD
ATOM      7  H12 UNL     1      -6.863 -32.432  17.958  1.00  0.00     0.278 HD
ENDROOT
BRANCH   1   8
HETATM    8  C2  UNL     1      -8.652 -33.066  16.345  1.00  0.00     0.071 C
BRANCH   8   9
HETATM    9  C1  UNL     1      -7.819 -32.349  15.364  1.00  0.00     0.224 C
HETATM   10  F1  UNL     1      -8.483 -31.697  14.354  1.00  0.00    -0.255 F
ENDBRANCH   8   9
ENDBRANCH   1   8
BRANCH   1  11
HETATM   11  C4  UNL     1      -9.982 -31.392  17.432  1.00  0.00     0.066 A
HETATM   12  C5  UNL     1     -11.020 -31.527  16.473  1.00  0.00    -0.019 A
HETATM   13  C6  UNL     1     -11.347 -31.844  17.818  1.00  0.00    -0.019 A
ENDBRANCH   1  11
TORSDOF 3
ENDMDL