MODEL 1
REMARK VINA RESULT: -6.624784196      0.000      0.000
REMARK  3 active torsions:
REMARK  status: ('A' for Active; 'I' for Inactive)
REMARK    1  A    between atoms: C2_3  and  C3_4
REMARK    2  A    between atoms: C3_4  and  N1_5
REMARK    3  A    between atoms: N1_5  and  C4_7
ROOT
HETATM    1  C4  UNL     1      -9.849 -32.232  17.497  1.00  0.00     0.028 A
HETATM    2  C5  UNL     1     -10.583 -31.430  18.350  1.00  0.00     0.029 A
HETATM    3  C6  UNL     1     -10.429 -31.486  19.717  1.00  0.00     0.002 A
HETATM    4  C7  UNL     1      -9.515 -32.367  20.255  1.00  0.00     0.000 A
HETATM    5  C8  UNL     1      -8.761 -33.185  19.454  1.00  0.00     0.002 A
HETATM    6  C9  UNL     1      -8.940 -33.103  18.097  1.00  0.00     0.029 A
ENDROOT
BRANCH   1   7
HETATM    7  N1  UNL     1     -10.017 -32.163  16.101  1.00  0.00    -0.386 N
ATOM      8  H1  UNL     1     -10.411 -32.958  15.597  1.00  0.00     0.160 HD
BRANCH   7   9
HETATM    9  C3  UNL     1      -9.639 -30.981  15.387  1.00  0.00     0.149 C
BRANCH   9  10
HETATM   10  C2  UNL     1      -8.199 -30.909  15.086  1.00  0.00     0.022 C
HETATM   11  C1  UNL     1      -7.680 -29.797  14.580  1.00  0.00     0.186 C
HETATM   12  F1  UNL     1      -8.473 -28.723  14.337  1.00  0.00    -0.220 F
ENDBRANCH   9  10
ENDBRANCH   7   9
ENDBRANCH   1   7
TORSDOF 3
ENDMDL