MODEL 2
REMARK VINA RESULT: -5.384970811      2.767      3.873
REMARK  4 active torsions:
REMARK  status: ('A' for Active; 'I' for Inactive)
REMARK    1  A    between atoms: N1_1  and  C1_5
REMARK    2  A    between atoms: C1_5  and  C2_6
REMARK    3  A    between atoms: C2_6  and  C3_7
REMARK    4  A    between atoms: C7_11  and  C8_12
ROOT
HETATM    1  C3  UNL     1      -8.568 -32.451  16.809  1.00  0.00    -0.007 C
HETATM    2  C4  UNL     1      -9.987 -32.970  16.629  1.00  0.00     0.005 C
HETATM    3  C5  UNL     1     -10.789 -31.705  16.393  1.00  0.00     0.001 C
HETATM    4  C6  UNL     1      -9.885 -30.925  15.483  1.00  0.00     0.007 C
HETATM    5  C7  UNL     1      -8.463 -31.300  15.873  1.00  0.00     0.018 C
ENDROOT
BRANCH   1   6
HETATM    6  C2  UNL     1      -8.411 -32.098  18.253  1.00  0.00     0.032 C
BRANCH   6   7
HETATM    7  C1  UNL     1      -8.779 -33.229  19.181  1.00  0.00     0.230 C
BRANCH   7   8
HETATM    8  N1  UNL     1      -9.574 -32.688  20.268  1.00  0.00    -0.079 N
ATOM      9  H13 UNL     1      -9.930 -33.412  20.892  1.00  0.00     0.274 HD
ATOM     10  H12 UNL     1      -9.012 -32.181  20.951  1.00  0.00     0.274 HD
ATOM     11  H11 UNL     1     -10.317 -32.115  19.868  1.00  0.00     0.274 HD
ENDBRANCH   7   8
ENDBRANCH   6   7
ENDBRANCH   1   6
BRANCH   5  12
HETATM   12  C8  UNL     1      -7.771 -31.790  14.594  1.00  0.00     0.227 C
HETATM   13  F1  UNL     1      -8.407 -31.273  13.477  1.00  0.00    -0.255 F
ENDBRANCH   5  12
TORSDOF 4
ENDMDL