MODEL 5
REMARK VINA RESULT: -5.388919634      1.304      1.475
REMARK  3 active torsions:
REMARK  status: ('A' for Active; 'I' for Inactive)
REMARK    1  A    between atoms: C2_2  and  C3_3
REMARK    2  A    between atoms: C5_5  and  N1_6
REMARK    3  A    between atoms: N1_6  and  C6_8
ROOT
HETATM    1  N1  UNL     1      -8.600 -32.172  17.926  1.00  0.00    -0.411 N
ATOM      2  H1  UNL     1      -8.386 -33.010  18.468  1.00  0.00     0.154 HD
ENDROOT
BRANCH   1   3
HETATM    3  C5  UNL     1      -7.971 -31.904  16.690  1.00  0.00     0.085 A
HETATM    4  C3  UNL     1      -8.763 -31.491  15.513  1.00  0.00     0.032 A
HETATM    5  C4  UNL     1      -8.113 -32.871  15.577  1.00  0.00     0.036 A
BRANCH   4   6
HETATM    6  C2  UNL     1      -8.204 -30.634  14.445  1.00  0.00    -0.030 C
HETATM    7  C1  UNL     1      -8.190 -29.325  14.479  1.00  0.00     0.007 C
ENDBRANCH   4   6
ENDBRANCH   1   3
BRANCH   1   8
HETATM    8  C6  UNL     1      -9.538 -31.220  18.370  1.00  0.00     0.097 A
HETATM    9  C7  UNL     1     -10.993 -31.571  18.424  1.00  0.00     0.048 A
HETATM   10  C8  UNL     1     -10.235 -31.413  19.718  1.00  0.00     0.106 A
HETATM   11 CL1  UNL     1      -9.894 -32.868  20.673  1.00  0.00    -0.123 Cl
ENDBRANCH   1   8
TORSDOF 3
ENDMDL