MODEL 5
REMARK VINA RESULT: -5.740768717      1.289      1.580
REMARK  3 active torsions:
REMARK  status: ('A' for Active; 'I' for Inactive)
REMARK    1  A    between atoms: C3_4  and  C4_5
REMARK    2  A    between atoms: C4_5  and  N1_6
REMARK    3  A    between atoms: N1_6  and  C5_8
ROOT
HETATM    1  C4  UNL     1      -8.977 -32.941  17.326  1.00  0.00     0.118 C
ENDROOT
BRANCH   1   2
HETATM    2  C3  UNL     1      -8.886 -32.364  15.949  1.00  0.00     0.008 C
HETATM    3  C2  UNL     1      -9.888 -31.250  15.650  1.00  0.00     0.043 C
HETATM    4  C1  UNL     1      -8.776 -30.609  14.805  1.00  0.00     0.171 C
HETATM    5  F1  UNL     1      -8.747 -31.165  13.526  1.00  0.00    -0.249 F
HETATM    6  C8  UNL     1      -7.787 -31.377  15.693  1.00  0.00     0.043 C
ENDBRANCH   1   2
BRANCH   1   7
HETATM    7  N1  UNL     1      -8.113 -32.246  18.222  1.00  0.00    -0.417 N
ATOM      8  H1  UNL     1      -7.140 -32.044  17.992  1.00  0.00     0.153 HD
BRANCH   7   9
HETATM    9  C5  UNL     1      -8.700 -31.852  19.461  1.00  0.00     0.076 A
HETATM   10  C6  UNL     1      -9.558 -32.744  20.239  1.00  0.00     0.027 A
HETATM   11  C7  UNL     1     -10.175 -31.558  19.533  1.00  0.00     0.027 A
ENDBRANCH   7   9
ENDBRANCH   1   7
TORSDOF 3
ENDMDL