MODEL 2
REMARK VINA RESULT: -6.921666966      1.460      2.015
REMARK  3 active torsions:
REMARK  status: ('A' for Active; 'I' for Inactive)
REMARK    1  A    between atoms: C1_2  and  C2_3
REMARK    2  A    between atoms: C2_3  and  C3_4
REMARK    3  A    between atoms: C3_4  and  C4_5
ROOT
HETATM    1  C4  UNL     1      -9.729 -32.106  17.638  1.00  0.00     0.002 A
HETATM    2  C5  UNL     1      -8.755 -32.980  18.151  1.00  0.00     0.014 A
HETATM    3  C6  UNL     1      -8.681 -33.265  19.477  1.00  0.00     0.001 A
HETATM    4  C7  UNL     1      -9.552 -32.714  20.393  1.00  0.00     0.003 A
HETATM    5  C8  UNL     1     -10.493 -31.870  19.885  1.00  0.00     0.043 A
HETATM    6  C9  UNL     1     -10.597 -31.559  18.525  1.00  0.00     0.126 A
HETATM    7  F1  UNL     1     -11.684 -30.778  18.167  1.00  0.00    -0.205 F
ENDROOT
BRANCH   1   8
HETATM    8  C3  UNL     1      -9.792 -31.948  16.211  1.00  0.00     0.015 C
BRANCH   8   9
HETATM    9  C2  UNL     1      -9.554 -31.045  15.351  1.00  0.00     0.015 C
BRANCH   9  10
HETATM   10  C1  UNL     1      -8.591 -30.620  14.365  1.00  0.00     0.100 C
HETATM   11  N1  UNL     1      -8.419 -31.284  13.138  1.00  0.00    -0.115 NA
ENDBRANCH   9  10
ENDBRANCH   8   9
ENDBRANCH   1   8
TORSDOF 3
ENDMDL