MODEL 4
REMARK VINA RESULT: -5.625781559      1.353      1.590
REMARK  3 active torsions:
REMARK  status: ('A' for Active; 'I' for Inactive)
REMARK    1  A    between atoms: C2_2  and  C3_3
REMARK    2  A    between atoms: C3_3  and  N1_4
REMARK    3  A    between atoms: N1_4  and  C4_6
ROOT
HETATM    1  C4  UNL     1      -9.246 -31.731  17.846  1.00  0.00     0.032 C
HETATM    2  C5  UNL     1      -8.936 -32.971  18.085  1.00  0.00     0.040 C
HETATM    3  C6  UNL     1      -9.129 -33.321  19.530  1.00  0.00     0.199 C
HETATM    4  F1  UNL     1      -7.999 -34.014  19.974  1.00  0.00    -0.245 F
HETATM    5  C7  UNL     1      -9.265 -31.991  20.243  1.00  0.00     0.081 C
HETATM    6  C8  UNL     1      -9.713 -31.114  19.121  1.00  0.00    -0.038 C
HETATM    7  C9  UNL     1     -10.406 -29.998  19.206  1.00  0.00     0.021 C
ENDROOT
BRANCH   1   8
HETATM    8  N1  UNL     1      -9.224 -30.966  16.668  1.00  0.00    -0.386 N
ATOM      9  H1  UNL     1      -9.075 -29.962  16.775  1.00  0.00     0.160 HD
BRANCH   8  10
HETATM   10  C3  UNL     1      -9.387 -31.449  15.345  1.00  0.00     0.146 C
BRANCH  10  11
HETATM   11  C2  UNL     1      -8.450 -30.794  14.410  1.00  0.00    -0.018 C
HETATM   12  C1  UNL     1      -8.218 -29.484  14.603  1.00  0.00     0.008 C
ENDBRANCH  10  11
ENDBRANCH   8  10
ENDBRANCH   1   8
TORSDOF 3
ENDMDL