MODEL 4
REMARK VINA RESULT: -6.816081071      2.166      4.775
REMARK  5 active torsions:
REMARK  status: ('A' for Active; 'I' for Inactive)
REMARK    1  A    between atoms: C3_4  and  O1_5
REMARK    2  A    between atoms: O1_5  and  C4_6
REMARK    3  A    between atoms: C7_10  and  C8_11
REMARK    4  A    between atoms: C12_15  and  O3_16
REMARK    5  A    between atoms: C17_22  and  O4_24
ROOT
HETATM    1  C1  UNL     1      23.058  12.390  24.564  1.00  0.00     0.221 C
HETATM    2  N1  UNL     1      23.254  12.001  23.489  1.00  0.00    -0.461 NA
HETATM    3  C2  UNL     1      23.516  11.508  22.168  1.00  0.00     0.225 C
HETATM    4  C3  UNL     1      24.016  12.683  21.380  1.00  0.00     0.176 C
HETATM    5  C6  UNL     1      24.652  12.382  20.076  1.00  0.00     0.037 C
HETATM    6  C7  UNL     1      25.352  11.120  19.880  1.00  0.00     0.023 C
HETATM    7  C11 UNL     1      25.234  10.772  18.387  1.00  0.00     0.042 C
HETATM    8  C12 UNL     1      24.411  11.867  17.771  1.00  0.00     0.127 C
HETATM    9  C13 UNL     1      23.587  12.315  18.965  1.00  0.00    -0.011 C
HETATM   10  C14 UNL     1      23.002  13.640  18.655  1.00  0.00     0.018 C
HETATM   11  C15 UNL     1      22.615  11.221  19.219  1.00  0.00     0.015 C
HETATM   12  C16 UNL     1      21.720  11.405  20.390  1.00  0.00     0.041 C
HETATM   13  C17 UNL     1      22.250  10.896  21.684  1.00  0.00     0.089 C
HETATM   14  C18 UNL     1      21.088  11.090  22.678  1.00  0.00     0.049 C
ENDROOT
BRANCH   4  15
HETATM   15  O1  UNL     1      24.621  13.681  22.146  1.00  0.00    -0.313 OA
BRANCH  15  16
HETATM   16  C4  UNL     1      24.450  15.022  22.120  1.00  0.00     0.255 C
HETATM   17  C5  UNL     1      23.129  15.629  21.813  1.00  0.00     0.126 C
HETATM   18  O2  UNL     1      25.477  15.699  22.371  1.00  0.00    -0.266 OA
ENDBRANCH  15  16
ENDBRANCH   4  15
BRANCH  13  19
HETATM   19  O4  UNL     1      22.362   9.490  21.559  1.00  0.00    -0.387 OA
ATOM     20  H4  UNL     1      22.445   9.223  20.651  1.00  0.00     0.210 HD
ENDBRANCH  13  19
BRANCH   6  21
HETATM   21  C8  UNL     1      26.804  11.066  20.163  1.00  0.00    -0.088 C
HETATM   22  C9  UNL     1      27.405  11.600  21.213  1.00  0.00     0.014 C
HETATM   23  C10 UNL     1      27.715  10.347  19.192  1.00  0.00     0.043 C
ENDBRANCH   6  21
BRANCH   8  24
HETATM   24  O3  UNL     1      25.124  12.864  17.185  1.00  0.00    -0.395 OA
ATOM     25  H3  UNL     1      24.654  13.682  17.072  1.00  0.00     0.210 HD
ENDBRANCH   8  24
TORSDOF 5
ENDMDL