MODEL 2
REMARK VINA RESULT: -7.081863829      2.563      5.732
REMARK  5 active torsions:
REMARK  status: ('A' for Active; 'I' for Inactive)
REMARK    1  A    between atoms: C2_2  and  O2_4
REMARK    2  A    between atoms: O2_4  and  C3_5
REMARK    3  A    between atoms: C10_12  and  O3_13
REMARK    4  A    between atoms: C16_21  and  C18_23
REMARK    5  A    between atoms: C18_23  and  O5_24
ROOT
HETATM    1  C3  UNL     1      22.456  12.234  19.979  1.00  0.00     0.132 C
HETATM    2  C4  UNL     1      22.959  13.141  18.862  1.00  0.00     0.033 C
HETATM    3  C5  UNL     1      24.330  13.687  19.190  1.00  0.00     0.012 C
HETATM    4  C6  UNL     1      25.374  12.562  19.157  1.00  0.00    -0.034 C
HETATM    5  C7  UNL     1      25.688  12.405  17.688  1.00  0.00     0.016 C
HETATM    6  C8  UNL     1      24.686  11.328  19.624  1.00  0.00     0.025 C
HETATM    7  C9  UNL     1      23.694  11.726  20.704  1.00  0.00     0.040 C
HETATM    8  C10 UNL     1      25.564  10.233  20.091  1.00  0.00     0.123 C
HETATM    9  C11 UNL     1      27.025  10.527  20.103  1.00  0.00     0.040 C
HETATM   10  C12 UNL     1      27.226  11.895  20.716  1.00  0.00     0.029 C
HETATM   11  C13 UNL     1      26.542  12.986  19.976  1.00  0.00     0.003 C
HETATM   12  C14 UNL     1      27.466  13.797  19.088  1.00  0.00     0.032 C
HETATM   13  C15 UNL     1      28.827  13.995  19.732  1.00  0.00     0.169 C
HETATM   14  O4  UNL     1      29.349  12.708  19.898  1.00  0.00    -0.378 OA
HETATM   15  C16 UNL     1      28.689  12.104  20.955  1.00  0.00     0.082 C
HETATM   16  C17 UNL     1      28.908  12.987  22.183  1.00  0.00     0.049 C
ENDROOT
BRANCH   1  17
HETATM   17  O2  UNL     1      21.847  11.061  19.423  1.00  0.00    -0.316 OA
BRANCH  17  18
HETATM   18  C2  UNL     1      21.566   9.943  20.182  1.00  0.00     0.255 C
HETATM   19  C1  UNL     1      20.639  10.032  21.348  1.00  0.00     0.126 C
HETATM   20  O1  UNL     1      22.120   8.867  19.846  1.00  0.00    -0.266 OA
ENDBRANCH  17  18
ENDBRANCH   1  17
BRANCH   8  21
HETATM   21  O3  UNL     1      25.207   9.859  21.408  1.00  0.00    -0.395 OA
ATOM     22  H3  UNL     1      25.143   8.913  21.469  1.00  0.00     0.210 HD
ENDBRANCH   8  21
BRANCH  15  23
HETATM   23  C18 UNL     1      29.413  10.802  21.240  1.00  0.00     0.202 C
BRANCH  23  24
HETATM   24  O5  UNL     1      30.634  11.173  21.851  1.00  0.00    -0.398 OA
ATOM     25  H5  UNL     1      31.316  10.833  21.284  1.00  0.00     0.209 HD
ENDBRANCH  23  24
ENDBRANCH  15  23
TORSDOF 5
ENDMDL