MODEL 1
REMARK VINA RESULT: -7.572362170      0.000      0.000
REMARK  4 active torsions:
REMARK  status: ('A' for Active; 'I' for Inactive)
REMARK    1  A    between atoms: N1_1  and  C1_5
REMARK    2  A    between atoms: C1_5  and  C2_6
REMARK    3  A    between atoms: C2_6  and  N2_7
REMARK    4  A    between atoms: N2_7  and  C3_9
ROOT
HETATM    1  C3  UNL     1      22.018  10.469  21.647  1.00  0.00     0.077 C
HETATM    2  C4  UNL     1      23.109   9.555  21.097  1.00  0.00     0.030 C
HETATM    3  C5  UNL     1      23.618  10.042  19.786  1.00  0.00     0.073 C
HETATM    4  C6  UNL     1      23.970  11.498  19.770  1.00  0.00     0.201 C
HETATM    5  C7  UNL     1      22.831  12.320  20.277  1.00  0.00     0.073 C
HETATM    6  C8  UNL     1      21.600  11.480  20.600  1.00  0.00     0.030 C
HETATM    7  O1  UNL     1      24.315  11.804  18.438  1.00  0.00    -0.197 OA
HETATM    8  O2  UNL     1      25.423  11.071  18.328  1.00  0.00    -0.197 OA
HETATM    9  C9  UNL     1      26.143  11.551  19.437  1.00  0.00     0.208 C
HETATM   10  O3  UNL     1      25.182  11.774  20.409  1.00  0.00    -0.313 OA
HETATM   11  C10 UNL     1      27.170  10.562  19.917  1.00  0.00     0.052 C
HETATM   12  C11 UNL     1      28.127  10.189  18.824  1.00  0.00     0.014 C
HETATM   13  C12 UNL     1      28.833  11.427  18.285  1.00  0.00    -0.013 C
HETATM   14  C13 UNL     1      29.657  11.980  19.423  1.00  0.00     0.009 C
HETATM   15  C14 UNL     1      28.728  12.396  20.528  1.00  0.00    -0.013 C
HETATM   16  C15 UNL     1      27.939  11.214  21.041  1.00  0.00     0.014 C
HETATM   17  C16 UNL     1      27.724  13.415  20.033  1.00  0.00     0.014 C
HETATM   18  C17 UNL     1      26.848  12.795  18.986  1.00  0.00     0.052 C
HETATM   19  C18 UNL     1      27.758  12.395  17.828  1.00  0.00     0.014 C
ENDROOT
BRANCH   1  20
HETATM   20  N2  UNL     1      20.942   9.608  22.040  1.00  0.00    -0.415 N
ATOM     21  H2  UNL     1      20.661   8.801  21.483  1.00  0.00     0.153 HD
BRANCH  20  22
HETATM   22  C2  UNL     1      20.283   9.953  23.273  1.00  0.00     0.141 C
BRANCH  22  23
HETATM   23  C1  UNL     1      21.425  10.289  24.239  1.00  0.00     0.248 C
BRANCH  23  24
HETATM   24  N1  UNL     1      21.996   9.090  24.832  1.00  0.00    -0.078 N
ATOM     25  H13 UNL     1      21.938   8.296  24.195  1.00  0.00     0.274 HD
ATOM     26  H12 UNL     1      23.011   9.159  24.907  1.00  0.00     0.274 HD
ATOM     27  H11 UNL     1      21.570   8.876  25.734  1.00  0.00     0.274 HD
ENDBRANCH  23  24
ENDBRANCH  22  23
ENDBRANCH  20  22
ENDBRANCH   1  20
TORSDOF 4
ENDMDL