MODEL 2
REMARK VINA RESULT: -7.177108377      1.846      3.060
REMARK  5 active torsions:
REMARK  status: ('A' for Active; 'I' for Inactive)
REMARK    1  A    between atoms: C6_7  and  O2_8
REMARK    2  A    between atoms: C11_14  and  O3_15
REMARK    3  A    between atoms: C14_19  and  C15_20
REMARK    4  A    between atoms: C15_20  and  C17_22
REMARK    5  A    between atoms: C17_22  and  O5_24
ROOT
HETATM    1  C1  UNL     1      21.049  14.356  22.948  1.00  0.00     0.051 C
HETATM    2  C2  UNL     1      21.407  13.390  22.149  1.00  0.00     0.064 C
HETATM    3  O1  UNL     1      22.201  13.613  21.018  1.00  0.00    -0.345 OA
HETATM    4  C3  UNL     1      22.001  12.523  20.134  1.00  0.00     0.144 C
HETATM    5  C4  UNL     1      22.874  12.410  18.984  1.00  0.00     0.041 C
HETATM    6  C5  UNL     1      23.941  11.419  19.073  1.00  0.00     0.027 C
HETATM    7  C6  UNL     1      25.159  11.593  18.213  1.00  0.00     0.123 C
HETATM    8  C7  UNL     1      26.172  10.734  18.953  1.00  0.00     0.033 C
HETATM    9  C8  UNL     1      25.538  10.368  20.301  1.00  0.00     0.014 C
HETATM   10  C9  UNL     1      24.551  11.507  20.454  1.00  0.00    -0.011 C
HETATM   11  C10 UNL     1      25.398  12.744  20.629  1.00  0.00     0.018 C
HETATM   12  C11 UNL     1      23.533  11.314  21.549  1.00  0.00     0.142 C
HETATM   13  C12 UNL     1      22.118  11.381  21.181  1.00  0.00     0.036 C
HETATM   14  C13 UNL     1      21.499  10.210  20.481  1.00  0.00     0.025 C
HETATM   15  C14 UNL     1      21.136  11.944  22.156  1.00  0.00    -0.021 C
ENDROOT
BRANCH  15  16
HETATM   16  C15 UNL     1      20.701  11.305  23.354  1.00  0.00     0.114 C
HETATM   17  C16 UNL     1      19.587  10.297  23.317  1.00  0.00     0.025 C
BRANCH  16  18
HETATM   18  C17 UNL     1      21.731  10.712  24.204  1.00  0.00     0.266 C
HETATM   19  O4  UNL     1      21.872   9.504  24.400  1.00  0.00    -0.265 OA
BRANCH  18  20
HETATM   20  O5  UNL     1      22.681  11.513  24.896  1.00  0.00    -0.326 OA
HETATM   21  C18 UNL     1      22.295  12.414  25.917  1.00  0.00     0.213 C
ENDBRANCH  18  20
ENDBRANCH  16  18
ENDBRANCH  15  16
BRANCH  12  22
HETATM   22  O3  UNL     1      23.938  10.232  22.293  1.00  0.00    -0.394 OA
ATOM     23  H3  UNL     1      23.164   9.873  22.710  1.00  0.00     0.210 HD
ENDBRANCH  12  22
BRANCH   7  24
HETATM   24  O2  UNL     1      25.557  12.873  17.977  1.00  0.00    -0.395 OA
ATOM     25  H2  UNL     1      26.253  13.208  18.530  1.00  0.00     0.210 HD
ENDBRANCH   7  24
TORSDOF 5
ENDMDL