MODEL 5
REMARK VINA RESULT: -6.531155739      3.724      7.942
REMARK  6 active torsions:
REMARK  status: ('A' for Active; 'I' for Inactive)
REMARK    1  A    between atoms: C5_5  and  C6_6
REMARK    2  A    between atoms: C6_6  and  O1_7
REMARK    3  A    between atoms: C6_6  and  N1_9
REMARK    4  A    between atoms: C9_12  and  N2_13
REMARK       I    between atoms: N2_13  and  C10_15
REMARK    5  A    between atoms: C10_15  and  O3_17
REMARK    6  A    between atoms: O3_17  and  C11_18
ROOT
HETATM    1  N1  UNL     1      22.206  10.241  22.683  1.00  0.00    -0.383 N
HETATM    2  C7  UNL     1      21.161  10.234  21.734  1.00  0.00     0.121 C
HETATM    3  C8  UNL     1      21.483  11.044  20.489  1.00  0.00     0.045 C
HETATM    4  C9  UNL     1      22.842  10.673  20.015  1.00  0.00     0.089 C
HETATM    5  C15 UNL     1      23.492   9.533  20.732  1.00  0.00     0.045 C
HETATM    6  C16 UNL     1      23.435   9.669  22.241  1.00  0.00     0.121 C
ENDROOT
BRANCH   1   7
HETATM    7  C6  UNL     1      21.884  10.004  24.032  1.00  0.00     0.262 C
BRANCH   7   8
HETATM    8  C5  UNL     1      21.902  11.221  24.876  1.00  0.00     0.030 C
HETATM    9  C4  UNL     1      20.607  11.910  25.258  1.00  0.00     0.057 C
HETATM   10  C3  UNL     1      20.516  12.139  26.739  1.00  0.00     0.011 C
HETATM   11  C2  UNL     1      21.847  12.522  27.292  1.00  0.00    -0.001 C
HETATM   12  C1  UNL     1      21.768  13.563  28.380  1.00  0.00     0.011 C
HETATM   13  C17 UNL     1      22.748  12.986  26.148  1.00  0.00     0.123 C
HETATM   14  N3  UNL     1      22.950  11.789  25.341  1.00  0.00    -0.393 N
ATOM     15  H3  UNL     1      23.883  11.422  25.156  1.00  0.00     0.159 HD
ENDBRANCH   7   8
BRANCH   7  16
HETATM   16  O1  UNL     1      22.827   9.110  24.613  1.00  0.00    -0.372 OA
ATOM     17  H1  UNL     1      23.211   9.574  25.347  1.00  0.00     0.212 HD
ENDBRANCH   7  16
ENDBRANCH   1   7
BRANCH   4  18
HETATM   18  N2  UNL     1      23.673  11.861  19.993  1.00  0.00    -0.332 N
HETATM   19  C10 UNL     1      24.574  12.161  18.952  1.00  0.00     0.361 C
HETATM   20  O2  UNL     1      24.727  11.412  17.955  1.00  0.00    -0.238 OA
ATOM     21  H2  UNL     1      23.602  12.514  20.773  1.00  0.00     0.165 HD
BRANCH  19  22
HETATM   22  O3  UNL     1      25.341  13.316  18.990  1.00  0.00    -0.294 OA
BRANCH  22  23
HETATM   23  C11 UNL     1      24.833  14.523  18.493  1.00  0.00     0.061 C
HETATM   24  C12 UNL     1      23.482  14.358  17.833  1.00  0.00     0.046 C
HETATM   25  C13 UNL     1      24.683  15.456  19.699  1.00  0.00     0.046 C
HETATM   26  C14 UNL     1      25.826  15.091  17.507  1.00  0.00     0.046 C
ENDBRANCH  22  23
ENDBRANCH  19  22
ENDBRANCH   4  18
TORSDOF 6
ENDMDL