MODEL 5
REMARK VINA RESULT: -6.179267769      3.589      6.298
REMARK  4 active torsions:
REMARK  status: ('A' for Active; 'I' for Inactive)
REMARK    1  A    between atoms: O1_2  and  C2_3
REMARK       I    between atoms: C2_3  and  N1_5
REMARK    2  A    between atoms: N1_5  and  C3_7
REMARK       I    between atoms: N2_10  and  C6_11
REMARK       I    between atoms: C6_11  and  N3_13
REMARK    3  A    between atoms: N3_13  and  C7_15
REMARK    4  A    between atoms: N5_19  and  C9_20
ROOT
HETATM    1  C3  UNL     1      29.522  12.554  19.324  1.00  0.00     0.089 C
HETATM    2  C4  UNL     1      28.282  13.118  18.692  1.00  0.00     0.045 C
HETATM    3  C5  UNL     1      27.344  12.056  18.167  1.00  0.00     0.129 C
HETATM    4  N2  UNL     1      27.029  11.195  19.324  1.00  0.00    -0.334 N
HETATM    5  C6  UNL     1      25.700  11.090  19.746  1.00  0.00     0.323 C
HETATM    6  O3  UNL     1      24.827  11.784  19.105  1.00  0.00    -0.247 OA
HETATM    7  N3  UNL     1      25.278  10.283  20.811  1.00  0.00    -0.306 N
ATOM      8  H3  UNL     1      25.972   9.730  21.313  1.00  0.00     0.171 HD
HETATM    9  C14 UNL     1      28.119  10.539  19.943  1.00  0.00     0.129 C
HETATM   10  C15 UNL     1      29.287  11.442  20.279  1.00  0.00     0.045 C
ENDROOT
BRANCH   7  11
HETATM   11  C7  UNL     1      23.928  10.207  21.215  1.00  0.00     0.070 A
HETATM   12  C8  UNL     1      23.016   9.336  20.602  1.00  0.00     0.138 A
HETATM   13  N4  UNL     1      21.828   9.464  21.192  1.00  0.00    -0.307 N
HETATM   14  N5  UNL     1      21.912  10.360  22.147  1.00  0.00    -0.293 N
ATOM     15  H4  UNL     1      20.985   8.946  20.941  1.00  0.00     0.186 HD
HETATM   16  C13 UNL     1      23.198  10.835  22.183  1.00  0.00     0.142 A
BRANCH  14  17
HETATM   17  C9  UNL     1      20.818  10.756  23.001  1.00  0.00     0.042 C
HETATM   18  C10 UNL     1      21.061  10.296  24.416  1.00  0.00     0.039 C
HETATM   19  C11 UNL     1      20.713  12.261  22.969  1.00  0.00     0.039 C
HETATM   20  C12 UNL     1      19.516  10.205  22.454  1.00  0.00     0.039 C
ENDBRANCH  14  17
ENDBRANCH   7  11
BRANCH   1  21
HETATM   21  N1  UNL     1      30.503  12.171  18.331  1.00  0.00    -0.332 N
HETATM   22  C2  UNL     1      31.346  13.208  17.801  1.00  0.00     0.360 C
HETATM   23  O2  UNL     1      31.255  14.394  18.174  1.00  0.00    -0.239 OA
ATOM     24  H1  UNL     1      30.592  11.204  18.020  1.00  0.00     0.165 HD
BRANCH  22  25
HETATM   25  O1  UNL     1      32.312  12.914  16.834  1.00  0.00    -0.309 OA
HETATM   26  C1  UNL     1      33.564  13.585  16.811  1.00  0.00     0.215 C
ENDBRANCH  22  25
ENDBRANCH   1  21
TORSDOF 4
ENDMDL