MODEL 1
REMARK VINA RESULT: -7.012040108      0.000      0.000
REMARK  3 active torsions:
REMARK  status: ('A' for Active; 'I' for Inactive)
REMARK    1  A    between atoms: O1_2  and  C2_3
REMARK    2  A    between atoms: C8_11  and  O4_12
REMARK    3  A    between atoms: C15_20  and  C17_22
ROOT
HETATM    1  C2  UNL     1      21.243  10.694  22.500  1.00  0.00     0.278 C
HETATM    2  O2  UNL     1      21.877  10.424  21.262  1.00  0.00    -0.353 OA
HETATM    3  C3  UNL     1      23.193  10.435  21.650  1.00  0.00     0.146 C
HETATM    4  C4  UNL     1      23.264  11.842  22.281  1.00  0.00     0.073 C
HETATM    5  C5  UNL     1      23.360  12.854  21.264  1.00  0.00     0.065 C
HETATM    6  C6  UNL     1      24.400  13.907  21.710  1.00  0.00     0.046 C
HETATM    7  C7  UNL     1      22.157  13.651  20.888  1.00  0.00     0.046 C
HETATM    8  O3  UNL     1      23.875  12.401  20.024  1.00  0.00    -0.343 OA
HETATM    9  C8  UNL     1      24.840  11.465  20.117  1.00  0.00     0.182 C
HETATM   10  C9  UNL     1      24.218  10.195  20.631  1.00  0.00     0.101 C
HETATM   11  C10 UNL     1      23.635   9.522  19.448  1.00  0.00    -0.017 C
HETATM   12  C11 UNL     1      24.181  10.001  18.356  1.00  0.00    -0.016 C
HETATM   13  C12 UNL     1      25.173  11.031  18.681  1.00  0.00     0.027 C
HETATM   14  C13 UNL     1      25.048  12.208  17.732  1.00  0.00     0.025 C
HETATM   15  C14 UNL     1      26.587  10.519  18.593  1.00  0.00     0.025 C
HETATM   16  C15 UNL     1      22.144  11.703  23.210  1.00  0.00     0.103 C
HETATM   17  C16 UNL     1      21.412  12.924  23.635  1.00  0.00     0.033 C
ENDROOT
BRANCH  16  18
HETATM   18  C17 UNL     1      22.608  11.033  24.447  1.00  0.00     0.187 C
HETATM   19  O5  UNL     1      23.464  11.581  25.160  1.00  0.00    -0.647 OA
HETATM   20  O6  UNL     1      22.100   9.809  24.812  1.00  0.00    -0.647 OA
ENDBRANCH  16  18
BRANCH   1  21
HETATM   21  O1  UNL     1      19.954  11.127  22.352  1.00  0.00    -0.365 OA
HETATM   22  C1  UNL     1      19.028  10.380  23.078  1.00  0.00     0.204 C
ENDBRANCH   1  21
BRANCH   9  23
HETATM   23  O4  UNL     1      26.010  11.818  20.727  1.00  0.00    -0.364 OA
ATOM     24  H4  UNL     1      26.341  11.249  21.412  1.00  0.00     0.213 HD
ENDBRANCH   9  23
TORSDOF 3
ENDMDL