MODEL 5
REMARK VINA RESULT: -6.944730743      2.602      3.525
REMARK  4 active torsions:
REMARK  status: ('A' for Active; 'I' for Inactive)
REMARK    1  A    between atoms: C2_2  and  C3_3
REMARK    2  A    between atoms: C3_3  and  O1_4
REMARK    3  A    between atoms: C13_16  and  C14_17
REMARK    4  A    between atoms: C14_17  and  O3_18
ROOT
HETATM    1  C1  UNL     1      21.704   9.461  19.457  1.00  0.00     0.018 C
HETATM    2  C2  UNL     1      22.870  10.392  19.844  1.00  0.00    -0.014 C
HETATM    3  C4  UNL     1      23.656   9.881  21.011  1.00  0.00     0.044 C
HETATM    4  C5  UNL     1      23.272  10.475  22.329  1.00  0.00     0.187 C
HETATM    5  C6  UNL     1      21.779  10.586  22.436  1.00  0.00     0.033 C
HETATM    6  C7  UNL     1      21.201  11.337  21.278  1.00  0.00     0.010 C
HETATM    7  C8  UNL     1      22.270  11.726  20.238  1.00  0.00     0.035 C
HETATM    8  C9  UNL     1      23.241  12.670  20.696  1.00  0.00     0.128 A
HETATM    9  O2  UNL     1      24.595  12.564  20.307  1.00  0.00    -0.335 OA
HETATM   10  C10 UNL     1      24.945  13.890  20.057  1.00  0.00     0.184 C
HETATM   11  C11 UNL     1      26.388  14.063  19.819  1.00  0.00     0.037 C
HETATM   12  C12 UNL     1      26.885  14.802  18.850  1.00  0.00    -0.019 C
HETATM   13  C13 UNL     1      26.047  15.549  17.882  1.00  0.00     0.032 C
HETATM   14  C15 UNL     1      24.747  14.802  17.719  1.00  0.00     0.016 C
HETATM   15  C16 UNL     1      24.073  14.522  19.023  1.00  0.00     0.074 C
HETATM   16  O4  UNL     1      24.559  14.443  21.303  1.00  0.00    -0.341 OA
HETATM   17  C17 UNL     1      23.266  13.916  21.392  1.00  0.00     0.196 A
HETATM   18  C18 UNL     1      23.073  12.785  22.252  1.00  0.00     0.255 A
HETATM   19  N1  UNL     1      23.948  11.732  22.654  1.00  0.00    -0.061 N
ATOM     20  H11 UNL     1      24.880  11.805  22.245  1.00  0.00     0.278 HD
ATOM     21  H12 UNL     1      24.233  11.796  23.632  1.00  0.00     0.278 HD
ENDROOT
BRANCH  13  22
HETATM   22  C14 UNL     1      25.754  16.956  18.360  1.00  0.00     0.172 C
BRANCH  22  23
HETATM   23  O3  UNL     1      24.893  17.624  17.508  1.00  0.00    -0.400 OA
ATOM     24  H3  UNL     1      24.544  18.415  17.902  1.00  0.00     0.209 HD
ENDBRANCH  22  23
ENDBRANCH  13  22
BRANCH   2  25
HETATM   25  C3  UNL     1      23.720  10.433  18.592  1.00  0.00     0.173 C
BRANCH  25  26
HETATM   26  O1  UNL     1      25.095  10.270  18.939  1.00  0.00    -0.400 OA
ATOM     27  H1  UNL     1      25.583  11.044  18.685  1.00  0.00     0.209 HD
ENDBRANCH  25  26
ENDBRANCH   2  25
TORSDOF 4
ENDMDL