MODEL 3
REMARK VINA RESULT: -7.762243850      4.374      7.042
REMARK  3 active torsions:
REMARK  status: ('A' for Active; 'I' for Inactive)
REMARK    1  A    between atoms: C2_2  and  O1_3
REMARK    2  A    between atoms: C11_14  and  O3_15
REMARK    3  A    between atoms: O3_15  and  S1_16
ROOT
HETATM    1  C1  UNL     1      22.360  13.003  21.234  1.00  0.00     0.049 C
HETATM    2  C2  UNL     1      23.457  13.710  20.427  1.00  0.00     0.081 C
HETATM    3  C3  UNL     1      22.789  14.366  19.274  1.00  0.00     0.040 C
HETATM    4  C4  UNL     1      22.922  13.632  17.967  1.00  0.00     0.004 C
HETATM    5  C5  UNL     1      24.422  13.367  17.781  1.00  0.00     0.013 C
HETATM    6  C6  UNL     1      24.784  12.278  18.801  1.00  0.00    -0.005 C
HETATM    7  C7  UNL     1      23.970  11.087  18.484  1.00  0.00     0.019 C
HETATM    8  C8  UNL     1      24.614  12.864  20.149  1.00  0.00     0.165 C
HETATM    9  O2  UNL     1      25.870  13.507  20.341  1.00  0.00    -0.376 OA
HETATM   10  C9  UNL     1      26.673  12.438  20.140  1.00  0.00     0.133 C
HETATM   11  C10 UNL     1      28.117  12.565  20.199  1.00  0.00     0.066 C
HETATM   12  C11 UNL     1      28.668  11.141  20.046  1.00  0.00     0.147 C
HETATM   13  C12 UNL     1      28.110  10.405  18.881  1.00  0.00     0.034 C
HETATM   14  C13 UNL     1      26.587  10.502  18.769  1.00  0.00     0.015 C
HETATM   15  C14 UNL     1      26.250  11.954  18.769  1.00  0.00    -0.008 C
HETATM   16  C15 UNL     1      26.964  12.609  17.646  1.00  0.00     0.019 C
ENDROOT
BRANCH  12  17
HETATM   17  O3  UNL     1      28.195  10.487  21.208  1.00  0.00    -0.252 OA
BRANCH  17  18
HETATM   18  S1  UNL     1      29.284  10.528  22.447  1.00  0.00     0.251 S
HETATM   19  O4  UNL     1      29.290   9.235  23.194  1.00  0.00    -0.572 OA
HETATM   20  O5  UNL     1      30.688  10.769  21.934  1.00  0.00    -0.572 OA
HETATM   21  O6  UNL     1      28.835  11.803  23.478  1.00  0.00    -0.572 OA
ENDBRANCH  17  18
ENDBRANCH  12  17
BRANCH   2  22
HETATM   22  O1  UNL     1      23.897  14.747  21.292  1.00  0.00    -0.388 OA
ATOM     23  H1  UNL     1      24.589  15.173  20.801  1.00  0.00     0.210 HD
ENDBRANCH   2  22
TORSDOF 3
ENDMDL