MODEL 1
REMARK VINA RESULT: -7.938462719      0.000      0.000
REMARK  4 active torsions:
REMARK  status: ('A' for Active; 'I' for Inactive)
REMARK    1  A    between atoms: C1_2  and  N1_3
REMARK    2  A    between atoms: C1_2  and  N3_14
REMARK    3  A    between atoms: N1_3  and  N2_5
REMARK    4  A    between atoms: C12_19  and  C13_20
ROOT
HETATM    1  N3  UNL     1      21.174  13.348  23.928  1.00  0.00    -0.325 N
HETATM    2  C9  UNL     1      19.766  13.518  23.772  1.00  0.00     0.130 C
HETATM    3  C10 UNL     1      18.970  13.558  25.024  1.00  0.00     0.046 C
HETATM    4  C11 UNL     1      19.637  12.982  26.222  1.00  0.00     0.172 C
HETATM    5  O1  UNL     1      20.963  12.927  26.253  1.00  0.00    -0.361 OA
HETATM    6  C12 UNL     1      21.701  12.827  25.128  1.00  0.00     0.279 C
ENDROOT
BRANCH   1   7
HETATM    7  C1  UNL     1      22.027  13.711  22.859  1.00  0.00     0.191 C
HETATM    8  S1  UNL     1      23.472  14.402  23.185  1.00  0.00    -0.039 SA
BRANCH   7   9
HETATM    9  N1  UNL     1      21.686  13.502  21.500  1.00  0.00    -0.276 N
ATOM     10  H1  UNL     1      21.482  14.307  20.906  1.00  0.00     0.189 HD
BRANCH   9  11
HETATM   11  N2  UNL     1      21.623  12.215  20.956  1.00  0.00    -0.307 N
HETATM   12  C2  UNL     1      22.234  11.892  19.871  1.00  0.00     0.004 C
HETATM   13  C3  UNL     1      23.003  13.002  19.262  1.00  0.00     0.054 C
HETATM   14  C8  UNL     1      22.126  10.514  19.350  1.00  0.00     0.054 C
HETATM   15  C4  UNL     1      24.397  12.442  18.960  1.00  0.00     0.006 C
HETATM   16  C5  UNL     1      24.272  11.400  17.867  1.00  0.00     0.000 C
HETATM   17  C6  UNL     1      24.395  10.000  18.416  1.00  0.00     0.000 C
HETATM   18  C7  UNL     1      23.403   9.726  19.517  1.00  0.00     0.006 C
ATOM     19  H2  UNL     1      21.071  11.506  21.439  1.00  0.00     0.186 HD
ENDBRANCH   9  11
ENDBRANCH   7   9
ENDBRANCH   1   7
BRANCH   6  20
HETATM   20  C13 UNL     1      22.012  11.376  24.929  1.00  0.00     0.092 A
HETATM   21  C14 UNL     1      21.106  10.351  24.747  1.00  0.00     0.139 A
HETATM   22  N4  UNL     1      21.798   9.211  24.612  1.00  0.00    -0.295 N
HETATM   23  N5  UNL     1      23.067   9.510  24.703  1.00  0.00    -0.243 N
ATOM     24  H4  UNL     1      21.406   8.281  24.464  1.00  0.00     0.187 HD
HETATM   25  N6  UNL     1      23.212  10.806  24.893  1.00  0.00    -0.285 N
ATOM     26  H5  UNL     1      23.832   8.839  24.636  1.00  0.00     0.208 HD
ATOM     27  H6  UNL     1      24.103  11.294  24.996  1.00  0.00     0.188 HD
ENDBRANCH   6  20
TORSDOF 4
ENDMDL