MODEL 3
REMARK VINA RESULT: -6.630360205      4.649      8.850
REMARK  10 active torsions:
REMARK  status: ('A' for Active; 'I' for Inactive)
REMARK    1  A    between atoms: C3_3  and  C4_4
REMARK    2  A    between atoms: C4_4  and  O1_5
REMARK    3  A    between atoms: O1_5  and  C5_6
REMARK    4  A    between atoms: C8_10  and  C9_11
REMARK       I    between atoms: C9_11  and  N1_13
REMARK    5  A    between atoms: N1_13  and  C10_15
REMARK    6  A    between atoms: C10_15  and  C11_16
REMARK    7  A    between atoms: C10_15  and  C15_20
REMARK    8  A    between atoms: C11_16  and  C12_17
REMARK       I    between atoms: C15_20  and  N2_22
REMARK    9  A    between atoms: N2_22  and  C16_24
REMARK   10  A    between atoms: C21_29  and  C22_30
ROOT
HETATM    1  C1  UNL     1      23.470   8.552  11.303  1.00  0.00     0.112 C
HETATM    2  C2  UNL     1      23.657  10.003  11.405  1.00  0.00    -0.109 C
HETATM    3  C3  UNL     1      23.811  11.216  11.465  1.00  0.00    -0.080 C
ENDROOT
BRANCH   3   4
HETATM    4  C4  UNL     1      24.009  12.652  11.509  1.00  0.00     0.269 C
BRANCH   4   5
HETATM    5  O1  UNL     1      23.690  13.132  12.777  1.00  0.00    -0.339 OA
BRANCH   5   6
HETATM    6  C5  UNL     1      22.468  13.239  13.365  1.00  0.00     0.080 A
HETATM    7  C6  UNL     1      21.325  13.630  12.730  1.00  0.00     0.080 A
HETATM    8  C7  UNL     1      20.102  13.720  13.391  1.00  0.00     0.134 A
HETATM    9  F1  UNL     1      19.004  14.133  12.683  1.00  0.00    -0.205 F
HETATM   10  C8  UNL     1      19.999  13.417  14.721  1.00  0.00     0.071 A
HETATM   11  C20 UNL     1      21.187  13.019  15.345  1.00  0.00     0.030 A
HETATM   12  C21 UNL     1      22.399  12.923  14.717  1.00  0.00    -0.016 A
BRANCH  10  13
HETATM   13  C9  UNL     1      18.776  13.476  15.482  1.00  0.00     0.255 C
HETATM   14  O2  UNL     1      17.853  12.642  15.146  1.00  0.00    -0.268 OA
HETATM   15  N1  UNL     1      18.473  14.328  16.540  1.00  0.00    -0.344 N
ATOM     16  H1  UNL     1      19.142  15.029  16.860  1.00  0.00     0.163 HD
BRANCH  15  17
HETATM   17  C10 UNL     1      17.139  14.182  17.191  1.00  0.00     0.177 C
BRANCH  17  18
HETATM   18  C11 UNL     1      16.970  15.483  17.956  1.00  0.00     0.038 C
BRANCH  18  19
HETATM   19  C12 UNL     1      16.371  16.593  17.163  1.00  0.00    -0.020 C
HETATM   20  C13 UNL     1      15.703  17.636  18.026  1.00  0.00     0.009 C
HETATM   21  C14 UNL     1      15.317  15.984  16.259  1.00  0.00     0.009 C
ENDBRANCH  18  19
ENDBRANCH  17  18
BRANCH  17  22
HETATM   22  C15 UNL     1      17.262  13.037  18.124  1.00  0.00     0.241 C
HETATM   23  O3  UNL     1      18.069  13.150  19.092  1.00  0.00    -0.271 OA
HETATM   24  N2  UNL     1      16.550  11.817  18.018  1.00  0.00    -0.351 N
ATOM     25  H2  UNL     1      15.899  11.692  17.242  1.00  0.00     0.163 HD
BRANCH  24  26
HETATM   26  C16 UNL     1      16.712  10.749  18.964  1.00  0.00     0.022 C
HETATM   27  C17 UNL     1      17.930   9.911  18.605  1.00  0.00     0.037 C
HETATM   28  C18 UNL     1      15.511   9.813  18.845  1.00  0.00     0.037 C
HETATM   29  C19 UNL     1      16.811  11.233  20.387  1.00  0.00     0.037 C
ENDBRANCH  24  26
ENDBRANCH  17  22
ENDBRANCH  15  17
ENDBRANCH  10  13
BRANCH  12  30
HETATM   30  C22 UNL     1      23.581  12.500  15.479  1.00  0.00    -0.021 C
HETATM   31  C23 UNL     1      23.208  12.341  16.928  1.00  0.00     0.019 C
HETATM   32  C24 UNL     1      24.143  11.174  14.996  1.00  0.00     0.019 C
HETATM   33  C25 UNL     1      24.700  13.519  15.435  1.00  0.00     0.019 C
ENDBRANCH  12  30
ENDBRANCH   5   6
ENDBRANCH   4   5
ENDBRANCH   3   4
TORSDOF 10
ENDMDL