MODEL 2
REMARK VINA RESULT: -7.618310937      2.920      5.682
REMARK  9 active torsions:
REMARK  status: ('A' for Active; 'I' for Inactive)
REMARK    1  A    between atoms: S1_2  and  C2_3
REMARK    2  A    between atoms: C2_3  and  C3_4
REMARK    3  A    between atoms: C3_4  and  C4_5
REMARK    4  A    between atoms: C4_5  and  N1_6
REMARK    5  A    between atoms: C4_5  and  C12_20
REMARK    6  A    between atoms: N1_6  and  C5_8
REMARK    7  A    between atoms: C5_8  and  N2_10
REMARK    8  A    between atoms: N2_10  and  C6_12
REMARK       I    between atoms: C12_20  and  N3_22
REMARK    9  A    between atoms: C17_27  and  C18_28
ROOT
HETATM    1  C4  UNL     1      18.614  12.674  16.996  1.00  0.00     0.177 C
ENDROOT
BRANCH   1   2
HETATM    2  C3  UNL     1      18.390  11.800  18.225  1.00  0.00     0.045 C
BRANCH   2   3
HETATM    3  C2  UNL     1      17.561  12.388  19.291  1.00  0.00     0.076 C
BRANCH   3   4
HETATM    4  S1  UNL     1      16.466  11.122  20.006  1.00  0.00    -0.173 SA
HETATM    5  C1  UNL     1      16.127   9.857  18.748  1.00  0.00     0.089 C
ENDBRANCH   3   4
ENDBRANCH   2   3
ENDBRANCH   1   2
BRANCH   1   6
HETATM    6  N1  UNL     1      17.710  12.158  15.950  1.00  0.00    -0.354 N
ATOM      7  H1  UNL     1      17.599  11.147  15.866  1.00  0.00     0.162 HD
BRANCH   6   8
HETATM    8  C5  UNL     1      16.994  12.978  15.065  1.00  0.00     0.172 C
HETATM    9  S2  UNL     1      17.346  12.973  13.455  1.00  0.00    -0.041 SA
BRANCH   8  10
HETATM   10  N2  UNL     1      15.998  13.842  15.537  1.00  0.00    -0.333 N
ATOM     11  H2  UNL     1      15.040  13.569  15.320  1.00  0.00     0.168 HD
BRANCH  10  12
HETATM   12  C6  UNL     1      16.140  15.033  16.267  1.00  0.00     0.040 A
HETATM   13  C7  UNL     1      17.324  15.631  16.596  1.00  0.00     0.072 A
HETATM   14  C8  UNL     1      17.386  16.809  17.362  1.00  0.00     0.121 A
HETATM   15  F1  UNL     1      18.579  17.364  17.663  1.00  0.00    -0.206 F
HETATM   16  C9  UNL     1      16.246  17.422  17.820  1.00  0.00     0.084 A
HETATM   17  C10 UNL     1      15.049  16.831  17.494  1.00  0.00     0.121 A
HETATM   18  F2  UNL     1      13.916  17.442  17.950  1.00  0.00    -0.206 F
HETATM   19  C11 UNL     1      14.986  15.686  16.751  1.00  0.00     0.072 A
ENDBRANCH  10  12
ENDBRANCH   8  10
ENDBRANCH   6   8
ENDBRANCH   1   6
BRANCH   1  20
HETATM   20  C12 UNL     1      20.000  12.542  16.499  1.00  0.00     0.243 C
HETATM   21  O1  UNL     1      20.451  11.365  16.612  1.00  0.00    -0.271 OA
HETATM   22  N3  UNL     1      20.795  13.532  15.960  1.00  0.00    -0.345 N
HETATM   23  C13 UNL     1      20.174  14.873  15.780  1.00  0.00     0.126 C
HETATM   24  C17 UNL     1      22.155  13.547  15.554  1.00  0.00     0.094 C
HETATM   25  C14 UNL     1      20.229  15.225  14.344  1.00  0.00     0.020 C
HETATM   26  C15 UNL     1      21.517  15.035  13.631  1.00  0.00     0.004 C
HETATM   27  C16 UNL     1      22.318  13.860  14.069  1.00  0.00     0.026 C
BRANCH  24  28
HETATM   28  C18 UNL     1      23.094  12.468  15.935  1.00  0.00    -0.031 C
HETATM   29  C19 UNL     1      23.260  12.277  17.408  1.00  0.00     0.016 C
HETATM   30  C20 UNL     1      24.493  13.057  15.501  1.00  0.00     0.016 C
HETATM   31  C21 UNL     1      23.018  11.186  15.189  1.00  0.00     0.016 C
ENDBRANCH  24  28
ENDBRANCH   1  20
TORSDOF 9
ENDMDL