MODEL 4
REMARK VINA RESULT: -6.446107208      3.047      6.247
REMARK  9 active torsions:
REMARK  status: ('A' for Active; 'I' for Inactive)
REMARK    1  A    between atoms: C2_2  and  C3_3
REMARK    2  A    between atoms: C3_3  and  C4_4
REMARK    3  A    between atoms: C10_12  and  C11_13
REMARK    4  A    between atoms: C13_16  and  N2_17
REMARK    5  A    between atoms: N2_17  and  C14_19
REMARK    6  A    between atoms: C14_19  and  N3_21
REMARK    7  A    between atoms: N3_21  and  C15_23
REMARK    8  A    between atoms: C15_23  and  C16_24
REMARK    9  A    between atoms: C16_24  and  C17_25
ROOT
HETATM    1  C4  UNL     1      21.415  14.112  13.956  1.00  0.00    -0.060 C
HETATM    2  C5  UNL     1      21.138  15.369  14.279  1.00  0.00     0.019 C
HETATM    3  C6  UNL     1      19.700  15.701  14.184  1.00  0.00     0.118 C
HETATM    4  C7  UNL     1      19.456  17.171  14.462  1.00  0.00     0.055 C
HETATM    5  O1  UNL     1      19.384  15.428  12.824  1.00  0.00    -0.286 OA
HETATM    6  N1  UNL     1      19.408  14.108  12.618  1.00  0.00    -0.191 NA
HETATM    7  C8  UNL     1      19.681  13.689  11.282  1.00  0.00     0.144 C
HETATM    8  C9  UNL     1      20.152  13.355  13.598  1.00  0.00     0.124 C
HETATM    9  C10 UNL     1      19.348  13.389  14.890  1.00  0.00     0.059 C
HETATM   10  C13 UNL     1      18.771  14.816  14.958  1.00  0.00     0.133 C
ENDROOT
BRANCH  10  11
HETATM   11  N2  UNL     1      18.590  15.242  16.322  1.00  0.00    -0.359 N
ATOM     12  H2  UNL     1      19.378  15.585  16.871  1.00  0.00     0.162 HD
BRANCH  11  13
HETATM   13  C14 UNL     1      17.288  15.173  16.887  1.00  0.00     0.168 C
HETATM   14  S1  UNL     1      15.971  15.715  16.086  1.00  0.00    -0.041 SA
BRANCH  13  15
HETATM   15  N3  UNL     1      17.089  14.662  18.195  1.00  0.00    -0.367 N
ATOM     16  H3  UNL     1      16.573  15.199  18.893  1.00  0.00     0.161 HD
BRANCH  15  17
HETATM   17  C15 UNL     1      17.625  13.384  18.511  1.00  0.00     0.125 C
BRANCH  17  18
HETATM   18  C16 UNL     1      16.857  12.178  18.155  1.00  0.00     0.062 C
BRANCH  18  19
HETATM   19  C17 UNL     1      16.916  11.078  19.142  1.00  0.00     0.098 C
HETATM   20  C18 UNL     1      16.036   9.943  18.554  1.00  0.00     0.051 C
HETATM   21  C19 UNL     1      16.497  11.385  20.527  1.00  0.00     0.051 C
HETATM   22  F1  UNL     1      18.195  10.511  19.221  1.00  0.00    -0.244 F
ENDBRANCH  18  19
ENDBRANCH  17  18
ENDBRANCH  15  17
ENDBRANCH  13  15
ENDBRANCH  11  13
ENDBRANCH  10  11
BRANCH   9  23
HETATM   23  C11 UNL     1      20.145  13.030  16.055  1.00  0.00    -0.011 C
HETATM   24  C12 UNL     1      20.270  11.845  16.606  1.00  0.00     0.052 C
HETATM   25 BR1  UNL     1      19.404  10.277  15.968  1.00  0.00    -0.064 Br
ENDBRANCH   9  23
BRANCH   1  26
HETATM   26  C3  UNL     1      22.721  13.466  13.943  1.00  0.00     0.035 C
BRANCH  26  27
HETATM   27  C2  UNL     1      23.589  13.843  15.118  1.00  0.00    -0.000 C
HETATM   28  C1  UNL     1      23.870  12.545  15.879  1.00  0.00     0.005 C
ENDBRANCH  26  27
ENDBRANCH   1  26
TORSDOF 9
ENDMDL