MODEL 1
REMARK VINA RESULT: -6.496308339      0.000      0.000
REMARK  8 active torsions:
REMARK  status: ('A' for Active; 'I' for Inactive)
REMARK    1  A    between atoms: C2_2  and  C3_3
REMARK    2  A    between atoms: C3_3  and  C4_4
REMARK    3  A    between atoms: C4_4  and  N1_5
REMARK    4  A    between atoms: N1_5  and  C6_7
REMARK    5  A    between atoms: N1_5  and  C11_12
REMARK    6  A    between atoms: C6_7  and  C7_8
REMARK    7  A    between atoms: C12_14  and  C13_15
REMARK    8  A    between atoms: C17_26  and  C18_27
ROOT
HETATM    1  C11 UNL     1      18.312  14.415  16.279  1.00  0.00     0.290 C
HETATM    2  S1  UNL     1      16.859  13.843  17.160  1.00  0.00    -0.094 SA
HETATM    3  C12 UNL     1      17.783  12.841  18.392  1.00  0.00     0.301 C
HETATM    4  N3  UNL     1      19.097  12.824  17.868  1.00  0.00    -0.043 N
ATOM      5  H31 UNL     1      19.249  12.006  17.277  1.00  0.00     0.280 HD
ATOM      6  H32 UNL     1      19.783  12.626  18.596  1.00  0.00     0.280 HD
HETATM    7  C17 UNL     1      19.408  14.025  17.177  1.00  0.00     0.289 C
ENDROOT
BRANCH   1   8
HETATM    8  N1  UNL     1      18.248  15.808  15.884  1.00  0.00    -0.055 N
HETATM    9  C5  UNL     1      19.224  16.565  16.655  1.00  0.00     0.274 C
BRANCH   8  10
HETATM   10  C4  UNL     1      16.988  16.337  16.400  1.00  0.00     0.238 C
BRANCH  10  11
HETATM   11  C3  UNL     1      17.071  17.148  17.633  1.00  0.00     0.028 C
BRANCH  11  12
HETATM   12  C2  UNL     1      15.721  17.875  17.797  1.00  0.00    -0.003 C
HETATM   13  C1  UNL     1      14.575  16.907  17.629  1.00  0.00     0.005 C
ENDBRANCH  11  12
ENDBRANCH  10  11
ENDBRANCH   8  10
BRANCH   8  14
HETATM   14  C6  UNL     1      18.380  15.886  14.494  1.00  0.00     0.246 C
BRANCH  14  15
HETATM   15  C7  UNL     1      19.524  16.471  13.800  1.00  0.00    -0.027 C
HETATM   16  C8  UNL     1      20.000  17.828  14.157  1.00  0.00     0.016 C
HETATM   17  C9  UNL     1      19.021  16.593  12.331  1.00  0.00     0.016 C
HETATM   18  C10 UNL     1      20.749  15.577  13.646  1.00  0.00     0.016 C
ENDBRANCH  14  15
ENDBRANCH   8  14
ENDBRANCH   1   8
BRANCH   7  19
HETATM   19  C18 UNL     1      20.649  13.800  16.415  1.00  0.00     0.267 C
HETATM   20  O1  UNL     1      21.416  12.930  16.759  1.00  0.00    -0.305 OA
ENDBRANCH   7  19
BRANCH   3  21
HETATM   21  C13 UNL     1      17.239  11.483  18.454  1.00  0.00     0.069 A
HETATM   22  N2  UNL     1      16.225  11.122  19.295  1.00  0.00    -0.347 N
HETATM   23  C14 UNL     1      15.936   9.805  19.117  1.00  0.00     0.105 A
ATOM     24  H2  UNL     1      15.757  11.743  19.955  1.00  0.00     0.167 HD
HETATM   25 CL1  UNL     1      14.709   8.878  19.965  1.00  0.00    -0.065 Cl
HETATM   26  C15 UNL     1      16.765   9.299  18.152  1.00  0.00     0.063 A
HETATM   27  C16 UNL     1      17.565  10.354  17.753  1.00  0.00     0.039 A
HETATM   28 BR1  UNL     1      18.921  10.166  16.410  1.00  0.00    -0.049 Br
ENDBRANCH   3  21
TORSDOF 8
ENDMDL