MODEL 5
REMARK VINA RESULT: -7.070662774      3.270      5.059
REMARK  9 active torsions:
REMARK  status: ('A' for Active; 'I' for Inactive)
REMARK    1  A    between atoms: C2_2  and  C4_4
REMARK    2  A    between atoms: C4_4  and  C5_6
REMARK    3  A    between atoms: C5_6  and  C6_7
REMARK    4  A    between atoms: C6_7  and  O1_8
REMARK    5  A    between atoms: C6_7  and  C7_10
REMARK    6  A    between atoms: C17_20  and  N1_21
REMARK    7  A    between atoms: N1_21  and  S1_23
REMARK    8  A    between atoms: S1_23  and  C18_26
REMARK    9  A    between atoms: C18_26  and  C19_27
ROOT
HETATM    1  C7  UNL     1      19.786  13.361  15.987  1.00  0.00     0.046 C
HETATM    2  C8  UNL     1      19.362  14.794  16.020  1.00  0.00     0.018 C
HETATM    3  C9  UNL     1      19.446  15.327  14.571  1.00  0.00     0.015 C
HETATM    4  C10 UNL     1      19.523  16.845  14.743  1.00  0.00     0.009 C
HETATM    5  C11 UNL     1      19.941  17.513  13.473  1.00  0.00     0.001 C
HETATM    6  C12 UNL     1      19.966  16.498  12.358  1.00  0.00     0.004 C
HETATM    7  C13 UNL     1      21.072  15.512  12.653  1.00  0.00     0.035 C
HETATM    8  C14 UNL     1      20.728  14.870  14.010  1.00  0.00    -0.072 C
HETATM    9  C15 UNL     1      21.567  14.000  14.519  1.00  0.00    -0.057 C
HETATM   10  C16 UNL     1      22.822  13.708  13.735  1.00  0.00     0.046 C
HETATM   11  C17 UNL     1      21.308  13.280  15.832  1.00  0.00     0.128 C
ENDROOT
BRANCH  11  12
HETATM   12  N1  UNL     1      21.709  11.934  15.697  1.00  0.00    -0.310 N
ATOM     13  H1  UNL     1      21.226  11.328  15.034  1.00  0.00     0.172 HD
BRANCH  12  14
HETATM   14  S1  UNL     1      22.973  11.320  16.616  1.00  0.00     0.227 S
HETATM   15  O2  UNL     1      22.787  11.753  18.089  1.00  0.00    -0.206 OA
HETATM   16  O3  UNL     1      24.301  11.842  16.238  1.00  0.00    -0.206 OA
BRANCH  14  17
HETATM   17  C18 UNL     1      22.921   9.553  16.667  1.00  0.00     0.171 C
BRANCH  17  18
HETATM   18  C19 UNL     1      23.649   8.910  15.517  1.00  0.00    -0.037 C
HETATM   19  C20 UNL     1      23.448   9.588  14.209  1.00  0.00     0.015 C
HETATM   20  C21 UNL     1      23.154   7.482  15.390  1.00  0.00     0.015 C
HETATM   21  C22 UNL     1      25.138   8.830  15.789  1.00  0.00     0.015 C
ENDBRANCH  17  18
ENDBRANCH  14  17
ENDBRANCH  12  14
ENDBRANCH  11  12
BRANCH   1  22
HETATM   22  C6  UNL     1      19.128  12.473  16.923  1.00  0.00     0.149 C
BRANCH  22  23
HETATM   23  C5  UNL     1      17.735  12.449  17.304  1.00  0.00     0.029 C
BRANCH  23  24
HETATM   24  C4  UNL     1      17.036  11.482  18.141  1.00  0.00     0.037 C
HETATM   25 CL1  UNL     1      17.401   9.766  17.844  1.00  0.00    -0.084 Cl
BRANCH  24  26
HETATM   26  C2  UNL     1      16.813  11.800  19.560  1.00  0.00    -0.050 C
HETATM   27  C1  UNL     1      16.270  10.918  20.377  1.00  0.00     0.020 C
HETATM   28  C3  UNL     1      17.153  13.152  20.082  1.00  0.00     0.049 C
ENDBRANCH  24  26
ENDBRANCH  23  24
ENDBRANCH  22  23
BRANCH  22  29
HETATM   29  O1  UNL     1      19.919  12.593  18.163  1.00  0.00    -0.391 OA
ATOM     30  H1  UNL     1      20.826  12.712  17.908  1.00  0.00     0.210 HD
ENDBRANCH  22  29
ENDBRANCH   1  22
TORSDOF 9
ENDMDL