MODEL 5
REMARK VINA RESULT: -7.861472651      3.302      7.089
REMARK  8 active torsions:
REMARK  status: ('A' for Active; 'I' for Inactive)
REMARK    1  A    between atoms: C5_5  and  C6_6
REMARK       I    between atoms: C6_6  and  N1_8
REMARK    2  A    between atoms: N1_8  and  C7_10
REMARK    3  A    between atoms: C7_10  and  C8_11
REMARK    4  A    between atoms: C8_11  and  C9_12
REMARK    5  A    between atoms: C9_12  and  C10_13
REMARK    6  A    between atoms: C10_13  and  N2_14
REMARK    7  A    between atoms: C23_27  and  O2_28
REMARK    8  A    between atoms: C23_27  and  C24_30
ROOT
HETATM    1  N2  UNL     1      18.922  10.053  14.726  1.00  0.00     0.093 N
HETATM    2  C11 UNL     1      19.345   9.589  13.463  1.00  0.00     0.273 C
HETATM    3  C12 UNL     1      20.769   9.864  13.125  1.00  0.00     0.031 C
HETATM    4  C13 UNL     1      21.475  10.765  14.059  1.00  0.00     0.009 C
HETATM    5  C14 UNL     1      20.637  11.805  14.765  1.00  0.00     0.024 C
HETATM    6  C15 UNL     1      19.216  11.445  14.995  1.00  0.00     0.227 C
HETATM    7  C16 UNL     1      18.199  12.345  14.352  1.00  0.00     0.037 C
HETATM    8  C17 UNL     1      18.627  13.055  13.124  1.00  0.00     0.015 C
HETATM    9  C18 UNL     1      19.970  13.657  13.150  1.00  0.00    -0.004 C
HETATM   10  C19 UNL     1      20.659  13.339  11.810  1.00  0.00     0.019 C
HETATM   11  C20 UNL     1      20.875  13.186  14.223  1.00  0.00     0.003 C
HETATM   12  C21 UNL     1      20.729  14.169  15.375  1.00  0.00     0.009 C
HETATM   13  C22 UNL     1      20.114  15.406  14.799  1.00  0.00     0.045 C
HETATM   14  C23 UNL     1      20.044  15.145  13.309  1.00  0.00     0.124 C
ENDROOT
BRANCH   1  15
HETATM   15  C10 UNL     1      19.283   9.228  15.853  1.00  0.00     0.273 C
BRANCH  15  16
HETATM   16  C9  UNL     1      19.127   9.913  17.165  1.00  0.00     0.032 C
BRANCH  16  17
HETATM   17  C8  UNL     1      17.722   9.793  17.693  1.00  0.00     0.021 C
BRANCH  17  18
HETATM   18  C7  UNL     1      17.449  10.863  18.723  1.00  0.00     0.122 C
BRANCH  18  19
HETATM   19  N1  UNL     1      17.026  12.064  17.986  1.00  0.00    -0.361 N
HETATM   20  C6  UNL     1      17.870  13.201  17.915  1.00  0.00     0.221 C
HETATM   21  O1  UNL     1      18.982  13.159  18.492  1.00  0.00    -0.273 OA
ATOM     22  H1  UNL     1      16.118  12.078  17.521  1.00  0.00     0.162 HD
BRANCH  20  23
HETATM   23  C5  UNL     1      17.459  14.415  17.178  1.00  0.00     0.078 C
HETATM   24  C4  UNL     1      16.041  14.299  16.721  1.00  0.00     0.014 C
HETATM   25  C3  UNL     1      15.412  15.604  16.331  1.00  0.00     0.005 C
HETATM   26  C2  UNL     1      15.597  16.606  17.443  1.00  0.00    -0.019 C
HETATM   27  C1  UNL     1      14.855  17.881  17.200  1.00  0.00     0.010 C
HETATM   28  C26 UNL     1      17.102  16.874  17.540  1.00  0.00     0.005 C
HETATM   29  C25 UNL     1      17.713  15.599  18.074  1.00  0.00     0.014 C
ENDBRANCH  20  23
ENDBRANCH  18  19
ENDBRANCH  17  18
ENDBRANCH  16  17
ENDBRANCH  15  16
ENDBRANCH   1  15
BRANCH  14  30
HETATM   30  O2  UNL     1      21.227  15.656  12.773  1.00  0.00    -0.383 OA
ATOM     31  H2  UNL     1      21.935  15.026  12.833  1.00  0.00     0.210 HD
ENDBRANCH  14  30
BRANCH  14  32
HETATM   32  C24 UNL     1      18.923  15.945  12.761  1.00  0.00     0.388 C
HETATM   33  F1  UNL     1      18.250  16.459  13.887  1.00  0.00    -0.211 F
HETATM   34  F2  UNL     1      19.290  17.037  12.023  1.00  0.00    -0.211 F
ENDBRANCH  14  32
TORSDOF 8
ENDMDL