MODEL 3
REMARK VINA RESULT: -7.490596498      3.446      7.272
REMARK  8 active torsions:
REMARK  status: ('A' for Active; 'I' for Inactive)
REMARK    1  A    between atoms: C4_4  and  C5_5
REMARK    2  A    between atoms: C5_5  and  N1_6
REMARK    3  A    between atoms: C8_9  and  N2_10
REMARK    4  A    between atoms: N2_10  and  C9_12
REMARK    5  A    between atoms: C9_12  and  C10_13
REMARK    6  A    between atoms: C9_12  and  C17_23
REMARK       I    between atoms: C10_13  and  N3_15
REMARK    7  A    between atoms: N3_15  and  C11_17
REMARK    8  A    between atoms: C23_29  and  C24_30
ROOT
HETATM    1  N1  UNL     1      18.091  15.193  14.773  1.00  0.00     0.092 N
HETATM    2  C6  UNL     1      17.132  15.359  15.840  1.00  0.00     0.275 C
HETATM    3  C7  UNL     1      17.514  14.516  17.061  1.00  0.00     0.055 C
HETATM    4  C8  UNL     1      17.491  13.073  16.680  1.00  0.00     0.080 C
HETATM    5  C20 UNL     1      17.264  12.901  15.194  1.00  0.00     0.055 C
HETATM    6  C21 UNL     1      18.296  13.781  14.500  1.00  0.00     0.275 C
ENDROOT
BRANCH   4   7
HETATM    7  N2  UNL     1      16.760  12.194  17.487  1.00  0.00    -0.405 N
ATOM      8  H2  UNL     1      15.785  11.973  17.282  1.00  0.00     0.154 HD
BRANCH   7   9
HETATM    9  C9  UNL     1      17.421  11.623  18.597  1.00  0.00     0.173 C
BRANCH   9  10
HETATM   10  C10 UNL     1      17.804  10.262  17.927  1.00  0.00     0.240 C
HETATM   11  O1  UNL     1      17.059   9.339  17.895  1.00  0.00    -0.271 OA
HETATM   12  N3  UNL     1      19.157  10.238  17.391  1.00  0.00    -0.355 N
ATOM     13  H3  UNL     1      19.727  11.084  17.400  1.00  0.00     0.162 HD
BRANCH  12  14
HETATM   14  C11 UNL     1      19.672   9.035  16.860  1.00  0.00     0.084 C
HETATM   15  C12 UNL     1      19.178   8.775  15.440  1.00  0.00     0.025 C
HETATM   16  C13 UNL     1      19.339  10.042  14.619  1.00  0.00     0.002 C
HETATM   17  C14 UNL     1      20.703  10.614  14.813  1.00  0.00     0.000 C
HETATM   18  C15 UNL     1      21.661   9.676  15.475  1.00  0.00     0.002 C
HETATM   19  C16 UNL     1      21.198   9.061  16.748  1.00  0.00     0.025 C
ENDBRANCH  12  14
ENDBRANCH   9  10
BRANCH   9  20
HETATM   20  C17 UNL     1      16.945  11.346  19.914  1.00  0.00     0.009 C
HETATM   21  C18 UNL     1      16.728  12.687  20.659  1.00  0.00     0.012 C
HETATM   22  C19 UNL     1      15.677  10.555  20.062  1.00  0.00     0.012 C
ENDBRANCH   9  20
ENDBRANCH   7   9
ENDBRANCH   4   7
BRANCH   1  23
HETATM   23  C5  UNL     1      19.340  15.778  15.318  1.00  0.00     0.311 C
BRANCH  23  24
HETATM   24  C4  UNL     1      20.409  15.127  14.479  1.00  0.00    -0.029 A
HETATM   25  C3  UNL     1      20.426  15.065  13.136  1.00  0.00     0.015 A
HETATM   26  C2  UNL     1      21.457  14.394  12.473  1.00  0.00    -0.061 A
HETATM   27  C1  UNL     1      21.468  14.333  10.995  1.00  0.00     0.048 C
HETATM   28  C26 UNL     1      22.458  13.798  13.201  1.00  0.00     0.020 A
HETATM   29  C23 UNL     1      22.485  13.833  14.592  1.00  0.00     0.013 A
HETATM   30  C22 UNL     1      21.432  14.517  15.191  1.00  0.00     0.022 A
BRANCH  29  31
HETATM   31  C24 UNL     1      23.520  13.209  15.423  1.00  0.00     0.267 C
HETATM   32  C25 UNL     1      23.035  12.844  16.788  1.00  0.00     0.096 C
HETATM   33  F1  UNL     1      23.907  12.008  14.817  1.00  0.00    -0.201 F
HETATM   34  F2  UNL     1      24.627  14.013  15.413  1.00  0.00    -0.201 F
ENDBRANCH  29  31
ENDBRANCH  23  24
ENDBRANCH   1  23
TORSDOF 8
ENDMDL