MODEL 1
REMARK VINA RESULT: -7.455948259      0.000      0.000
REMARK  9 active torsions:
REMARK  status: ('A' for Active; 'I' for Inactive)
REMARK    1  A    between atoms: C4_4  and  C5_5
REMARK    2  A    between atoms: C5_5  and  O1_6
REMARK    3  A    between atoms: O1_6  and  C6_7
REMARK    4  A    between atoms: C8_9  and  N1_10
REMARK    5  A    between atoms: N1_10  and  C9_12
REMARK    6  A    between atoms: C9_12  and  N2_14
REMARK    7  A    between atoms: N2_14  and  C10_16
REMARK    8  A    between atoms: C10_16  and  C11_17
REMARK    9  A    between atoms: C11_17  and  N3_19
ROOT
HETATM    1  C6  UNL     1      18.158  11.958  18.620  1.00  0.00     0.091 A
HETATM    2  C7  UNL     1      18.547  11.027  17.653  1.00  0.00     0.067 A
HETATM    3  C8  UNL     1      17.899   9.836  17.497  1.00  0.00     0.040 A
HETATM    4  C17 UNL     1      16.814   9.491  18.302  1.00  0.00     0.073 A
HETATM    5  C18 UNL     1      16.406  10.383  19.263  1.00  0.00     0.138 A
HETATM    6  F1  UNL     1      15.349  10.021  20.030  1.00  0.00    -0.204 F
HETATM    7  C19 UNL     1      17.063  11.576  19.408  1.00  0.00     0.083 A
HETATM    8 BR1  UNL     1      16.471  12.793  20.750  1.00  0.00    -0.045 Br
ENDROOT
BRANCH   3   9
HETATM    9  N1  UNL     1      18.295   8.924  16.483  1.00  0.00    -0.333 N
ATOM     10  H1  UNL     1      17.946   7.967  16.542  1.00  0.00     0.168 HD
BRANCH   9  11
HETATM   11  C9  UNL     1      19.134   9.251  15.406  1.00  0.00     0.172 C
HETATM   12  S1  UNL     1      20.645   8.548  15.328  1.00  0.00    -0.041 SA
BRANCH  11  13
HETATM   13  N2  UNL     1      18.771  10.181  14.422  1.00  0.00    -0.365 N
ATOM     14  H2  UNL     1      17.906   9.952  13.932  1.00  0.00     0.161 HD
BRANCH  13  15
HETATM   15  C10 UNL     1      19.391  11.388  13.982  1.00  0.00     0.157 C
BRANCH  15  16
HETATM   16  C11 UNL     1      18.799  12.663  14.442  1.00  0.00     0.236 C
HETATM   17  C12 UNL     1      17.318  12.741  14.530  1.00  0.00     0.044 C
BRANCH  16  18
HETATM   18  N3  UNL     1      19.380  13.828  13.808  1.00  0.00     0.094 N
HETATM   19  C13 UNL     1      18.724  15.050  14.106  1.00  0.00     0.273 C
HETATM   20  C14 UNL     1      19.820  16.120  13.935  1.00  0.00     0.032 C
HETATM   21  C15 UNL     1      21.026  15.358  14.380  1.00  0.00     0.032 C
HETATM   22  C16 UNL     1      20.780  13.959  13.877  1.00  0.00     0.273 C
ENDBRANCH  16  18
ENDBRANCH  15  16
ENDBRANCH  13  15
ENDBRANCH  11  13
ENDBRANCH   9  11
ENDBRANCH   3   9
BRANCH   1  23
HETATM   23  O1  UNL     1      18.769  13.146  18.801  1.00  0.00    -0.346 OA
BRANCH  23  24
HETATM   24  C5  UNL     1      18.714  14.285  18.036  1.00  0.00     0.203 C
BRANCH  24  25
HETATM   25  C4  UNL     1      17.362  14.800  17.699  1.00  0.00     0.001 C
HETATM   26  C2  UNL     1      17.185  16.090  17.346  1.00  0.00    -0.089 C
HETATM   27  C1  UNL     1      15.825  16.543  17.023  1.00  0.00     0.042 C
HETATM   28  C3  UNL     1      18.345  17.020  17.291  1.00  0.00     0.042 C
ENDBRANCH  24  25
ENDBRANCH  23  24
ENDBRANCH   1  23
TORSDOF 9
ENDMDL