MODEL 5
REMARK VINA RESULT: -7.356469973      1.935      2.628
REMARK  8 active torsions:
REMARK  status: ('A' for Active; 'I' for Inactive)
REMARK    1  A    between atoms: N1_10  and  C8_11
REMARK    2  A    between atoms: C8_11  and  C9_12
REMARK    3  A    between atoms: C9_12  and  C10_13
REMARK    4  A    between atoms: C10_13  and  C11_14
REMARK    5  A    between atoms: C11_14  and  C12_15
REMARK    6  A    between atoms: C12_15  and  C13_16
REMARK       I    between atoms: C13_16  and  N2_18
REMARK    7  A    between atoms: N2_18  and  C14_20
REMARK    8  A    between atoms: C20_26  and  O2_27
ROOT
HETATM    1  C9  UNL     1      19.247   9.951  16.796  1.00  0.00     0.020 C
ENDROOT
BRANCH   1   2
HETATM    2  C8  UNL     1      19.945  11.267  16.884  1.00  0.00     0.126 C
BRANCH   2   3
HETATM    3  N1  UNL     1      20.366  11.706  15.587  1.00  0.00    -0.346 N
HETATM    4  C7  UNL     1      19.547  12.637  14.775  1.00  0.00     0.102 C
HETATM    5  C6  UNL     1      18.602  11.773  13.996  1.00  0.00     0.105 C
HETATM    6  C23 UNL     1      20.539  13.388  13.959  1.00  0.00    -0.008 C
HETATM    7  C5  UNL     1      17.889  12.475  12.887  1.00  0.00     0.246 C
HETATM    8  C4  UNL     1      18.555  13.772  12.488  1.00  0.00     0.088 C
HETATM    9  F1  UNL     1      16.568  12.752  13.183  1.00  0.00    -0.206 F
HETATM   10  F2  UNL     1      17.880  11.639  11.773  1.00  0.00    -0.206 F
HETATM   11  C2  UNL     1      20.073  13.651  12.545  1.00  0.00    -0.033 C
HETATM   12  C1  UNL     1      20.620  14.989  12.057  1.00  0.00     0.016 C
HETATM   13  C3  UNL     1      20.552  12.611  11.556  1.00  0.00     0.016 C
HETATM   14  C22 UNL     1      21.813  12.594  14.025  1.00  0.00     0.115 C
HETATM   15  C24 UNL     1      20.791  14.712  14.691  1.00  0.00     0.018 C
HETATM   16  C21 UNL     1      21.526  11.403  14.855  1.00  0.00     0.221 C
HETATM   17  O3  UNL     1      22.170  10.346  14.904  1.00  0.00    -0.273 OA
ENDBRANCH   2   3
ENDBRANCH   1   2
BRANCH   1  18
HETATM   18  C10 UNL     1      18.467   9.552  18.014  1.00  0.00     0.002 C
BRANCH  18  19
HETATM   19  C11 UNL     1      17.146  10.262  18.156  1.00  0.00     0.009 C
BRANCH  19  20
HETATM   20  C12 UNL     1      17.160  10.990  19.481  1.00  0.00     0.103 C
BRANCH  20  21
HETATM   21  C13 UNL     1      17.191  12.459  19.307  1.00  0.00     0.217 C
HETATM   22  O1  UNL     1      17.199  13.194  20.309  1.00  0.00    -0.274 OA
HETATM   23  N2  UNL     1      17.214  13.012  18.016  1.00  0.00    -0.354 N
ATOM     24  H2  UNL     1      17.207  12.393  17.205  1.00  0.00     0.162 HD
BRANCH  23  25
HETATM   25  C14 UNL     1      17.246  14.466  17.814  1.00  0.00     0.113 C
HETATM   26  C15 UNL     1      18.631  14.938  17.438  1.00  0.00     0.028 C
HETATM   27  C16 UNL     1      18.752  16.382  17.932  1.00  0.00     0.002 C
HETATM   28  C17 UNL     1      17.797  17.260  17.119  1.00  0.00     0.000 C
HETATM   29  C18 UNL     1      16.415  17.187  17.685  1.00  0.00     0.002 C
HETATM   30  C19 UNL     1      15.551  16.143  17.034  1.00  0.00     0.034 C
HETATM   31  C20 UNL     1      16.277  14.864  16.734  1.00  0.00     0.140 C
BRANCH  31  32
HETATM   32  O2  UNL     1      16.873  14.872  15.471  1.00  0.00    -0.394 OA
ATOM     33  H2  UNL     1      16.357  15.355  14.836  1.00  0.00     0.210 HD
ENDBRANCH  31  32
ENDBRANCH  23  25
ENDBRANCH  20  21
ENDBRANCH  19  20
ENDBRANCH  18  19
ENDBRANCH   1  18
TORSDOF 8
ENDMDL