MODEL 5
REMARK VINA RESULT: -7.553480698      3.201     10.432
REMARK  14 active torsions:
REMARK  status: ('A' for Active; 'I' for Inactive)
REMARK    1  A    between atoms: C4_4  and  C5_5
REMARK    2  A    between atoms: C5_5  and  N1_6
REMARK    3  A    between atoms: N1_6  and  C7_8
REMARK    4  A    between atoms: C7_8  and  C8_9
REMARK    5  A    between atoms: C8_9  and  N2_10
REMARK    6  A    between atoms: N4_18  and  C15_19
REMARK    7  A    between atoms: C16_22  and  N6_23
REMARK    8  A    between atoms: N6_23  and  C17_24
REMARK    9  A    between atoms: C17_24  and  C18_25
REMARK   10  A    between atoms: C18_25  and  C19_26
REMARK   11  A    between atoms: C24_33  and  C25_34
REMARK   12  A    between atoms: C25_34  and  C26_35
REMARK   13  A    between atoms: C26_35  and  N8_38
REMARK   14  A    between atoms: C29_42  and  N9_43
ROOT
HETATM    1  C15 UNL     1      16.343  22.368  18.006  1.00  0.00     0.128 A
HETATM    2  N5  UNL     1      15.829  21.572  18.947  1.00  0.00    -0.301 N
ATOM      3  H5  UNL     1      15.054  20.960  18.688  1.00  0.00     0.171 HD
HETATM    4  C16 UNL     1      16.283  21.531  20.243  1.00  0.00     0.255 A
HETATM    5  N7  UNL     1      17.324  22.374  20.527  1.00  0.00    -0.316 N
ATOM      6  H7  UNL     1      17.691  22.373  21.478  1.00  0.00     0.170 HD
HETATM    7  C22 UNL     1      17.893  23.199  19.642  1.00  0.00     0.050 A
HETATM    8  C23 UNL     1      18.937  24.014  19.989  1.00  0.00     0.040 A
HETATM    9  C24 UNL     1      19.522  24.848  19.093  1.00  0.00    -0.027 A
HETATM   10  C29 UNL     1      19.057  24.876  17.800  1.00  0.00     0.037 A
HETATM   11  C34 UNL     1      17.979  24.033  17.458  1.00  0.00     0.047 A
HETATM   12  C35 UNL     1      17.394  23.195  18.365  1.00  0.00     0.038 A
ENDROOT
BRANCH   1  13
HETATM   13  N4  UNL     1      15.808  22.334  16.666  1.00  0.00    -0.311 N
HETATM   14  C2  UNL     1      16.559  22.111  15.574  1.00  0.00     0.014 A
HETATM   15  C1  UNL     1      18.041  21.861  15.562  1.00  0.00     0.068 C
HETATM   16  C3  UNL     1      15.740  22.165  14.479  1.00  0.00     0.035 A
HETATM   17  C4  UNL     1      14.470  22.423  14.925  1.00  0.00    -0.012 A
HETATM   18  C14 UNL     1      14.555  22.521  16.283  1.00  0.00     0.107 A
BRANCH  17  19
HETATM   19  C5  UNL     1      13.227  22.562  14.125  1.00  0.00     0.311 C
BRANCH  19  20
HETATM   20  N1  UNL     1      12.494  21.377  13.900  1.00  0.00     0.090 N
HETATM   21  C6  UNL     1      13.311  20.254  13.477  1.00  0.00     0.310 C
BRANCH  20  22
HETATM   22  C7  UNL     1      11.513  21.002  14.874  1.00  0.00     0.302 C
BRANCH  22  23
HETATM   23  C8  UNL     1      11.910  19.716  15.522  1.00  0.00     0.302 C
BRANCH  23  24
HETATM   24  N2  UNL     1      10.873  18.746  15.685  1.00  0.00     0.093 N
HETATM   25  C9  UNL     1      10.766  17.867  14.538  1.00  0.00     0.302 C
HETATM   26  C10 UNL     1      11.150  16.457  14.745  1.00  0.00     0.302 C
HETATM   27  N3  UNL     1      10.841  15.891  16.025  1.00  0.00     0.087 N
HETATM   28  C11 UNL     1       9.417  15.903  16.292  1.00  0.00     0.310 C
HETATM   29  C12 UNL     1      11.514  16.755  17.006  1.00  0.00     0.302 C
HETATM   30  C13 UNL     1      10.782  18.079  16.928  1.00  0.00     0.302 C
ENDBRANCH  23  24
ENDBRANCH  22  23
ENDBRANCH  20  22
ENDBRANCH  19  20
ENDBRANCH  17  19
ENDBRANCH   1  13
BRANCH   4  31
HETATM   31  N6  UNL     1      15.770  20.803  21.011  1.00  0.00    -0.416 NA
BRANCH  31  32
HETATM   32  C17 UNL     1      15.039  19.937  21.716  1.00  0.00     0.222 C
BRANCH  32  33
HETATM   33  C18 UNL     1      13.695  19.564  21.033  1.00  0.00     0.037 C
BRANCH  33  34
HETATM   34  C19 UNL     1      13.954  18.246  20.333  1.00  0.00    -0.020 C
HETATM   35  C20 UNL     1      14.238  18.513  18.893  1.00  0.00     0.009 C
HETATM   36  C21 UNL     1      12.803  17.285  20.568  1.00  0.00     0.009 C
ENDBRANCH  33  34
ENDBRANCH  32  33
ENDBRANCH  31  32
ENDBRANCH   4  31
BRANCH  10  37
HETATM   37  N9  UNL     1      19.586  25.653  16.741  1.00  0.00    -0.376 N
HETATM   38  C30 UNL     1      20.925  26.173  16.786  1.00  0.00     0.149 C
HETATM   39  C31 UNL     1      20.973  27.442  15.941  1.00  0.00     0.187 C
HETATM   40  O1  UNL     1      20.665  27.033  14.646  1.00  0.00    -0.388 OA
HETATM   41  C32 UNL     1      19.330  26.701  14.507  1.00  0.00     0.187 C
HETATM   42  C33 UNL     1      18.745  25.897  15.609  1.00  0.00     0.149 C
ENDBRANCH  10  37
BRANCH   9  43
HETATM   43  C25 UNL     1      20.633  25.723  19.463  1.00  0.00     0.078 C
BRANCH  43  44
HETATM   44  C26 UNL     1      21.871  25.092  19.996  1.00  0.00     0.120 C
HETATM   45  C27 UNL     1      22.345  23.876  19.260  1.00  0.00     0.046 C
HETATM   46  C28 UNL     1      22.992  26.148  19.678  1.00  0.00     0.046 C
BRANCH  44  47
HETATM   47  N8  UNL     1      21.935  24.918  21.419  1.00  0.00    -0.071 N
ATOM     48  H83 UNL     1      22.904  24.988  21.730  1.00  0.00     0.275 HD
ATOM     49  H82 UNL     1      21.531  25.731  21.883  1.00  0.00     0.275 HD
ATOM     50  H81 UNL     1      21.515  24.066  21.790  1.00  0.00     0.275 HD
ENDBRANCH  44  47
ENDBRANCH  43  44
ENDBRANCH   9  43
TORSDOF 14
ENDMDL