MODEL 3
REMARK VINA RESULT: -9.123613167      1.622      2.299
REMARK  12 active torsions:
REMARK  status: ('A' for Active; 'I' for Inactive)
REMARK    1  A    between atoms: O1_2  and  C2_3
REMARK    2  A    between atoms: C2_3  and  C3_4
REMARK    3  A    between atoms: C3_4  and  O2_5
REMARK    4  A    between atoms: O2_5  and  C4_6
REMARK    5  A    between atoms: C7_11  and  C8_12
REMARK    6  A    between atoms: C16_22  and  C17_23
REMARK       I    between atoms: C17_23  and  N3_25
REMARK    7  A    between atoms: N3_25  and  C18_27
REMARK    8  A    between atoms: C18_27  and  C19_28
REMARK    9  A    between atoms: C19_28  and  C20_29
REMARK   10  A    between atoms: C20_29  and  C21_30
REMARK   11  A    between atoms: C21_30  and  N4_31
REMARK   12  A    between atoms: C24_34  and  N5_35
ROOT
HETATM    1  C4  UNL     1      20.809  27.572  16.182  1.00  0.00     0.187 A
HETATM    2  N1  UNL     1      19.927  26.868  15.518  1.00  0.00    -0.330 N
ATOM      3  H1  UNL     1      19.689  27.116  14.557  1.00  0.00     0.168 HD
HETATM    4  C5  UNL     1      19.350  25.841  16.097  1.00  0.00     0.052 A
HETATM    5  C6  UNL     1      18.394  25.002  15.498  1.00  0.00     0.044 A
HETATM    6  C7  UNL     1      17.858  23.941  16.215  1.00  0.00    -0.012 A
HETATM    7  C16 UNL     1      18.196  23.640  17.488  1.00  0.00     0.044 A
HETATM    8  C31 UNL     1      19.166  24.501  18.081  1.00  0.00     0.039 A
HETATM    9  C32 UNL     1      19.708  25.558  17.385  1.00  0.00     0.036 A
HETATM   10  S1  UNL     1      20.859  26.789  17.696  1.00  0.00    -0.044 SA
ENDROOT
BRANCH   7  11
HETATM   11  C17 UNL     1      17.765  22.574  18.363  1.00  0.00     0.252 C
HETATM   12  O4  UNL     1      18.380  21.462  18.157  1.00  0.00    -0.268 OA
HETATM   13  N3  UNL     1      16.766  22.645  19.360  1.00  0.00    -0.357 N
ATOM     14  H3  UNL     1      16.291  23.532  19.522  1.00  0.00     0.162 HD
BRANCH  13  15
HETATM   15  C18 UNL     1      16.401  21.511  20.149  1.00  0.00     0.123 C
BRANCH  15  16
HETATM   16  C19 UNL     1      14.960  21.065  19.977  1.00  0.00     0.025 C
BRANCH  16  17
HETATM   17  C20 UNL     1      14.841  20.003  18.950  1.00  0.00     0.046 C
BRANCH  17  18
HETATM   18  C21 UNL     1      14.170  18.772  19.428  1.00  0.00     0.058 C
BRANCH  18  19
HETATM   19  N4  UNL     1      12.971  18.373  18.837  1.00  0.00    -0.393 N
HETATM   20  C22 UNL     1      12.541  17.033  19.039  1.00  0.00     0.124 C
HETATM   21  C23 UNL     1      11.916  16.518  17.754  1.00  0.00     0.055 C
HETATM   22  C24 UNL     1      10.838  17.448  17.252  1.00  0.00     0.226 C
HETATM   23  C29 UNL     1      11.320  18.887  17.224  1.00  0.00     0.055 C
HETATM   24  C30 UNL     1      11.886  19.243  18.621  1.00  0.00     0.124 C
BRANCH  22  25
HETATM   25  N5  UNL     1      10.499  17.041  15.894  1.00  0.00     0.096 N
HETATM   26  C25 UNL     1      10.959  18.077  15.020  1.00  0.00     0.300 C
HETATM   27  C26 UNL     1      10.997  17.680  13.571  1.00  0.00     0.262 C
HETATM   28  N6  UNL     1      11.956  16.565  13.496  1.00  0.00    -0.072 N
HETATM   29  C27 UNL     1      11.304  15.470  14.190  1.00  0.00     0.262 C
ATOM     30  H62 UNL     1      12.254  16.336  12.547  1.00  0.00     0.277 HD
ATOM     31  H61 UNL     1      12.884  16.790  13.857  1.00  0.00     0.277 HD
HETATM   32  C28 UNL     1      11.047  15.733  15.628  1.00  0.00     0.300 C
ENDBRANCH  22  25
ENDBRANCH  18  19
ENDBRANCH  17  18
ENDBRANCH  16  17
ENDBRANCH  15  16
ENDBRANCH  13  15
ENDBRANCH   7  11
BRANCH   6  33
HETATM   33  C8  UNL     1      16.725  23.200  15.568  1.00  0.00    -0.040 C
HETATM   34  C9  UNL     1      15.485  23.602  15.835  1.00  0.00     0.007 C
HETATM   35  C10 UNL     1      14.225  23.064  15.344  1.00  0.00     0.110 C
HETATM   36  C11 UNL     1      13.454  22.230  16.346  1.00  0.00     0.031 C
HETATM   37  N2  UNL     1      14.398  22.096  14.281  1.00  0.00    -0.344 N
HETATM   38  C12 UNL     1      12.450  21.527  15.417  1.00  0.00     0.022 C
HETATM   39  C13 UNL     1      13.072  21.586  14.024  1.00  0.00     0.127 C
HETATM   40  C14 UNL     1      15.679  21.871  13.779  1.00  0.00     0.224 C
HETATM   41  O3  UNL     1      15.833  21.445  12.615  1.00  0.00    -0.273 OA
HETATM   42  C15 UNL     1      16.919  22.124  14.593  1.00  0.00     0.142 C
ENDBRANCH   6  33
BRANCH   1  43
HETATM   43  O2  UNL     1      21.525  28.696  15.724  1.00  0.00    -0.328 OA
BRANCH  43  44
HETATM   44  C3  UNL     1      22.698  28.544  14.976  1.00  0.00     0.204 C
BRANCH  44  45
HETATM   45  C2  UNL     1      23.916  28.166  15.765  1.00  0.00     0.193 C
BRANCH  45  46
HETATM   46  O1  UNL     1      24.222  26.829  15.640  1.00  0.00    -0.394 OA
HETATM   47  C1  UNL     1      24.914  26.274  16.689  1.00  0.00     0.201 C
ENDBRANCH  45  46
ENDBRANCH  44  45
ENDBRANCH  43  44
ENDBRANCH   1  43
TORSDOF 12
ENDMDL