MODEL 5
REMARK VINA RESULT: -8.573338483      1.183      1.725
REMARK  16 active torsions:
REMARK  status: ('A' for Active; 'I' for Inactive)
REMARK    1  A    between atoms: N1_6  and  C6_7
REMARK    2  A    between atoms: C6_7  and  O1_8
REMARK    3  A    between atoms: C6_7  and  C7_10
REMARK    4  A    between atoms: C10_13  and  C11_14
REMARK    5  A    between atoms: C11_14  and  N2_15
REMARK    6  A    between atoms: C12_16  and  C13_17
REMARK    7  A    between atoms: C13_17  and  C14_18
REMARK    8  A    between atoms: C18_24  and  C19_25
REMARK    9  A    between atoms: C19_25  and  O3_27
REMARK   10  A    between atoms: O3_27  and  C20_28
REMARK   11  A    between atoms: C20_28  and  C21_29
REMARK       I    between atoms: C21_29  and  N4_31
REMARK   12  A    between atoms: C25_40  and  N7_41
REMARK   13  A    between atoms: N7_41  and  C26_43
REMARK   14  A    between atoms: C26_43  and  C27_44
REMARK   15  A    between atoms: C27_44  and  C28_45
REMARK   16  A    between atoms: C28_45  and  O5_46
ROOT
HETATM    1  N2  UNL     1      14.254  21.319  18.385  1.00  0.00    -0.317 N
HETATM    2  C12 UNL     1      14.850  21.131  19.559  1.00  0.00     0.085 A
HETATM    3  N3  UNL     1      14.478  20.024  20.281  1.00  0.00    -0.348 N
ATOM      4  H3  UNL     1      14.912  19.847  21.186  1.00  0.00     0.167 HD
HETATM    5  C16 UNL     1      13.557  19.174  19.819  1.00  0.00     0.026 A
HETATM    6  C17 UNL     1      13.149  17.958  20.620  1.00  0.00     0.069 C
HETATM    7  C18 UNL     1      12.936  19.338  18.624  1.00  0.00     0.105 A
HETATM    8  C25 UNL     1      13.304  20.483  17.851  1.00  0.00     0.123 A
ENDROOT
BRANCH   1   9
HETATM    9  C11 UNL     1      14.557  22.521  17.639  1.00  0.00     0.178 C
BRANCH   9  10
HETATM   10  C10 UNL     1      15.993  22.592  17.210  1.00  0.00     0.002 A
HETATM   11  C9  UNL     1      16.836  21.701  16.645  1.00  0.00     0.018 A
HETATM   12  C8  UNL     1      18.117  22.086  16.410  1.00  0.00     0.024 A
HETATM   13  C7  UNL     1      18.475  23.353  16.759  1.00  0.00     0.056 A
HETATM   14  S1  UNL     1      16.974  23.961  17.415  1.00  0.00    -0.089 SA
BRANCH  13  15
HETATM   15  C6  UNL     1      19.715  24.106  16.655  1.00  0.00     0.155 C
BRANCH  15  16
HETATM   16  N1  UNL     1      20.504  24.663  17.647  1.00  0.00    -0.357 N
HETATM   17  C5  UNL     1      20.795  26.117  17.662  1.00  0.00     0.125 C
HETATM   18  C4  UNL     1      22.305  26.322  17.529  1.00  0.00     0.024 C
HETATM   19  C3  UNL     1      22.984  25.673  18.715  1.00  0.00     0.036 C
HETATM   20  C2  UNL     1      22.032  24.838  19.465  1.00  0.00    -0.071 C
HETATM   21  C1  UNL     1      21.980  24.888  20.773  1.00  0.00     0.016 C
HETATM   22  C30 UNL     1      21.115  23.917  18.704  1.00  0.00     0.158 C
ENDBRANCH  15  16
BRANCH  15  23
HETATM   23  O1  UNL     1      20.145  24.278  15.440  1.00  0.00    -0.345 OA
ATOM     24  H1  UNL     1      20.819  23.671  15.157  1.00  0.00     0.219 HD
ENDBRANCH  15  23
ENDBRANCH  13  15
ENDBRANCH   9  10
ENDBRANCH   1   9
BRANCH   2  25
HETATM   25  C13 UNL     1      15.957  21.942  20.139  1.00  0.00     0.076 C
BRANCH  25  26
HETATM   26  C14 UNL     1      17.162  21.112  20.500  1.00  0.00     0.003 C
HETATM   27  C15 UNL     1      18.491  21.644  20.137  1.00  0.00     0.005 C
ENDBRANCH  25  26
ENDBRANCH   2  25
BRANCH   8  28
HETATM   28  N7  UNL     1      12.745  20.579  16.761  1.00  0.00    -0.375 N
ATOM     29  H7  UNL     1      11.858  21.002  17.033  1.00  0.00     0.161 HD
BRANCH  28  30
HETATM   30  C26 UNL     1      12.580  20.469  15.427  1.00  0.00     0.123 C
BRANCH  30  31
HETATM   31  C27 UNL     1      11.336  21.213  14.872  1.00  0.00     0.046 C
BRANCH  31  32
HETATM   32  C28 UNL     1      10.086  20.645  15.463  1.00  0.00     0.168 C
BRANCH  32  33
HETATM   33  O5  UNL     1       9.057  20.558  14.564  1.00  0.00    -0.396 OA
HETATM   34  C29 UNL     1       9.063  21.490  13.553  1.00  0.00     0.201 C
ENDBRANCH  32  33
ENDBRANCH  31  32
ENDBRANCH  30  31
ENDBRANCH  28  30
ENDBRANCH   8  28
BRANCH   7  35
HETATM   35  C19 UNL     1      11.923  18.432  18.098  1.00  0.00     0.299 C
HETATM   36  O2  UNL     1      10.722  18.699  18.319  1.00  0.00    -0.259 OA
BRANCH  35  37
HETATM   37  O3  UNL     1      12.224  17.296  17.372  1.00  0.00    -0.308 OA
BRANCH  37  38
HETATM   38  C20 UNL     1      11.440  16.116  17.543  1.00  0.00     0.282 C
BRANCH  38  39
HETATM   39  C21 UNL     1      10.914  15.623  16.266  1.00  0.00     0.260 C
HETATM   40  O4  UNL     1      11.163  14.417  15.904  1.00  0.00    -0.270 OA
HETATM   41  N4  UNL     1      10.133  16.390  15.374  1.00  0.00    -0.158 N
HETATM   42  C22 UNL     1      10.629  16.991  14.375  1.00  0.00     0.684 A
ATOM     43  H4  UNL     1       9.130  16.463  15.541  1.00  0.00     0.187 HD
HETATM   44  N5  UNL     1       9.903  17.740  13.497  1.00  0.00    -0.200 N
HETATM   45  N6  UNL     1      11.899  17.025  13.987  1.00  0.00    -0.200 N
HETATM   46  C23 UNL     1      10.735  18.236  12.562  1.00  0.00     0.123 A
ATOM     47  H5  UNL     1       8.896  17.897  13.541  1.00  0.00     0.183 HD
HETATM   48  C24 UNL     1      12.005  17.789  12.862  1.00  0.00     0.123 A
ATOM     49  H6  UNL     1      12.673  16.553  14.456  1.00  0.00     0.183 HD
ENDBRANCH  38  39
ENDBRANCH  37  38
ENDBRANCH  35  37
ENDBRANCH   7  35
TORSDOF 16
ENDMDL