MODEL 5
REMARK VINA RESULT: -9.114560947      2.150     10.662
REMARK  13 active torsions:
REMARK  status: ('A' for Active; 'I' for Inactive)
REMARK    1  A    between atoms: C3_3  and  C4_4
REMARK    2  A    between atoms: N1_7  and  C7_8
REMARK    3  A    between atoms: C7_8  and  C8_9
REMARK    4  A    between atoms: C8_9  and  C9_10
REMARK    5  A    between atoms: C9_10  and  N2_11
REMARK    6  A    between atoms: C15_20  and  N4_21
REMARK    7  A    between atoms: N4_21  and  C16_23
REMARK    8  A    between atoms: C18_25  and  C19_26
REMARK       I    between atoms: C19_26  and  N5_28
REMARK    9  A    between atoms: N5_28  and  C20_30
REMARK   10  A    between atoms: C20_30  and  C21_31
REMARK   11  A    between atoms: C21_31  and  C22_32
REMARK   12  A    between atoms: C22_32  and  N6_33
REMARK   13  A    between atoms: C26_37  and  N7_38
ROOT
HETATM    1  C1  UNL     1      12.623  18.116  12.238  1.00  0.00     0.051 C
HETATM    2  C2  UNL     1      12.406  18.881  13.508  1.00  0.00    -0.023 A
HETATM    3  C3  UNL     1      11.519  18.527  14.572  1.00  0.00     0.028 A
HETATM    4  N1  UNL     1      11.585  19.443  15.538  1.00  0.00    -0.314 N
HETATM    5  C14 UNL     1      12.523  20.391  15.112  1.00  0.00     0.139 A
HETATM    6  N3  UNL     1      13.012  21.510  15.663  1.00  0.00    -0.175 N
ATOM      7  H3  UNL     1      12.665  21.795  16.578  1.00  0.00     0.186 HD
HETATM    8  C15 UNL     1      13.947  22.279  15.057  1.00  0.00     0.684 A
HETATM    9  N8  UNL     1      14.414  21.928  13.859  1.00  0.00    -0.201 N
ATOM     10  H8  UNL     1      15.117  22.511  13.406  1.00  0.00     0.183 HD
HETATM   11  C32 UNL     1      13.967  20.800  13.225  1.00  0.00     0.122 A
HETATM   12  C33 UNL     1      12.999  20.036  13.896  1.00  0.00     0.033 A
ENDROOT
BRANCH   8  13
HETATM   13  N4  UNL     1      14.362  23.308  15.662  1.00  0.00    -0.192 N
ATOM     14  H4  UNL     1      13.654  24.027  15.810  1.00  0.00     0.184 HD
BRANCH  13  15
HETATM   15  C16 UNL     1      15.627  23.631  16.165  1.00  0.00     0.052 A
HETATM   16  C17 UNL     1      16.447  24.452  15.374  1.00  0.00     0.047 A
HETATM   17  C18 UNL     1      17.702  24.836  15.783  1.00  0.00     0.036 A
HETATM   18  C25 UNL     1      18.167  24.389  17.024  1.00  0.00     0.046 A
HETATM   19  C26 UNL     1      17.409  23.582  17.840  1.00  0.00     0.033 A
HETATM   20  C31 UNL     1      16.155  23.229  17.376  1.00  0.00     0.059 A
BRANCH  17  21
HETATM   21  C19 UNL     1      18.574  25.671  14.972  1.00  0.00     0.251 C
HETATM   22  O2  UNL     1      18.029  26.491  14.162  1.00  0.00    -0.268 OA
HETATM   23  N5  UNL     1      19.981  25.561  15.094  1.00  0.00    -0.357 N
ATOM     24  H5  UNL     1      20.361  24.886  15.757  1.00  0.00     0.162 HD
BRANCH  23  25
HETATM   25  C20 UNL     1      20.884  26.350  14.335  1.00  0.00     0.124 C
BRANCH  25  26
HETATM   26  C21 UNL     1      21.882  27.099  15.131  1.00  0.00     0.050 C
BRANCH  26  27
HETATM   27  C22 UNL     1      21.429  27.808  16.342  1.00  0.00     0.273 C
BRANCH  27  28
HETATM   28  N6  UNL     1      21.977  27.475  17.613  1.00  0.00     0.080 N
HETATM   29  C23 UNL     1      20.894  26.695  18.293  1.00  0.00     0.309 C
HETATM   30  C24 UNL     1      23.104  26.517  17.479  1.00  0.00     0.309 C
ENDBRANCH  27  28
ENDBRANCH  26  27
ENDBRANCH  25  26
ENDBRANCH  23  25
ENDBRANCH  17  21
BRANCH  19  31
HETATM   31  N7  UNL     1      17.914  23.120  19.083  1.00  0.00    -0.377 N
HETATM   32  C27 UNL     1      18.191  24.066  20.131  1.00  0.00     0.149 C
HETATM   33  C28 UNL     1      19.474  23.615  20.840  1.00  0.00     0.187 C
HETATM   34  O3  UNL     1      19.287  22.327  21.287  1.00  0.00    -0.388 OA
HETATM   35  C29 UNL     1      19.394  21.474  20.182  1.00  0.00     0.187 C
HETATM   36  C30 UNL     1      18.126  21.717  19.345  1.00  0.00     0.149 C
ENDBRANCH  19  31
ENDBRANCH  13  15
ENDBRANCH   8  13
BRANCH   4  37
HETATM   37  C7  UNL     1      10.874  19.682  16.736  1.00  0.00     0.073 C
BRANCH  37  38
HETATM   38  C8  UNL     1      11.249  19.224  18.063  1.00  0.00     0.065 C
BRANCH  38  39
HETATM   39  C9  UNL     1      12.027  17.961  18.195  1.00  0.00     0.132 C
BRANCH  39  40
HETATM   40  N2  UNL     1      13.321  18.227  18.771  1.00  0.00    -0.369 N
HETATM   41  C10 UNL     1      14.092  19.225  18.145  1.00  0.00     0.089 C
HETATM   42  C11 UNL     1      15.119  19.782  19.111  1.00  0.00     0.212 C
HETATM   43  O1  UNL     1      14.551  20.141  20.296  1.00  0.00    -0.381 OA
HETATM   44  C12 UNL     1      13.768  19.224  20.925  1.00  0.00     0.212 C
HETATM   45  C13 UNL     1      13.462  17.983  20.142  1.00  0.00     0.089 C
ENDBRANCH  39  40
ENDBRANCH  38  39
ENDBRANCH  37  38
ENDBRANCH   4  37
BRANCH   3  46
HETATM   46  C4  UNL     1      10.656  17.360  14.342  1.00  0.00     0.037 A
HETATM   47  C5  UNL     1      11.084  15.962  14.619  1.00  0.00     0.011 A
HETATM   48  C6  UNL     1      10.122  16.588  15.521  1.00  0.00     0.011 A
ENDBRANCH   3  46
TORSDOF 13
ENDMDL