MODEL 4
REMARK VINA RESULT: -8.817716074      4.278     11.432
REMARK  14 active torsions:
REMARK  status: ('A' for Active; 'I' for Inactive)
REMARK    1  A    between atoms: C2_2  and  N1_3
REMARK       I    between atoms: N1_3  and  C3_5
REMARK    2  A    between atoms: C3_5  and  C4_7
REMARK    3  A    between atoms: C6_11  and  C7_12
REMARK    4  A    between atoms: C7_12  and  O2_13
REMARK    5  A    between atoms: C7_12  and  N3_15
REMARK    6  A    between atoms: N3_15  and  C8_17
REMARK    7  A    between atoms: C8_17  and  C9_18
REMARK    8  A    between atoms: C9_18  and  N4_19
REMARK    9  A    between atoms: N5_22  and  C12_23
REMARK   10  A    between atoms: C14_26  and  N6_27
REMARK   11  A    between atoms: N6_27  and  C16_29
REMARK   12  A    between atoms: C16_29  and  C17_30
REMARK   13  A    between atoms: C24_39  and  N8_40
REMARK   14  A    between atoms: N8_40  and  C26_42
ROOT
HETATM    1  C7  UNL     1      16.295  23.936  18.641  1.00  0.00     0.164 C
ENDROOT
BRANCH   1   2
HETATM    2  C6  UNL     1      17.579  24.478  18.371  1.00  0.00     0.091 A
HETATM    3  N2  UNL     1      17.666  25.324  17.313  1.00  0.00    -0.361 N
HETATM    4  C5  UNL     1      18.754  25.942  16.908  1.00  0.00     0.108 A
ATOM      5  H2  UNL     1      16.811  25.496  16.785  1.00  0.00     0.165 HD
HETATM    6  C4  UNL     1      19.961  25.731  17.616  1.00  0.00     0.074 A
HETATM    7  C24 UNL     1      19.949  24.894  18.688  1.00  0.00     0.056 A
HETATM    8  C22 UNL     1      18.750  24.284  19.046  1.00  0.00    -0.003 A
HETATM    9  C23 UNL     1      18.740  23.435  20.239  1.00  0.00     0.053 C
BRANCH   6  10
HETATM   10  C3  UNL     1      21.052  26.528  17.108  1.00  0.00     0.255 C
HETATM   11  N1  UNL     1      21.951  26.282  16.067  1.00  0.00    -0.357 N
ATOM     12  H1  UNL     1      21.885  25.412  15.538  1.00  0.00     0.162 HD
HETATM   13  O1  UNL     1      21.215  27.645  17.739  1.00  0.00    -0.268 OA
BRANCH  11  14
HETATM   14  C2  UNL     1      22.996  27.270  15.723  1.00  0.00     0.118 C
HETATM   15  C1  UNL     1      22.477  28.149  14.612  1.00  0.00     0.026 C
ENDBRANCH  11  14
ENDBRANCH   6  10
BRANCH   7  16
HETATM   16  N8  UNL     1      21.130  24.594  19.401  1.00  0.00    -0.379 N
HETATM   17  C25 UNL     1      22.183  23.845  18.750  1.00  0.00     0.150 C
BRANCH  16  18
HETATM   18  C26 UNL     1      21.338  24.989  20.782  1.00  0.00     0.088 C
HETATM   19  C27 UNL     1      20.979  26.379  21.151  1.00  0.00     0.051 C
HETATM   20  C28 UNL     1      22.037  27.424  20.914  1.00  0.00     0.169 C
HETATM   21  O3  UNL     1      23.322  26.944  20.919  1.00  0.00    -0.391 OA
HETATM   22  C29 UNL     1      23.387  25.959  21.895  1.00  0.00     0.169 C
HETATM   23  C30 UNL     1      22.704  24.705  21.324  1.00  0.00     0.051 C
ENDBRANCH  16  18
ENDBRANCH   7  16
ENDBRANCH   1   2
BRANCH   1  24
HETATM   24  O2  UNL     1      15.326  24.812  18.642  1.00  0.00    -0.345 OA
ATOM     25  H2  UNL     1      14.459  24.440  18.752  1.00  0.00     0.219 HD
ENDBRANCH   1  24
BRANCH   1  26
HETATM   26  N3  UNL     1      15.845  22.641  18.904  1.00  0.00    -0.368 N
ATOM     27  H3  UNL     1      15.404  22.469  19.807  1.00  0.00     0.161 HD
BRANCH  26  28
HETATM   28  C8  UNL     1      15.956  21.525  17.989  1.00  0.00     0.142 C
BRANCH  28  29
HETATM   29  C9  UNL     1      15.670  21.871  16.549  1.00  0.00     0.146 C
BRANCH  29  30
HETATM   30  N4  UNL     1      14.316  21.572  16.262  1.00  0.00    -0.369 N
HETATM   31  C10 UNL     1      13.674  22.130  15.161  1.00  0.00     0.083 C
HETATM   32  C11 UNL     1      13.286  20.995  14.220  1.00  0.00     0.169 C
HETATM   33  N5  UNL     1      12.448  20.058  14.940  1.00  0.00    -0.357 N
HETATM   34  C20 UNL     1      12.467  19.988  16.362  1.00  0.00     0.169 C
HETATM   35  C21 UNL     1      13.860  20.381  16.841  1.00  0.00     0.083 C
BRANCH  33  36
HETATM   36  C12 UNL     1      11.574  19.147  14.221  1.00  0.00     0.112 A
HETATM   37  C13 UNL     1      10.357  19.545  13.725  1.00  0.00     0.101 A
HETATM   38  S1  UNL     1       9.781  18.101  13.016  1.00  0.00    -0.062 SA
HETATM   39  C14 UNL     1      11.103  17.089  13.386  1.00  0.00     0.147 A
HETATM   40  N7  UNL     1      11.913  17.908  14.030  1.00  0.00    -0.323 N
ATOM     41  H7  UNL     1      12.808  17.567  14.380  1.00  0.00     0.169 HD
BRANCH  39  42
HETATM   42  N6  UNL     1      11.315  15.687  13.083  1.00  0.00    -0.365 N
HETATM   43  C15 UNL     1      11.138  14.730  14.150  1.00  0.00     0.151 C
BRANCH  42  44
HETATM   44  C16 UNL     1      11.692  15.314  11.755  1.00  0.00     0.129 C
BRANCH  44  45
HETATM   45  C17 UNL     1      12.832  16.100  11.180  1.00  0.00     0.004 A
HETATM   46  C18 UNL     1      14.227  15.819  11.560  1.00  0.00     0.007 A
HETATM   47  C19 UNL     1      13.709  15.363  10.238  1.00  0.00     0.007 A
ENDBRANCH  44  45
ENDBRANCH  42  44
ENDBRANCH  39  42
ENDBRANCH  33  36
ENDBRANCH  29  30
ENDBRANCH  28  29
ENDBRANCH  26  28
ENDBRANCH   1  26
TORSDOF 14
ENDMDL