MODEL 4
REMARK VINA RESULT: -8.338423752      2.746     12.087
REMARK  18 active torsions:
REMARK  status: ('A' for Active; 'I' for Inactive)
REMARK    1  A    between atoms: C2_2  and  C3_3
REMARK    2  A    between atoms: C3_3  and  C4_4
REMARK    3  A    between atoms: C4_4  and  C5_5
REMARK    4  A    between atoms: C5_5  and  C6_6
REMARK    5  A    between atoms: C6_6  and  N1_7
REMARK    6  A    between atoms: N1_7  and  C7_9
REMARK    7  A    between atoms: C7_9  and  C8_10
REMARK    8  A    between atoms: C7_9  and  C21_29
REMARK    9  A    between atoms: C8_10  and  N2_11
REMARK   10  A    between atoms: N3_14  and  C11_15
REMARK   11  A    between atoms: C11_15  and  O1_16
REMARK   12  A    between atoms: C11_15  and  N4_18
REMARK   13  A    between atoms: C16_23  and  C17_24
REMARK   14  A    between atoms: N6_33  and  C23_34
REMARK       I    between atoms: N7_37  and  C26_38
REMARK   15  A    between atoms: C26_38  and  O4_40
REMARK   16  A    between atoms: O4_40  and  C27_41
REMARK   17  A    between atoms: C27_41  and  C28_42
REMARK   18  A    between atoms: C28_42  and  O5_43
ROOT
HETATM    1  C7  UNL     1      14.959  22.329  16.237  1.00  0.00     0.152 C
ENDROOT
BRANCH   1   2
HETATM    2  N1  UNL     1      14.783  23.188  17.341  1.00  0.00    -0.409 N
ATOM      3  H1  UNL     1      14.798  24.202  17.241  1.00  0.00     0.154 HD
BRANCH   2   4
HETATM    4  C6  UNL     1      14.583  22.563  18.598  1.00  0.00     0.115 C
BRANCH   4   5
HETATM    5  C5  UNL     1      15.597  21.452  18.828  1.00  0.00     0.019 C
BRANCH   5   6
HETATM    6  C4  UNL     1      15.887  21.291  20.307  1.00  0.00     0.002 C
BRANCH   6   7
HETATM    7  C3  UNL     1      17.349  21.345  20.618  1.00  0.00    -0.000 C
BRANCH   7   8
HETATM    8  C2  UNL     1      18.092  22.419  19.851  1.00  0.00    -0.005 C
HETATM    9  C1  UNL     1      19.534  22.000  19.714  1.00  0.00     0.005 C
ENDBRANCH   7   8
ENDBRANCH   6   7
ENDBRANCH   5   6
ENDBRANCH   4   5
ENDBRANCH   2   4
ENDBRANCH   1   2
BRANCH   1  10
HETATM   10  C8  UNL     1      15.921  22.906  15.215  1.00  0.00     0.096 C
BRANCH  10  11
HETATM   11  N2  UNL     1      17.064  23.538  15.723  1.00  0.00    -0.327 N
HETATM   12  C9  UNL     1      17.123  24.977  15.892  1.00  0.00     0.151 C
HETATM   13  C10 UNL     1      17.747  25.179  17.270  1.00  0.00     0.147 C
HETATM   14  N3  UNL     1      19.166  24.789  17.136  1.00  0.00    -0.337 N
HETATM   15  C19 UNL     1      19.463  23.636  16.366  1.00  0.00     0.229 C
HETATM   16  C20 UNL     1      18.213  22.805  16.105  1.00  0.00     0.241 C
HETATM   17  O2  UNL     1      18.276  21.567  16.239  1.00  0.00    -0.271 OA
BRANCH  14  18
HETATM   18  C11 UNL     1      20.087  25.592  17.802  1.00  0.00     0.218 C
BRANCH  18  19
HETATM   19  O1  UNL     1      20.058  26.878  17.460  1.00  0.00    -0.332 OA
ATOM     20  H1  UNL     1      20.352  27.478  18.135  1.00  0.00     0.220 HD
ENDBRANCH  18  19
BRANCH  18  21
HETATM   21  N4  UNL     1      21.057  25.342  18.774  1.00  0.00    -0.343 N
HETATM   22  C12 UNL     1      20.854  25.491  20.172  1.00  0.00     0.127 C
HETATM   23  C13 UNL     1      21.770  24.768  21.099  1.00  0.00     0.020 C
HETATM   24  C14 UNL     1      22.812  23.890  20.534  1.00  0.00     0.004 C
HETATM   25  C15 UNL     1      22.729  23.662  19.051  1.00  0.00     0.025 C
HETATM   26  C16 UNL     1      22.391  24.920  18.315  1.00  0.00     0.087 C
BRANCH  26  27
HETATM   27  C17 UNL     1      23.417  25.992  18.612  1.00  0.00     0.021 C
HETATM   28  C18 UNL     1      24.540  25.900  17.571  1.00  0.00     0.007 C
ENDBRANCH  26  27
ENDBRANCH  18  21
ENDBRANCH  14  18
ENDBRANCH  10  11
ENDBRANCH   1  10
BRANCH   1  29
HETATM   29  C21 UNL     1      13.732  21.954  15.489  1.00  0.00     0.003 A
HETATM   30  C22 UNL     1      13.078  22.563  14.444  1.00  0.00     0.118 A
HETATM   31  N5  UNL     1      12.012  21.794  14.114  1.00  0.00    -0.309 N
HETATM   32  N6  UNL     1      11.929  20.740  14.867  1.00  0.00    -0.298 N
ATOM     33  H5  UNL     1      11.355  22.017  13.366  1.00  0.00     0.186 HD
HETATM   34  C31 UNL     1      12.960  20.797  15.721  1.00  0.00     0.121 A
BRANCH  32  35
HETATM   35  C23 UNL     1      10.939  19.681  14.836  1.00  0.00     0.110 C
HETATM   36  C24 UNL     1      11.451  18.495  14.054  1.00  0.00     0.047 C
HETATM   37  C25 UNL     1      10.951  17.172  14.550  1.00  0.00     0.130 C
HETATM   38  N7  UNL     1      10.967  17.055  15.973  1.00  0.00    -0.328 N
HETATM   39  C26 UNL     1      10.753  15.751  16.548  1.00  0.00     0.362 C
HETATM   40  C29 UNL     1      11.186  18.177  16.838  1.00  0.00     0.130 C
HETATM   41  O3  UNL     1      10.754  15.600  17.797  1.00  0.00    -0.238 OA
HETATM   42  C30 UNL     1      10.505  19.380  16.225  1.00  0.00     0.047 C
BRANCH  39  43
HETATM   43  O4  UNL     1      10.544  14.662  15.755  1.00  0.00    -0.302 OA
BRANCH  43  44
HETATM   44  C27 UNL     1      10.660  13.318  15.995  1.00  0.00     0.206 C
BRANCH  44  45
HETATM   45  C28 UNL     1       9.563  12.642  16.736  1.00  0.00     0.191 C
BRANCH  45  46
HETATM   46  O5  UNL     1       9.663  12.667  18.102  1.00  0.00    -0.399 OA
ATOM     47  H5  UNL     1       9.972  11.865  18.508  1.00  0.00     0.209 HD
ENDBRANCH  45  46
ENDBRANCH  44  45
ENDBRANCH  43  44
ENDBRANCH  39  43
ENDBRANCH  32  35
ENDBRANCH   1  29
TORSDOF 18
ENDMDL