MODEL 2
REMARK VINA RESULT: -8.870994499      1.929      3.102
REMARK  13 active torsions:
REMARK  status: ('A' for Active; 'I' for Inactive)
REMARK    1  A    between atoms: O1_2  and  C2_3
REMARK    2  A    between atoms: C2_3  and  C3_4
REMARK    3  A    between atoms: C3_4  and  C4_5
REMARK    4  A    between atoms: C4_5  and  N1_6
REMARK    5  A    between atoms: C6_10  and  N3_11
REMARK    6  A    between atoms: C8_13  and  C9_14
REMARK       I    between atoms: C9_14  and  N4_16
REMARK    7  A    between atoms: N4_16  and  C10_18
REMARK    8  A    between atoms: C14_22  and  C15_23
REMARK       I    between atoms: C15_23  and  N5_25
REMARK    9  A    between atoms: N5_25  and  C16_27
REMARK   10  A    between atoms: C16_27  and  C17_28
REMARK       I    between atoms: C17_28  and  N6_30
REMARK   11  A    between atoms: C18_32  and  C19_33
REMARK   12  A    between atoms: C28_42  and  C29_43
REMARK   13  A    between atoms: C29_43  and  O5_44
ROOT
HETATM    1  N3  UNL     1      18.207  22.376  18.850  1.00  0.00    -0.363 N
HETATM    2  C7  UNL     1      18.081  23.160  17.647  1.00  0.00     0.139 C
HETATM    3  C8  UNL     1      19.056  24.276  17.858  1.00  0.00     0.110 C
HETATM    4  C14 UNL     1      20.193  23.588  18.593  1.00  0.00     0.110 C
HETATM    5  C31 UNL     1      19.585  22.382  19.243  1.00  0.00     0.139 C
ENDROOT
BRANCH   4   6
HETATM    6  C15 UNL     1      20.649  24.540  19.643  1.00  0.00     0.225 C
HETATM    7  O3  UNL     1      19.893  24.660  20.632  1.00  0.00    -0.273 OA
HETATM    8  N5  UNL     1      21.871  25.224  19.456  1.00  0.00    -0.342 N
ATOM      9  H5  UNL     1      22.386  25.034  18.597  1.00  0.00     0.163 HD
BRANCH   8  10
HETATM   10  C16 UNL     1      22.455  26.176  20.386  1.00  0.00     0.119 C
HETATM   11  C25 UNL     1      21.540  27.282  20.756  1.00  0.00     0.041 C
HETATM   12  C26 UNL     1      21.318  27.221  22.237  1.00  0.00     0.004 C
HETATM   13  C27 UNL     1      22.393  26.328  22.791  1.00  0.00     0.010 C
HETATM   14  C28 UNL     1      22.705  25.404  21.655  1.00  0.00     0.047 C
BRANCH  10  15
HETATM   15  C17 UNL     1      23.705  26.738  19.805  1.00  0.00     0.250 C
HETATM   16  O4  UNL     1      24.702  26.860  20.587  1.00  0.00    -0.270 OA
HETATM   17  N6  UNL     1      23.821  27.130  18.448  1.00  0.00    -0.338 N
HETATM   18  C18 UNL     1      24.736  26.663  17.666  1.00  0.00     0.068 C
ATOM     19  H6  UNL     1      23.155  27.807  18.074  1.00  0.00     0.167 HD
BRANCH  18  20
HETATM   20  C19 UNL     1      24.791  27.116  16.277  1.00  0.00     0.024 C
HETATM   21  C20 UNL     1      24.146  28.490  16.143  1.00  0.00     0.010 C
HETATM   22  C21 UNL     1      24.620  29.028  14.787  1.00  0.00     0.001 C
HETATM   23  C22 UNL     1      26.058  29.483  15.030  1.00  0.00     0.000 C
HETATM   24  C23 UNL     1      26.862  28.356  15.580  1.00  0.00     0.001 C
HETATM   25  C24 UNL     1      26.146  27.047  15.657  1.00  0.00     0.010 C
ENDBRANCH  18  20
ENDBRANCH  10  15
BRANCH  14  26
HETATM   26  C29 UNL     1      24.108  24.842  21.772  1.00  0.00     0.174 C
BRANCH  26  27
HETATM   27  O5  UNL     1      24.105  23.706  20.919  1.00  0.00    -0.395 OA
HETATM   28  C30 UNL     1      25.382  23.505  20.405  1.00  0.00     0.201 C
ENDBRANCH  26  27
ENDBRANCH  14  26
ENDBRANCH   8  10
ENDBRANCH   4   6
BRANCH   3  29
HETATM   29  C9  UNL     1      19.467  24.866  16.567  1.00  0.00     0.225 C
HETATM   30  O2  UNL     1      19.563  24.119  15.567  1.00  0.00    -0.273 OA
HETATM   31  N4  UNL     1      19.759  26.248  16.407  1.00  0.00    -0.353 N
ATOM     32  H4  UNL     1      19.680  26.850  17.228  1.00  0.00     0.163 HD
BRANCH  31  33
HETATM   33  C10 UNL     1      20.155  26.851  15.178  1.00  0.00     0.022 C
HETATM   34  C11 UNL     1      20.560  28.287  15.439  1.00  0.00     0.037 C
HETATM   35  C12 UNL     1      21.356  26.177  14.545  1.00  0.00     0.037 C
HETATM   36  C13 UNL     1      19.044  26.875  14.152  1.00  0.00     0.037 C
ENDBRANCH  31  33
ENDBRANCH   3  29
BRANCH   1  37
HETATM   37  C6  UNL     1      17.126  21.728  19.506  1.00  0.00     0.136 A
HETATM   38  C5  UNL     1      16.877  21.574  20.851  1.00  0.00     0.158 A
HETATM   39  N2  UNL     1      15.726  20.884  20.992  1.00  0.00    -0.292 N
HETATM   40  N1  UNL     1      15.254  20.606  19.773  1.00  0.00    -0.233 N
ATOM     41  H2  UNL     1      15.291  20.619  21.877  1.00  0.00     0.188 HD
HETATM   42  N7  UNL     1      16.109  21.122  18.885  1.00  0.00    -0.268 N
ATOM     43  H7  UNL     1      16.000  21.061  17.873  1.00  0.00     0.190 HD
BRANCH  40  44
HETATM   44  C4  UNL     1      14.039  19.875  19.498  1.00  0.00     0.171 C
BRANCH  44  45
HETATM   45  C3  UNL     1      13.692  19.064  20.739  1.00  0.00     0.050 C
BRANCH  45  46
HETATM   46  C2  UNL     1      12.661  18.024  20.449  1.00  0.00     0.168 C
BRANCH  46  47
HETATM   47  O1  UNL     1      11.468  18.608  20.065  1.00  0.00    -0.396 OA
HETATM   48  C1  UNL     1      11.130  18.404  18.743  1.00  0.00     0.201 C
ENDBRANCH  46  47
ENDBRANCH  45  46
ENDBRANCH  44  45
ENDBRANCH  40  44
ENDBRANCH   1  37
TORSDOF 13
ENDMDL