MODEL 4
REMARK VINA RESULT: -9.315146774      1.584      4.340
REMARK  14 active torsions:
REMARK  status: ('A' for Active; 'I' for Inactive)
REMARK    1  A    between atoms: C2_2  and  N1_3
REMARK    2  A    between atoms: N1_3  and  C3_4
REMARK       I    between atoms: N1_3  and  C14_23
REMARK    3  A    between atoms: C3_4  and  C4_5
REMARK    4  A    between atoms: C7_8  and  O1_9
REMARK    5  A    between atoms: C9_13  and  O2_14
REMARK    6  A    between atoms: N3_18  and  C11_19
REMARK    7  A    between atoms: C14_23  and  C15_25
REMARK    8  A    between atoms: C15_25  and  C16_26
REMARK    9  A    between atoms: C17_27  and  C18_28
REMARK       I    between atoms: C18_28  and  N4_30
REMARK   10  A    between atoms: N5_33  and  C21_34
REMARK   11  A    between atoms: C21_34  and  C22_35
REMARK   12  A    between atoms: C23_36  and  C25_38
REMARK   13  A    between atoms: C25_38  and  C26_39
REMARK   14  A    between atoms: C26_39  and  C27_40
ROOT
HETATM    1  N1  UNL     1      15.015  20.137  18.839  1.00  0.00    -0.330 N
HETATM    2  C14 UNL     1      15.611  21.055  19.734  1.00  0.00     0.226 C
HETATM    3  O5  UNL     1      15.293  21.062  20.939  1.00  0.00    -0.273 OA
ENDROOT
BRANCH   2   4
HETATM    4  C15 UNL     1      16.622  22.022  19.255  1.00  0.00     0.130 C
BRANCH   4   5
HETATM    5  C16 UNL     1      17.896  21.341  19.001  1.00  0.00    -0.012 C
HETATM    6  C17 UNL     1      19.053  21.631  19.465  1.00  0.00     0.070 C
BRANCH   6   7
HETATM    7  C18 UNL     1      19.537  22.649  20.348  1.00  0.00     0.243 C
HETATM    8  O6  UNL     1      19.534  22.475  21.591  1.00  0.00    -0.268 OA
HETATM    9  N4  UNL     1      20.040  23.900  19.876  1.00  0.00    -0.345 N
HETATM   10  C19 UNL     1      20.092  24.211  18.454  1.00  0.00     0.146 C
HETATM   11  C33 UNL     1      20.497  24.895  20.804  1.00  0.00     0.151 C
HETATM   12  C20 UNL     1      20.568  25.683  18.326  1.00  0.00     0.142 C
HETATM   13  N5  UNL     1      21.816  25.726  18.972  1.00  0.00    -0.383 N
HETATM   14  C31 UNL     1      21.726  25.650  20.378  1.00  0.00     0.097 C
HETATM   15  C32 UNL     1      22.932  24.966  21.011  1.00  0.00     0.034 C
BRANCH  13  16
HETATM   16  C21 UNL     1      22.840  26.542  18.416  1.00  0.00     0.086 C
BRANCH  16  17
HETATM   17  C22 UNL     1      22.401  27.572  17.495  1.00  0.00     0.019 C
HETATM   18  C23 UNL     1      23.028  27.765  16.321  1.00  0.00    -0.082 C
HETATM   19  C24 UNL     1      24.192  26.894  15.978  1.00  0.00     0.043 C
BRANCH  18  20
HETATM   20  C25 UNL     1      22.547  28.785  15.374  1.00  0.00     0.037 C
BRANCH  20  21
HETATM   21  C26 UNL     1      21.949  28.275  14.128  1.00  0.00     0.031 C
BRANCH  21  22
HETATM   22  C27 UNL     1      20.494  28.036  14.137  1.00  0.00    -0.024 C
HETATM   23  C28 UNL     1      19.936  26.851  14.304  1.00  0.00    -0.091 C
HETATM   24  C29 UNL     1      20.732  25.610  14.505  1.00  0.00     0.042 C
HETATM   25  C30 UNL     1      18.456  26.729  14.298  1.00  0.00     0.042 C
ENDBRANCH  21  22
ENDBRANCH  20  21
ENDBRANCH  18  20
ENDBRANCH  16  17
ENDBRANCH  13  16
ENDBRANCH   6   7
ENDBRANCH   4   5
ENDBRANCH   2   4
BRANCH   1  26
HETATM   26  C2  UNL     1      14.045  19.216  19.449  1.00  0.00     0.126 C
HETATM   27  C1  UNL     1      14.162  17.800  19.044  1.00  0.00     0.027 C
ENDBRANCH   1  26
BRANCH   1  28
HETATM   28  C3  UNL     1      15.153  20.174  17.439  1.00  0.00     0.097 C
BRANCH  28  29
HETATM   29  C4  UNL     1      14.493  21.130  16.558  1.00  0.00     0.165 C
HETATM   30  C5  UNL     1      13.167  20.500  16.149  1.00  0.00     0.041 A
HETATM   31  C6  UNL     1      13.195  20.351  14.812  1.00  0.00     0.096 A
HETATM   32  C9  UNL     1      12.004  19.939  16.637  1.00  0.00     0.153 A
HETATM   33  C7  UNL     1      12.014  19.674  14.485  1.00  0.00     0.160 A
HETATM   34  C10 UNL     1      14.365  21.033  14.261  1.00  0.00     0.260 C
HETATM   35  N2  UNL     1      11.294  19.426  15.598  1.00  0.00    -0.312 N
HETATM   36  C8  UNL     1      10.005  18.742  15.670  1.00  0.00     0.160 C
HETATM   37  O3  UNL     1      14.614  21.018  13.023  1.00  0.00    -0.267 OA
HETATM   38  N3  UNL     1      15.033  21.624  15.362  1.00  0.00    -0.325 N
BRANCH  33  39
HETATM   39  O1  UNL     1      11.659  19.318  13.189  1.00  0.00    -0.345 OA
ATOM     40  H1  UNL     1      10.819  18.943  12.955  1.00  0.00     0.219 HD
ENDBRANCH  33  39
BRANCH  38  41
HETATM   41  C11 UNL     1      16.055  22.665  15.190  1.00  0.00     0.136 C
HETATM   42  C12 UNL     1      17.448  22.208  15.625  1.00  0.00     0.195 C
HETATM   43  O4  UNL     1      17.701  23.574  15.907  1.00  0.00    -0.387 OA
HETATM   44  C13 UNL     1      16.325  23.623  16.259  1.00  0.00     0.195 C
ENDBRANCH  38  41
BRANCH  32  45
HETATM   45  O2  UNL     1      11.600  19.892  17.975  1.00  0.00    -0.345 OA
ATOM     46  H2  UNL     1      10.749  20.141  18.318  1.00  0.00     0.219 HD
ENDBRANCH  32  45
ENDBRANCH  28  29
ENDBRANCH   1  28
TORSDOF 14
ENDMDL