MODEL 5
REMARK VINA RESULT: -8.848583508      2.192      3.714
REMARK  13 active torsions:
REMARK  status: ('A' for Active; 'I' for Inactive)
REMARK    1  A    between atoms: C2_2  and  O1_3
REMARK    2  A    between atoms: O1_3  and  C3_4
REMARK       I    between atoms: C3_4  and  N1_6
REMARK       I    between atoms: N2_9  and  C6_10
REMARK    3  A    between atoms: C6_10  and  C7_12
REMARK    4  A    between atoms: C7_12  and  C8_13
REMARK    5  A    between atoms: C8_13  and  C9_14
REMARK    6  A    between atoms: C12_17  and  O4_18
REMARK    7  A    between atoms: O4_18  and  C13_19
REMARK    8  A    between atoms: C13_19  and  C14_20
REMARK    9  A    between atoms: C14_20  and  C15_21
REMARK   10  A    between atoms: C15_21  and  N3_22
REMARK   11  A    between atoms: N4_25  and  C18_26
REMARK   12  A    between atoms: C26_34  and  C27_35
REMARK   13  A    between atoms: N7_41  and  O5_43
ROOT
HETATM    1  C9  UNL     1      20.525  26.014  18.212  1.00  0.00    -0.051 A
HETATM    2  C10 UNL     1      20.469  25.634  16.905  1.00  0.00     0.010 A
HETATM    3  C11 UNL     1      19.782  24.477  16.559  1.00  0.00     0.038 A
HETATM    4  C12 UNL     1      19.144  23.680  17.501  1.00  0.00     0.082 A
HETATM    5  C26 UNL     1      19.192  24.049  18.845  1.00  0.00     0.038 A
HETATM    6  C28 UNL     1      19.890  25.220  19.155  1.00  0.00     0.025 A
ENDROOT
BRANCH   1   7
HETATM    7  C8  UNL     1      21.237  27.256  18.656  1.00  0.00     0.103 C
BRANCH   7   8
HETATM    8  C7  UNL     1      22.695  27.063  18.815  1.00  0.00     0.104 C
HETATM    9  N7  UNL     1      23.429  27.561  17.842  1.00  0.00    -0.266 N
ATOM     10  H7  UNL     1      24.440  27.437  17.890  1.00  0.00     0.194 HD
BRANCH   8  11
HETATM   11  C6  UNL     1      23.340  26.377  19.885  1.00  0.00     0.268 C
HETATM   12  N2  UNL     1      23.816  25.057  19.818  1.00  0.00    -0.344 N
HETATM   13  C5  UNL     1      23.700  24.164  18.691  1.00  0.00     0.146 C
HETATM   14  C30 UNL     1      24.531  24.492  20.997  1.00  0.00     0.146 C
HETATM   15  C4  UNL     1      24.249  22.763  19.017  1.00  0.00     0.148 C
HETATM   16  N1  UNL     1      25.588  22.889  19.580  1.00  0.00    -0.325 N
HETATM   17  C3  UNL     1      26.599  21.917  19.372  1.00  0.00     0.362 C
HETATM   18  C31 UNL     1      25.888  24.060  20.407  1.00  0.00     0.148 C
HETATM   19  O2  UNL     1      27.740  22.088  19.864  1.00  0.00    -0.238 OA
HETATM   20  O3  UNL     1      23.516  26.974  21.003  1.00  0.00    -0.266 OA
BRANCH  17  21
HETATM   21  O1  UNL     1      26.350  20.757  18.622  1.00  0.00    -0.304 OA
BRANCH  21  22
HETATM   22  C2  UNL     1      26.667  19.522  19.264  1.00  0.00     0.176 C
HETATM   23  C1  UNL     1      26.458  18.404  18.277  1.00  0.00     0.034 C
ENDBRANCH  21  22
ENDBRANCH  17  21
ENDBRANCH   8  11
BRANCH   9  24
HETATM   24  O5  UNL     1      22.914  28.233  16.776  1.00  0.00    -0.285 OA
HETATM   25  C29 UNL     1      23.128  27.850  15.428  1.00  0.00     0.237 C
ENDBRANCH   9  24
ENDBRANCH   7   8
ENDBRANCH   1   7
BRANCH   5  26
HETATM   26  C27 UNL     1      18.570  23.280  19.896  1.00  0.00     0.123 C
HETATM   27  N5  UNL     1      17.364  23.121  20.083  1.00  0.00    -0.387 N
ATOM     28  H52 UNL     1      16.734  23.586  19.429  1.00  0.00     0.157 HD
ATOM     29  H51 UNL     1      16.924  22.578  20.826  1.00  0.00     0.157 HD
HETATM   30  N6  UNL     1      19.462  22.621  20.824  1.00  0.00    -0.082 NA
ENDBRANCH   5  26
BRANCH   4  31
HETATM   31  O4  UNL     1      18.480  22.561  17.157  1.00  0.00    -0.350 OA
BRANCH  31  32
HETATM   32  C13 UNL     1      17.919  22.013  16.055  1.00  0.00     0.177 C
BRANCH  32  33
HETATM   33  C14 UNL     1      17.019  22.845  15.216  1.00  0.00     0.057 C
BRANCH  33  34
HETATM   34  C15 UNL     1      15.759  22.191  14.742  1.00  0.00     0.275 C
BRANCH  34  35
HETATM   35  N3  UNL     1      14.567  22.554  15.461  1.00  0.00     0.097 N
HETATM   36  C16 UNL     1      14.902  23.083  16.751  1.00  0.00     0.317 C
HETATM   37  C17 UNL     1      14.457  22.235  17.907  1.00  0.00     0.093 C
HETATM   38  N4  UNL     1      14.479  20.842  17.729  1.00  0.00    -0.366 N
HETATM   39  C24 UNL     1      14.274  20.383  16.415  1.00  0.00     0.093 C
HETATM   40  C25 UNL     1      13.650  21.477  15.569  1.00  0.00     0.317 C
BRANCH  38  41
HETATM   41  C18 UNL     1      13.912  20.079  18.785  1.00  0.00     0.088 C
HETATM   42  C19 UNL     1      14.850  19.868  19.944  1.00  0.00     0.026 C
HETATM   43  C20 UNL     1      14.024  19.495  21.160  1.00  0.00     0.002 C
HETATM   44  C21 UNL     1      13.071  18.387  20.811  1.00  0.00     0.000 C
HETATM   45  C22 UNL     1      13.389  17.761  19.477  1.00  0.00     0.002 C
HETATM   46  C23 UNL     1      13.385  18.736  18.343  1.00  0.00     0.026 C
ENDBRANCH  38  41
ENDBRANCH  34  35
ENDBRANCH  33  34
ENDBRANCH  32  33
ENDBRANCH  31  32
ENDBRANCH   4  31
TORSDOF 13
ENDMDL