MODEL 5
REMARK VINA RESULT: -8.849798458      1.133      3.643
REMARK  16 active torsions:
REMARK  status: ('A' for Active; 'I' for Inactive)
REMARK    1  A    between atoms: C2_2  and  C3_3
REMARK    2  A    between atoms: C3_3  and  N1_4
REMARK    3  A    between atoms: N1_4  and  C4_6
REMARK    4  A    between atoms: C5_9  and  N3_10
REMARK    5  A    between atoms: N3_10  and  C6_12
REMARK    6  A    between atoms: C6_12  and  C7_13
REMARK    7  A    between atoms: C7_13  and  O1_14
REMARK    8  A    between atoms: O1_14  and  C8_15
REMARK    9  A    between atoms: C8_15  and  C9_16
REMARK   10  A    between atoms: C9_16  and  N4_17
REMARK       I    between atoms: N5_20  and  C12_21
REMARK   11  A    between atoms: C12_21  and  C13_23
REMARK   12  A    between atoms: C13_23  and  C14_24
REMARK   13  A    between atoms: N7_34  and  C22_35
REMARK   14  A    between atoms: C26_39  and  O3_40
REMARK   15  A    between atoms: O3_40  and  C27_41
REMARK   16  A    between atoms: C27_41  and  C28_43
ROOT
HETATM    1  C4  UNL     1      14.188  23.152  15.944  1.00  0.00     0.681 A
HETATM    2  N2  UNL     1      15.424  23.729  15.872  1.00  0.00    -0.175 N
ATOM      3  H2  UNL     1      15.624  24.400  15.130  1.00  0.00     0.186 HD
HETATM    4  C5  UNL     1      16.381  23.425  16.770  1.00  0.00     0.147 A
HETATM    5  C20 UNL     1      16.149  22.527  17.783  1.00  0.00     0.123 A
HETATM    6  N6  UNL     1      16.844  22.024  18.788  1.00  0.00    -0.346 N
ATOM      7  H6  UNL     1      17.812  22.253  19.014  1.00  0.00     0.167 HD
HETATM    8  C21 UNL     1      16.080  21.178  19.450  1.00  0.00     0.185 A
HETATM    9  N7  UNL     1      14.825  21.086  18.901  1.00  0.00    -0.322 N
HETATM   10  C32 UNL     1      14.873  21.941  17.846  1.00  0.00     0.155 A
HETATM   11  N8  UNL     1      13.934  22.269  16.928  1.00  0.00    -0.174 N
ATOM     12  H8  UNL     1      13.012  21.838  16.984  1.00  0.00     0.186 HD
ENDROOT
BRANCH   4  13
HETATM   13  N3  UNL     1      17.519  23.989  16.659  1.00  0.00    -0.372 N
ATOM     14  H3  UNL     1      18.346  23.392  16.631  1.00  0.00     0.161 HD
BRANCH  13  15
HETATM   15  C6  UNL     1      17.714  25.413  16.572  1.00  0.00     0.147 C
BRANCH  15  16
HETATM   16  C7  UNL     1      18.323  25.755  15.207  1.00  0.00     0.187 C
BRANCH  16  17
HETATM   17  O1  UNL     1      19.670  25.984  15.259  1.00  0.00    -0.388 OA
BRANCH  17  18
HETATM   18  C8  UNL     1      20.136  26.569  16.425  1.00  0.00     0.198 C
BRANCH  18  19
HETATM   19  C9  UNL     1      21.622  26.806  16.245  1.00  0.00     0.298 C
BRANCH  19  20
HETATM   20  N4  UNL     1      22.234  27.387  17.397  1.00  0.00     0.093 N
HETATM   21  C10 UNL     1      23.616  27.030  17.502  1.00  0.00     0.292 C
HETATM   22  C11 UNL     1      23.872  25.651  18.047  1.00  0.00     0.156 C
HETATM   23  N5  UNL     1      22.937  25.427  19.154  1.00  0.00    -0.349 N
HETATM   24  C12 UNL     1      22.646  24.111  19.587  1.00  0.00     0.220 C
HETATM   25  C18 UNL     1      22.367  26.632  19.731  1.00  0.00     0.156 C
HETATM   26  O2  UNL     1      23.237  23.160  18.988  1.00  0.00    -0.273 OA
HETATM   27  C19 UNL     1      21.493  27.219  18.607  1.00  0.00     0.292 C
BRANCH  24  28
HETATM   28  C13 UNL     1      21.707  23.804  20.675  1.00  0.00     0.111 C
BRANCH  28  29
HETATM   29  C14 UNL     1      20.298  23.562  20.197  1.00  0.00    -0.043 C
HETATM   30  C15 UNL     1      19.814  22.185  20.680  1.00  0.00     0.015 C
HETATM   31  C16 UNL     1      19.325  24.559  20.786  1.00  0.00     0.015 C
HETATM   32  C17 UNL     1      20.192  23.607  18.693  1.00  0.00     0.015 C
ENDBRANCH  28  29
ENDBRANCH  24  28
ENDBRANCH  19  20
ENDBRANCH  18  19
ENDBRANCH  17  18
ENDBRANCH  16  17
ENDBRANCH  15  16
ENDBRANCH  13  15
ENDBRANCH   4  13
BRANCH   1  33
HETATM   33  N1  UNL     1      13.297  23.452  15.082  1.00  0.00    -0.223 N
ATOM     34  H1  UNL     1      12.975  24.420  15.059  1.00  0.00     0.178 HD
BRANCH  33  35
HETATM   35  C3  UNL     1      12.721  22.552  14.156  1.00  0.00     0.164 C
BRANCH  35  36
HETATM   36  C2  UNL     1      13.736  21.765  13.402  1.00  0.00    -0.017 C
HETATM   37  C1  UNL     1      13.714  20.451  13.393  1.00  0.00     0.008 C
ENDBRANCH  35  36
ENDBRANCH  33  35
ENDBRANCH   1  33
BRANCH   9  38
HETATM   38  C22 UNL     1      13.747  20.247  19.383  1.00  0.00     0.095 C
HETATM   39  C23 UNL     1      14.162  19.453  20.554  1.00  0.00     0.026 C
HETATM   40  C24 UNL     1      13.638  18.050  20.668  1.00  0.00     0.004 C
HETATM   41  C25 UNL     1      13.436  17.328  19.374  1.00  0.00     0.033 C
HETATM   42  C26 UNL     1      12.463  18.222  18.574  1.00  0.00     0.134 C
HETATM   43  C31 UNL     1      13.278  19.422  18.207  1.00  0.00     0.058 C
BRANCH  42  44
HETATM   44  O3  UNL     1      12.130  17.556  17.366  1.00  0.00    -0.316 OA
BRANCH  44  45
HETATM   45  C27 UNL     1      10.792  17.475  16.948  1.00  0.00     0.262 C
HETATM   46  O4  UNL     1      10.072  16.683  17.604  1.00  0.00    -0.265 OA
BRANCH  45  47
HETATM   47  C28 UNL     1      10.264  18.273  15.807  1.00  0.00     0.077 C
HETATM   48  C29 UNL     1      10.181  19.740  16.091  1.00  0.00     0.020 C
HETATM   49  C30 UNL     1      11.031  18.009  14.532  1.00  0.00     0.020 C
ENDBRANCH  45  47
ENDBRANCH  44  45
ENDBRANCH  42  44
ENDBRANCH   9  38
TORSDOF 16
ENDMDL