MODEL 5
REMARK VINA RESULT: -8.690616832      2.823     10.818
REMARK  14 active torsions:
REMARK  status: ('A' for Active; 'I' for Inactive)
REMARK    1  A    between atoms: C2_2  and  C3_3
REMARK    2  A    between atoms: C3_3  and  C4_4
REMARK    3  A    between atoms: C3_3  and  N2_14
REMARK       I    between atoms: C4_4  and  N1_6
REMARK    4  A    between atoms: N1_6  and  C5_8
REMARK    5  A    between atoms: N2_14  and  C11_15
REMARK    6  A    between atoms: N2_14  and  C13_17
REMARK    7  A    between atoms: C13_17  and  O2_18
REMARK    8  A    between atoms: C13_17  and  C14_20
REMARK    9  A    between atoms: C14_20  and  N3_21
REMARK   10  A    between atoms: N4_24  and  C16_25
REMARK   11  A    between atoms: C16_25  and  C17_26
REMARK   12  A    between atoms: C17_26  and  C18_27
REMARK       I    between atoms: C18_27  and  N5_29
REMARK   13  A    between atoms: N5_29  and  C19_31
REMARK   14  A    between atoms: N7_44  and  C29_45
ROOT
HETATM    1  N3  UNL     1       9.823 -18.490 -16.868  1.00  0.00    -0.253 N
HETATM    2  C15 UNL     1       9.537 -17.379 -16.099  1.00  0.00     0.337 A
HETATM    3  O3  UNL     1       9.851 -17.372 -14.873  1.00  0.00    -0.246 OA
HETATM    4  N4  UNL     1       8.930 -16.256 -16.548  1.00  0.00    -0.260 N
HETATM    5  C25 UNL     1       8.562 -16.165 -17.809  1.00  0.00     0.282 A
HETATM    6  O5  UNL     1       7.989 -15.190 -18.318  1.00  0.00    -0.265 OA
HETATM    7  C26 UNL     1       8.829 -17.258 -18.645  1.00  0.00     0.148 A
HETATM    8  N6  UNL     1       8.614 -17.378 -19.959  1.00  0.00    -0.339 N
ATOM      9  H6  UNL     1       8.171 -16.701 -20.580  1.00  0.00     0.167 HD
HETATM   10  C27 UNL     1       9.119 -18.606 -20.290  1.00  0.00     0.082 A
HETATM   11  C28 UNL     1       9.099 -19.067 -21.694  1.00  0.00     0.089 C
HETATM   12  N7  UNL     1       9.624 -19.221 -19.211  1.00  0.00    -0.316 N
HETATM   13  C32 UNL     1       9.452 -18.389 -18.154  1.00  0.00     0.152 A
ENDROOT
BRANCH   1  14
HETATM   14  C14 UNL     1      10.489 -19.500 -16.226  1.00  0.00     0.159 C
BRANCH  14  15
HETATM   15  C13 UNL     1      11.930 -19.558 -16.080  1.00  0.00     0.155 C
BRANCH  15  16
HETATM   16  N2  UNL     1      12.982 -20.068 -16.824  1.00  0.00    -0.348 N
BRANCH  16  17
HETATM   17  C3  UNL     1      13.299 -21.513 -16.713  1.00  0.00     0.178 C
BRANCH  17  18
HETATM   18  C2  UNL     1      13.986 -22.187 -17.798  1.00  0.00     0.030 C
HETATM   19  C1  UNL     1      13.582 -23.611 -18.017  1.00  0.00     0.007 C
ENDBRANCH  17  18
BRANCH  17  20
HETATM   20  C4  UNL     1      14.036 -21.617 -15.399  1.00  0.00     0.240 C
HETATM   21  O1  UNL     1      13.434 -21.523 -14.305  1.00  0.00    -0.271 OA
HETATM   22  N1  UNL     1      15.441 -21.825 -15.396  1.00  0.00    -0.355 N
ATOM     23  H1  UNL     1      15.955 -21.905 -16.272  1.00  0.00     0.162 HD
BRANCH  22  24
HETATM   24  C5  UNL     1      16.130 -21.922 -14.129  1.00  0.00     0.084 C
HETATM   25  C6  UNL     1      17.534 -21.408 -14.320  1.00  0.00     0.025 C
HETATM   26  C7  UNL     1      18.313 -22.258 -15.293  1.00  0.00     0.002 C
HETATM   27  C8  UNL     1      18.125 -23.705 -14.958  1.00  0.00     0.000 C
HETATM   28  C9  UNL     1      17.560 -23.862 -13.563  1.00  0.00     0.002 C
HETATM   29  C10 UNL     1      16.128 -23.351 -13.609  1.00  0.00     0.025 C
ENDBRANCH  22  24
ENDBRANCH  17  20
ENDBRANCH  16  17
BRANCH  16  30
HETATM   30  C11 UNL     1      13.817 -19.395 -17.791  1.00  0.00     0.121 C
HETATM   31  C12 UNL     1      13.274 -18.210 -18.483  1.00  0.00     0.026 C
ENDBRANCH  16  30
ENDBRANCH  15  16
BRANCH  15  32
HETATM   32  O2  UNL     1      12.386 -18.985 -14.953  1.00  0.00    -0.345 OA
ATOM     33  H2  UNL     1      11.923 -18.173 -14.783  1.00  0.00     0.219 HD
ENDBRANCH  15  32
ENDBRANCH  14  15
ENDBRANCH   1  14
BRANCH   4  34
HETATM   34  C16 UNL     1       8.619 -15.200 -15.597  1.00  0.00     0.170 C
BRANCH  34  35
HETATM   35  C17 UNL     1       7.319 -15.386 -14.925  1.00  0.00     0.067 C
BRANCH  35  36
HETATM   36  C18 UNL     1       6.060 -15.328 -15.633  1.00  0.00     0.239 C
HETATM   37  O4  UNL     1       5.461 -14.338 -16.075  1.00  0.00    -0.269 OA
HETATM   38  N5  UNL     1       5.364 -16.595 -15.881  1.00  0.00    -0.353 N
ATOM     39  H5  UNL     1       5.762 -17.477 -15.561  1.00  0.00     0.163 HD
BRANCH  38  40
HETATM   40  C19 UNL     1       4.125 -16.570 -16.574  1.00  0.00     0.084 C
HETATM   41  C20 UNL     1       3.982 -17.763 -17.521  1.00  0.00     0.025 C
HETATM   42  C21 UNL     1       2.881 -17.402 -18.495  1.00  0.00     0.002 C
HETATM   43  C22 UNL     1       1.727 -16.718 -17.820  1.00  0.00     0.000 C
HETATM   44  C23 UNL     1       1.669 -17.011 -16.339  1.00  0.00     0.002 C
HETATM   45  C24 UNL     1       2.945 -16.637 -15.630  1.00  0.00     0.025 C
ENDBRANCH  38  40
ENDBRANCH  35  36
ENDBRANCH  34  35
ENDBRANCH   4  34
BRANCH  12  46
HETATM   46  C29 UNL     1      10.297 -20.483 -19.157  1.00  0.00     0.093 A
HETATM   47  C30 UNL     1      11.427 -20.742 -20.157  1.00  0.00     0.028 A
HETATM   48  C31 UNL     1      10.213 -21.589 -20.092  1.00  0.00     0.028 A
ENDBRANCH  12  46
TORSDOF 14
ENDMDL