MODEL 4
REMARK VINA RESULT: -8.783026372      3.934     12.238
REMARK  14 active torsions:
REMARK  status: ('A' for Active; 'I' for Inactive)
REMARK    1  A    between atoms: O1_2  and  C2_3
REMARK    2  A    between atoms: C2_3  and  C3_4
REMARK       I    between atoms: C3_4  and  N1_6
REMARK    3  A    between atoms: C6_9  and  C7_10
REMARK    4  A    between atoms: C9_12  and  O3_13
REMARK    5  A    between atoms: O3_13  and  C10_14
REMARK    6  A    between atoms: C13_17  and  N2_18
REMARK    7  A    between atoms: N2_18  and  C14_20
REMARK    8  A    between atoms: C17_27  and  N5_28
REMARK    9  A    between atoms: N5_28  and  C18_30
REMARK   10  A    between atoms: C18_30  and  C19_31
REMARK   11  A    between atoms: C19_31  and  C20_32
REMARK   12  A    between atoms: C20_32  and  N6_33
REMARK   13  A    between atoms: C26_42  and  O4_43
REMARK   14  A    between atoms: O4_43  and  C27_44
ROOT
HETATM    1  C7  UNL     1      13.078 -21.908 -17.988  1.00  0.00    -0.048 A
HETATM    2  C8  UNL     1      13.820 -22.533 -18.939  1.00  0.00     0.047 A
HETATM    3  C9  UNL     1      15.201 -22.802 -18.813  1.00  0.00     0.099 A
HETATM    4  C13 UNL     1      15.791 -22.390 -17.649  1.00  0.00     0.116 A
HETATM    5  C26 UNL     1      15.094 -21.745 -16.626  1.00  0.00     0.100 A
HETATM    6  C30 UNL     1      13.707 -21.520 -16.847  1.00  0.00     0.047 A
ENDROOT
BRANCH   4   7
HETATM    7  N2  UNL     1      17.206 -22.564 -17.531  1.00  0.00    -0.185 N
ATOM      8  H2  UNL     1      17.801 -22.388 -18.339  1.00  0.00     0.184 HD
BRANCH   7   9
HETATM    9  C14 UNL     1      17.744 -22.941 -16.412  1.00  0.00     0.698 A
HETATM   10  N3  UNL     1      18.574 -22.132 -15.765  1.00  0.00    -0.180 N
HETATM   11  C15 UNL     1      19.108 -22.570 -14.602  1.00  0.00     0.109 A
ATOM     12  H3  UNL     1      18.802 -21.209 -16.133  1.00  0.00     0.185 HD
HETATM   13  C16 UNL     1      20.046 -21.751 -13.802  1.00  0.00     0.090 C
HETATM   14  N4  UNL     1      18.800 -23.795 -14.121  1.00  0.00    -0.180 N
HETATM   15  C17 UNL     1      17.962 -24.620 -14.768  1.00  0.00     0.694 A
ATOM     16  H4  UNL     1      19.215 -24.102 -13.241  1.00  0.00     0.185 HD
HETATM   17  N8  UNL     1      17.450 -24.144 -15.926  1.00  0.00    -0.022 N
ATOM     18  H8  UNL     1      16.807 -24.736 -16.453  1.00  0.00     0.203 HD
BRANCH  15  19
HETATM   19  N5  UNL     1      17.650 -25.783 -14.331  1.00  0.00    -0.225 N
ATOM     20  H5  UNL     1      16.974 -26.356 -14.835  1.00  0.00     0.177 HD
BRANCH  19  21
HETATM   21  C18 UNL     1      18.261 -26.276 -13.121  1.00  0.00     0.143 C
BRANCH  21  22
HETATM   22  C19 UNL     1      17.967 -27.776 -12.960  1.00  0.00     0.065 C
BRANCH  22  23
HETATM   23  C20 UNL     1      19.174 -28.522 -13.394  1.00  0.00     0.069 C
BRANCH  23  24
HETATM   24  N6  UNL     1      19.466 -28.517 -14.763  1.00  0.00    -0.351 N
HETATM   25  C21 UNL     1      20.671 -27.956 -15.220  1.00  0.00     0.098 C
HETATM   26  C22 UNL     1      20.642 -27.504 -16.661  1.00  0.00     0.317 C
HETATM   27  N7  UNL     1      19.300 -27.516 -17.211  1.00  0.00     0.093 N
HETATM   28  C23 UNL     1      19.383 -27.175 -18.611  1.00  0.00     0.310 C
HETATM   29  C24 UNL     1      18.812 -28.892 -17.094  1.00  0.00     0.317 C
HETATM   30  C25 UNL     1      18.697 -29.300 -15.643  1.00  0.00     0.098 C
ENDBRANCH  23  24
ENDBRANCH  22  23
ENDBRANCH  21  22
ENDBRANCH  19  21
ENDBRANCH  15  19
ENDBRANCH   7   9
ENDBRANCH   4   7
BRANCH   3  31
HETATM   31  O3  UNL     1      15.732 -23.433 -19.870  1.00  0.00    -0.344 OA
BRANCH  31  32
HETATM   32  C10 UNL     1      15.842 -24.689 -20.322  1.00  0.00     0.120 C
HETATM   33  C11 UNL     1      17.244 -24.926 -20.982  1.00  0.00     0.040 C
HETATM   34  C12 UNL     1      15.828 -25.722 -19.180  1.00  0.00     0.040 C
ENDBRANCH  31  32
ENDBRANCH   3  31
BRANCH   5  35
HETATM   35  O4  UNL     1      15.614 -21.330 -15.465  1.00  0.00    -0.344 OA
BRANCH  35  36
HETATM   36  C27 UNL     1      15.469 -21.225 -14.143  1.00  0.00     0.129 A
HETATM   37  C28 UNL     1      15.357 -22.450 -13.252  1.00  0.00     0.035 A
HETATM   38  C29 UNL     1      14.196 -21.505 -13.415  1.00  0.00     0.035 A
ENDBRANCH  35  36
ENDBRANCH   5  35
BRANCH   1  39
HETATM   39  C6  UNL     1      11.597 -21.661 -18.182  1.00  0.00     0.022 C
HETATM   40  C5  UNL     1      11.129 -20.487 -17.403  1.00  0.00     0.029 C
HETATM   41  C4  UNL     1      10.517 -19.397 -18.246  1.00  0.00     0.126 C
HETATM   42  N1  UNL     1       9.487 -19.987 -19.061  1.00  0.00    -0.350 N
HETATM   43  C3  UNL     1       8.141 -19.486 -19.067  1.00  0.00     0.243 C
HETATM   44  C32 UNL     1       9.850 -21.119 -19.891  1.00  0.00     0.126 C
HETATM   45  O2  UNL     1       7.898 -18.514 -18.345  1.00  0.00    -0.271 OA
HETATM   46  C31 UNL     1      11.238 -21.600 -19.648  1.00  0.00     0.029 C
BRANCH  43  47
HETATM   47  C2  UNL     1       7.101 -20.109 -19.902  1.00  0.00     0.269 C
BRANCH  47  48
HETATM   48  O1  UNL     1       6.107 -20.783 -19.238  1.00  0.00    -0.387 OA
HETATM   49  C1  UNL     1       4.851 -20.262 -19.269  1.00  0.00     0.202 C
ENDBRANCH  47  48
ENDBRANCH  43  47
ENDBRANCH   1  39
TORSDOF 14
ENDMDL