MODEL 4
REMARK VINA RESULT: -9.521212586      1.500      3.045
REMARK  13 active torsions:
REMARK  status: ('A' for Active; 'I' for Inactive)
REMARK    1  A    between atoms: C2_2  and  C3_3
REMARK    2  A    between atoms: C3_3  and  N1_4
REMARK    3  A    between atoms: C6_7  and  N2_8
REMARK    4  A    between atoms: N2_8  and  C8_10
REMARK    5  A    between atoms: C10_12  and  O1_13
REMARK    6  A    between atoms: C12_15  and  N3_16
REMARK    7  A    between atoms: N3_16  and  C13_18
REMARK    8  A    between atoms: N6_25  and  C16_27
REMARK    9  A    between atoms: C16_27  and  C17_28
REMARK   10  A    between atoms: C17_28  and  C18_29
REMARK   11  A    between atoms: C18_29  and  N7_30
REMARK   12  A    between atoms: C29_44  and  O2_45
REMARK   13  A    between atoms: O2_45  and  C30_46
ROOT
HETATM    1  C13 UNL     1      12.897 -18.882 -16.355  1.00  0.00     0.684 A
HETATM    2  N4  UNL     1      14.183 -19.180 -16.498  1.00  0.00    -0.175 N
ATOM      3  H4  UNL     1      14.720 -18.622 -17.161  1.00  0.00     0.186 HD
HETATM    4  C14 UNL     1      14.831 -20.148 -15.848  1.00  0.00     0.134 A
HETATM    5  N5  UNL     1      16.118 -20.420 -15.993  1.00  0.00    -0.327 N
ATOM      6  H5  UNL     1      16.649 -19.857 -16.659  1.00  0.00     0.169 HD
HETATM    7  C15 UNL     1      16.784 -21.399 -15.316  1.00  0.00     0.106 A
HETATM    8  N6  UNL     1      17.996 -21.537 -15.554  1.00  0.00    -0.356 N
ATOM      9  H6  UNL     1      18.293 -20.855 -16.252  1.00  0.00     0.166 HD
HETATM   10  C24 UNL     1      16.095 -22.178 -14.410  1.00  0.00     0.049 A
HETATM   11  C25 UNL     1      14.753 -21.927 -14.230  1.00  0.00     0.020 A
HETATM   12  C26 UNL     1      14.124 -20.929 -14.935  1.00  0.00     0.025 A
HETATM   13  C27 UNL     1      12.772 -20.629 -14.776  1.00  0.00     0.121 A
HETATM   14  N9  UNL     1      12.198 -19.638 -15.469  1.00  0.00    -0.201 N
ATOM     15  H9  UNL     1      11.206 -19.444 -15.327  1.00  0.00     0.183 HD
ENDROOT
BRANCH   1  16
HETATM   16  N3  UNL     1      12.258 -17.947 -16.945  1.00  0.00    -0.189 N
ATOM     17  H3  UNL     1      12.735 -17.049 -17.010  1.00  0.00     0.184 HD
BRANCH  16  18
HETATM   18  C12 UNL     1      10.965 -18.012 -17.517  1.00  0.00     0.085 A
HETATM   19  C10 UNL     1       9.864 -17.352 -17.022  1.00  0.00     0.097 A
HETATM   20  C9  UNL     1       8.623 -17.455 -17.611  1.00  0.00     0.071 A
HETATM   21  C8  UNL     1       8.416 -18.231 -18.733  1.00  0.00     0.067 A
HETATM   22  C29 UNL     1       9.520 -18.906 -19.248  1.00  0.00     0.098 A
HETATM   23  C28 UNL     1      10.758 -18.801 -18.659  1.00  0.00     0.072 A
BRANCH  19  24
HETATM   24  O1  UNL     1      10.022 -16.558 -15.886  1.00  0.00    -0.354 OA
HETATM   25  C11 UNL     1       9.294 -16.698 -14.702  1.00  0.00     0.210 C
ENDBRANCH  19  24
BRANCH  21  26
HETATM   26  N2  UNL     1       7.112 -18.342 -19.326  1.00  0.00    -0.376 N
HETATM   27  C7  UNL     1       6.797 -17.653 -20.563  1.00  0.00     0.150 C
BRANCH  26  28
HETATM   28  C6  UNL     1       6.095 -19.141 -18.698  1.00  0.00     0.107 C
HETATM   29  C5  UNL     1       4.878 -18.314 -18.326  1.00  0.00     0.071 C
HETATM   30  C4  UNL     1       3.717 -19.262 -18.517  1.00  0.00     0.065 C
HETATM   31  N1  UNL     1       4.161 -20.418 -19.166  1.00  0.00    -0.372 N
HETATM   32  C33 UNL     1       5.567 -20.274 -19.491  1.00  0.00     0.152 C
BRANCH  31  33
HETATM   33  C3  UNL     1       3.767 -21.699 -18.756  1.00  0.00     0.062 C
BRANCH  33  34
HETATM   34  C2  UNL     1       2.615 -22.356 -19.419  1.00  0.00     0.040 C
HETATM   35  C1  UNL     1       2.498 -23.844 -19.248  1.00  0.00     0.010 C
ENDBRANCH  33  34
ENDBRANCH  31  33
ENDBRANCH  26  28
ENDBRANCH  21  26
BRANCH  22  36
HETATM   36  O2  UNL     1       9.342 -19.680 -20.361  1.00  0.00    -0.344 OA
BRANCH  36  37
HETATM   37  C30 UNL     1       9.383 -21.064 -20.460  1.00  0.00     0.129 A
HETATM   38  C31 UNL     1       9.621 -21.649 -21.809  1.00  0.00     0.035 A
HETATM   39  C32 UNL     1      10.684 -21.745 -20.753  1.00  0.00     0.035 A
ENDBRANCH  36  37
ENDBRANCH  22  36
ENDBRANCH  16  18
ENDBRANCH   1  16
BRANCH   8  40
HETATM   40  C16 UNL     1      19.065 -22.316 -15.175  1.00  0.00     0.064 C
BRANCH  40  41
HETATM   41  C17 UNL     1      19.492 -23.481 -16.005  1.00  0.00     0.064 C
BRANCH  41  42
HETATM   42  C18 UNL     1      18.449 -24.573 -16.121  1.00  0.00     0.122 C
BRANCH  42  43
HETATM   43  N7  UNL     1      18.193 -24.844 -17.486  1.00  0.00    -0.409 N
HETATM   44  C19 UNL     1      18.017 -26.192 -17.864  1.00  0.00     0.147 C
HETATM   45  C20 UNL     1      17.704 -26.399 -19.323  1.00  0.00     0.291 C
HETATM   46  N8  UNL     1      16.667 -25.491 -19.725  1.00  0.00     0.087 N
HETATM   47  C21 UNL     1      15.451 -25.686 -18.991  1.00  0.00     0.310 C
HETATM   48  C22 UNL     1      17.214 -24.156 -19.634  1.00  0.00     0.291 C
HETATM   49  C23 UNL     1      17.515 -23.842 -18.211  1.00  0.00     0.147 C
ENDBRANCH  42  43
ENDBRANCH  41  42
ENDBRANCH  40  41
ENDBRANCH   8  40
TORSDOF 13
ENDMDL