MODEL 2
REMARK VINA RESULT: -9.702749569      2.907     12.425
REMARK  12 active torsions:
REMARK  status: ('A' for Active; 'I' for Inactive)
REMARK    1  A    between atoms: C3_4  and  N2_5
REMARK       I    between atoms: N2_5  and  C4_7
REMARK    2  A    between atoms: C4_7  and  C5_9
REMARK    3  A    between atoms: C10_18  and  C11_19
REMARK       I    between atoms: C11_19  and  N5_21
REMARK    4  A    between atoms: N5_21  and  C12_23
REMARK    5  A    between atoms: N6_26  and  C15_27
REMARK    6  A    between atoms: C15_27  and  C16_28
REMARK       I    between atoms: C16_28  and  N7_30
REMARK    7  A    between atoms: N8_33  and  C19_34
REMARK    8  A    between atoms: C19_34  and  C20_35
REMARK    9  A    between atoms: C20_35  and  C21_36
REMARK   10  A    between atoms: C21_36  and  C22_37
REMARK   11  A    between atoms: C22_37  and  C23_38
REMARK   12  A    between atoms: C23_38  and  N9_39
ROOT
HETATM    1  C12 UNL     1      14.749 -20.330 -15.115  1.00  0.00     0.052 A
HETATM    2  C13 UNL     1      14.440 -21.406 -14.277  1.00  0.00     0.048 A
HETATM    3  C14 UNL     1      15.620 -21.979 -13.867  1.00  0.00     0.093 A
HETATM    4  N6  UNL     1      16.648 -21.316 -14.405  1.00  0.00    -0.355 N
HETATM    5  C31 UNL     1      16.119 -20.318 -15.161  1.00  0.00     0.120 A
ENDROOT
BRANCH   1   6
HETATM    6  N5  UNL     1      13.757 -19.531 -15.701  1.00  0.00    -0.320 N
HETATM    7  C11 UNL     1      12.418 -19.956 -15.902  1.00  0.00     0.273 C
HETATM    8  O2  UNL     1      12.041 -21.101 -15.555  1.00  0.00    -0.266 OA
ATOM      9  H5  UNL     1      14.013 -18.590 -16.000  1.00  0.00     0.169 HD
BRANCH   7  10
HETATM   10  C10 UNL     1      11.449 -19.043 -16.526  1.00  0.00     0.105 A
HETATM   11  N1  UNL     1      11.594 -18.313 -17.636  1.00  0.00    -0.354 N
HETATM   12  C1  UNL     1      12.808 -18.306 -18.453  1.00  0.00     0.156 C
HETATM   13  C2  UNL     1      10.446 -17.599 -17.865  1.00  0.00     0.120 A
HETATM   14  C3  UNL     1       9.555 -17.880 -16.883  1.00  0.00     0.053 A
HETATM   15  C9  UNL     1      10.197 -18.796 -16.037  1.00  0.00     0.066 A
BRANCH  14  16
HETATM   16  N2  UNL     1       8.248 -17.388 -16.708  1.00  0.00    -0.320 N
HETATM   17  C4  UNL     1       7.966 -16.121 -16.176  1.00  0.00     0.274 C
HETATM   18  O1  UNL     1       8.894 -15.326 -15.816  1.00  0.00    -0.266 OA
ATOM     19  H2  UNL     1       7.467 -17.983 -16.982  1.00  0.00     0.169 HD
BRANCH  17  20
HETATM   20  C5  UNL     1       6.588 -15.659 -16.011  1.00  0.00     0.116 A
HETATM   21  C6  UNL     1       6.222 -14.351 -16.021  1.00  0.00     0.122 A
HETATM   22  N3  UNL     1       4.920 -14.026 -15.856  1.00  0.00    -0.372 N
HETATM   23  C7  UNL     1       3.989 -14.975 -15.681  1.00  0.00     0.104 A
ATOM     24  H3  UNL     1       4.642 -13.044 -15.865  1.00  0.00     0.164 HD
HETATM   25  C8  UNL     1       4.353 -16.286 -15.670  1.00  0.00     0.105 A
HETATM   26  N4  UNL     1       5.637 -16.624 -15.832  1.00  0.00    -0.359 N
ATOM     27  H4  UNL     1       5.908 -17.607 -15.824  1.00  0.00     0.165 HD
ENDBRANCH  17  20
ENDBRANCH  14  16
ENDBRANCH   7  10
ENDBRANCH   1   6
BRANCH   4  28
HETATM   28  C15 UNL     1      18.055 -21.540 -14.273  1.00  0.00     0.230 C
BRANCH  28  29
HETATM   29  C16 UNL     1      18.290 -22.988 -14.039  1.00  0.00     0.238 C
HETATM   30  O3  UNL     1      17.940 -23.511 -12.933  1.00  0.00    -0.272 OA
HETATM   31  N7  UNL     1      18.897 -23.766 -15.044  1.00  0.00    -0.341 N
HETATM   32  C17 UNL     1      19.299 -23.172 -16.292  1.00  0.00     0.146 C
HETATM   33  C30 UNL     1      19.124 -25.166 -14.841  1.00  0.00     0.228 C
HETATM   34  C18 UNL     1      18.749 -23.901 -17.480  1.00  0.00     0.145 C
HETATM   35  N8  UNL     1      18.953 -25.310 -17.330  1.00  0.00    -0.349 N
HETATM   36  C29 UNL     1      19.477 -25.840 -16.138  1.00  0.00     0.237 C
HETATM   37  O4  UNL     1      20.222 -26.848 -16.144  1.00  0.00    -0.272 OA
BRANCH  35  38
HETATM   38  C19 UNL     1      18.617 -26.282 -18.414  1.00  0.00     0.129 C
BRANCH  38  39
HETATM   39  C20 UNL     1      18.681 -25.558 -19.700  1.00  0.00     0.047 C
BRANCH  39  40
HETATM   40  C21 UNL     1      17.628 -25.723 -20.682  1.00  0.00    -0.024 C
BRANCH  40  41
HETATM   41  C22 UNL     1      16.306 -25.131 -20.698  1.00  0.00     0.007 C
BRANCH  41  42
HETATM   42  C23 UNL     1      15.924 -23.813 -20.224  1.00  0.00     0.059 C
BRANCH  42  43
HETATM   43  N9  UNL     1      15.629 -23.541 -18.884  1.00  0.00    -0.293 NA
HETATM   44  C24 UNL     1      14.438 -24.193 -18.381  1.00  0.00     0.095 C
HETATM   45  C25 UNL     1      13.451 -23.172 -17.862  1.00  0.00     0.015 C
HETATM   46  C26 UNL     1      13.269 -22.126 -18.936  1.00  0.00     0.002 C
HETATM   47  C27 UNL     1      14.559 -21.334 -18.996  1.00  0.00     0.015 C
HETATM   48  C28 UNL     1      15.733 -22.151 -18.505  1.00  0.00     0.095 C
ENDBRANCH  42  43
ENDBRANCH  41  42
ENDBRANCH  40  41
ENDBRANCH  39  40
ENDBRANCH  38  39
ENDBRANCH  35  38
ENDBRANCH  28  29
ENDBRANCH   4  28
TORSDOF 12
ENDMDL