MODEL 4
REMARK VINA RESULT: -8.605751122      2.058      2.739
REMARK  13 active torsions:
REMARK  status: ('A' for Active; 'I' for Inactive)
REMARK    1  A    between atoms: C2_2  and  N1_3
REMARK    2  A    between atoms: N1_3  and  C3_4
REMARK       I    between atoms: N1_3  and  C27_39
REMARK    3  A    between atoms: C3_4  and  C4_5
REMARK    4  A    between atoms: C7_8  and  C8_9
REMARK       I    between atoms: C8_9  and  N2_11
REMARK    5  A    between atoms: N3_14  and  C11_15
REMARK    6  A    between atoms: C13_19  and  N5_20
REMARK       I    between atoms: N5_20  and  C14_22
REMARK    7  A    between atoms: C14_22  and  C15_24
REMARK    8  A    between atoms: C15_24  and  C16_25
REMARK    9  A    between atoms: C16_25  and  N6_26
REMARK   10  A    between atoms: N6_26  and  C18_28
REMARK   11  A    between atoms: C18_28  and  C19_29
REMARK   12  A    between atoms: C19_29  and  O3_30
REMARK   13  A    between atoms: C27_39  and  C28_41
ROOT
HETATM    1  C8  UNL     1       8.867 -16.019 -16.559  1.00  0.00     0.224 C
HETATM    2  O1  UNL     1       9.124 -15.012 -15.811  1.00  0.00    -0.273 OA
HETATM    3  N2  UNL     1       9.620 -17.177 -16.395  1.00  0.00    -0.349 N
HETATM    4  C9  UNL     1       9.424 -18.328 -17.235  1.00  0.00     0.145 C
HETATM    5  C10 UNL     1      10.710 -18.412 -18.082  1.00  0.00     0.144 C
HETATM    6  N3  UNL     1      11.812 -18.512 -17.170  1.00  0.00    -0.364 N
HETATM    7  C23 UNL     1      11.908 -17.800 -15.908  1.00  0.00     0.144 C
HETATM    8  C24 UNL     1      10.623 -17.278 -15.369  1.00  0.00     0.145 C
ENDROOT
BRANCH   1   9
HETATM    9  C7  UNL     1       7.765 -15.807 -17.525  1.00  0.00     0.078 C
HETATM   10  C6  UNL     1       8.214 -15.916 -18.947  1.00  0.00     0.014 C
HETATM   11  C5  UNL     1       7.082 -15.634 -19.876  1.00  0.00     0.007 C
HETATM   12  C4  UNL     1       5.815 -16.354 -19.606  1.00  0.00     0.004 C
HETATM   13  C26 UNL     1       5.441 -16.294 -18.122  1.00  0.00     0.007 C
HETATM   14  C25 UNL     1       6.621 -16.724 -17.273  1.00  0.00     0.014 C
BRANCH  12  15
HETATM   15  C3  UNL     1       5.703 -17.763 -20.024  1.00  0.00     0.130 C
BRANCH  15  16
HETATM   16  N1  UNL     1       5.923 -18.070 -21.417  1.00  0.00    -0.347 N
HETATM   17  C27 UNL     1       5.070 -17.607 -22.442  1.00  0.00     0.273 C
HETATM   18  O4  UNL     1       4.129 -16.833 -22.042  1.00  0.00    -0.266 OA
BRANCH  16  19
HETATM   19  C2  UNL     1       7.038 -18.924 -21.744  1.00  0.00     0.121 C
HETATM   20  C1  UNL     1       7.455 -19.732 -20.515  1.00  0.00     0.026 C
ENDBRANCH  16  19
BRANCH  17  21
HETATM   21  C28 UNL     1       5.136 -17.903 -23.851  1.00  0.00     0.132 A
HETATM   22  N7  UNL     1       4.456 -18.741 -24.650  1.00  0.00    -0.334 N
HETATM   23  C29 UNL     1       4.875 -18.657 -25.919  1.00  0.00     0.120 A
ATOM     24  H7  UNL     1       3.713 -19.364 -24.330  1.00  0.00     0.168 HD
HETATM   25  C30 UNL     1       4.396 -19.398 -27.104  1.00  0.00     0.098 C
HETATM   26  O5  UNL     1       5.828 -17.762 -25.936  1.00  0.00    -0.300 OA
HETATM   27  C31 UNL     1       6.027 -17.282 -24.741  1.00  0.00     0.083 A
HETATM   28  C32 UNL     1       7.037 -16.254 -24.421  1.00  0.00     0.079 C
ENDBRANCH  17  21
ENDBRANCH  15  16
ENDBRANCH  12  15
ENDBRANCH   1   9
BRANCH   6  29
HETATM   29  C11 UNL     1      12.940 -19.344 -17.471  1.00  0.00     0.109 A
HETATM   30  N4  UNL     1      13.930 -18.996 -18.305  1.00  0.00    -0.350 N
HETATM   31  C12 UNL     1      14.974 -19.831 -18.555  1.00  0.00     0.119 A
ATOM     32  H4  UNL     1      13.900 -18.085 -18.762  1.00  0.00     0.166 HD
HETATM   33  C13 UNL     1      15.086 -21.063 -17.983  1.00  0.00     0.050 A
HETATM   34  C20 UNL     1      14.050 -21.452 -17.097  1.00  0.00     0.041 A
HETATM   35  C21 UNL     1      13.016 -20.577 -16.873  1.00  0.00    -0.016 A
HETATM   36  C22 UNL     1      11.914 -20.984 -15.952  1.00  0.00     0.052 C
BRANCH  33  37
HETATM   37  N5  UNL     1      16.108 -22.009 -18.200  1.00  0.00    -0.326 N
HETATM   38  C14 UNL     1      15.994 -23.078 -19.102  1.00  0.00     0.226 C
HETATM   39  O2  UNL     1      15.004 -23.312 -19.793  1.00  0.00    -0.273 OA
ATOM     40  H5  UNL     1      16.976 -21.911 -17.675  1.00  0.00     0.169 HD
BRANCH  38  41
HETATM   41  C15 UNL     1      17.168 -24.048 -19.266  1.00  0.00     0.148 C
BRANCH  41  42
HETATM   42  C16 UNL     1      18.146 -23.758 -18.184  1.00  0.00     0.072 C
BRANCH  42  43
HETATM   43  N6  UNL     1      18.474 -24.720 -17.252  1.00  0.00    -0.376 N
HETATM   44  C17 UNL     1      18.798 -25.985 -17.856  1.00  0.00     0.154 C
BRANCH  43  45
HETATM   45  C18 UNL     1      19.118 -24.513 -16.047  1.00  0.00     0.088 C
BRANCH  45  46
HETATM   46  C19 UNL     1      19.191 -23.138 -15.470  1.00  0.00     0.208 C
BRANCH  46  47
HETATM   47  O3  UNL     1      20.336 -22.451 -15.908  1.00  0.00    -0.396 OA
ATOM     48  H3  UNL     1      21.087 -22.630 -15.354  1.00  0.00     0.209 HD
ENDBRANCH  46  47
ENDBRANCH  45  46
ENDBRANCH  43  45
ENDBRANCH  42  43
ENDBRANCH  41  42
ENDBRANCH  38  41
ENDBRANCH  33  37
ENDBRANCH   6  29
TORSDOF 13
ENDMDL