MODEL 3
REMARK VINA RESULT: -8.409766078      1.101      3.937
REMARK  13 active torsions:
REMARK  status: ('A' for Active; 'I' for Inactive)
REMARK    1  A    between atoms: C11_20  and  N6_21
REMARK    2  A    between atoms: N6_21  and  C12_22
REMARK    3  A    between atoms: C12_22  and  C13_23
REMARK    4  A    between atoms: C13_23  and  C14_24
REMARK    5  A    between atoms: C14_24  and  C15_25
REMARK    6  A    between atoms: C15_25  and  N7_26
REMARK    7  A    between atoms: N7_26  and  C16_27
REMARK       I    between atoms: N7_26  and  C21_33
REMARK    8  A    between atoms: C16_27  and  C17_28
REMARK    9  A    between atoms: C17_28  and  C18_29
REMARK   10  A    between atoms: C18_29  and  N8_30
REMARK       I    between atoms: C21_33  and  N9_35
REMARK   11  A    between atoms: N9_35  and  C22_37
REMARK   12  A    between atoms: C22_37  and  C23_38
REMARK   13  A    between atoms: C23_38  and  N10_39
ROOT
HETATM    1  C13 UNL     1       8.250 -16.439 -20.668  1.00  0.00     0.061 C
ENDROOT
BRANCH   1   2
HETATM    2  C12 UNL     1       6.936 -16.519 -19.914  1.00  0.00     0.157 C
BRANCH   2   3
HETATM    3  N6  UNL     1       6.838 -16.335 -18.611  1.00  0.00    -0.402 NA
BRANCH   3   4
HETATM    4  C11 UNL     1       6.753 -16.166 -17.439  1.00  0.00     0.214 A
HETATM    5  N5  UNL     1       7.782 -16.388 -16.543  1.00  0.00    -0.100 N
HETATM    6  C6  UNL     1       7.571 -16.148 -15.240  1.00  0.00     0.694 A
HETATM    7  C10 UNL     1       9.039 -16.828 -16.688  1.00  0.00     0.173 A
HETATM    8  N1  UNL     1       6.393 -15.701 -14.771  1.00  0.00    -0.190 N
HETATM    9  N2  UNL     1       8.731 -16.449 -14.580  1.00  0.00    -0.187 N
HETATM   10  C5  UNL     1       5.361 -15.473 -15.607  1.00  0.00     0.064 A
ATOM     11  H1  UNL     1       6.279 -15.535 -13.772  1.00  0.00     0.184 HD
HETATM   12  C4  UNL     1       4.148 -15.013 -15.104  1.00  0.00     0.031 A
HETATM   13  C31 UNL     1       5.505 -15.693 -16.933  1.00  0.00     0.051 A
HETATM   14  C3  UNL     1       3.101 -14.784 -15.971  1.00  0.00     0.009 A
HETATM   15  C2  UNL     1       3.222 -15.000 -17.327  1.00  0.00    -0.061 A
HETATM   16  C1  UNL     1       2.056 -14.726 -18.213  1.00  0.00     0.048 C
HETATM   17  C32 UNL     1       4.443 -15.459 -17.795  1.00  0.00     0.025 A
HETATM   18  C7  UNL     1       9.651 -16.871 -15.454  1.00  0.00     0.097 A
ATOM     19  H2  UNL     1       8.872 -16.364 -13.573  1.00  0.00     0.184 HD
HETATM   20  C8  UNL     1      10.970 -17.303 -15.318  1.00  0.00     0.052 A
HETATM   21  C9  UNL     1      11.659 -17.690 -16.437  1.00  0.00     0.109 A
HETATM   22  N3  UNL     1      11.015 -17.630 -17.630  1.00  0.00    -0.310 N
HETATM   23  N4  UNL     1       9.767 -17.216 -17.722  1.00  0.00    -0.283 N
ATOM     24  H3  UNL     1      11.508 -17.913 -18.477  1.00  0.00     0.186 HD
ATOM     25  H4  UNL     1       9.337 -17.193 -18.646  1.00  0.00     0.188 HD
ENDBRANCH   3   4
ENDBRANCH   2   3
ENDBRANCH   1   2
BRANCH   1  26
HETATM   26  C14 UNL     1       8.499 -17.699 -21.437  1.00  0.00     0.026 C
BRANCH  26  27
HETATM   27  C15 UNL     1       9.451 -18.653 -20.798  1.00  0.00     0.128 C
BRANCH  27  28
HETATM   28  N7  UNL     1       8.952 -19.995 -20.725  1.00  0.00    -0.334 N
HETATM   29  C21 UNL     1       9.861 -21.074 -20.402  1.00  0.00     0.322 C
HETATM   30  O1  UNL     1       9.309 -22.197 -20.352  1.00  0.00    -0.247 OA
HETATM   31  N9  UNL     1      11.215 -20.870 -20.171  1.00  0.00    -0.320 N
ATOM     32  H9  UNL     1      11.480 -19.889 -20.247  1.00  0.00     0.169 HD
BRANCH  28  33
HETATM   33  C16 UNL     1       7.544 -20.296 -20.989  1.00  0.00     0.129 C
BRANCH  33  34
HETATM   34  C17 UNL     1       6.790 -20.149 -19.720  1.00  0.00     0.050 C
BRANCH  34  35
HETATM   35  C18 UNL     1       5.341 -19.867 -19.784  1.00  0.00     0.273 C
BRANCH  35  36
HETATM   36  N8  UNL     1       4.542 -20.129 -18.640  1.00  0.00     0.080 N
HETATM   37  C19 UNL     1       3.577 -18.996 -18.568  1.00  0.00     0.309 C
HETATM   38  C20 UNL     1       3.702 -21.286 -18.854  1.00  0.00     0.309 C
ENDBRANCH  35  36
ENDBRANCH  34  35
ENDBRANCH  33  34
ENDBRANCH  28  33
BRANCH  31  39
HETATM   39  C22 UNL     1      12.298 -21.693 -19.858  1.00  0.00     0.096 C
BRANCH  39  40
HETATM   40  C23 UNL     1      12.917 -21.717 -18.495  1.00  0.00     0.062 C
HETATM   41  C26 UNL     1      11.887 -21.952 -17.445  1.00  0.00     0.066 C
HETATM   42  C27 UNL     1      12.284 -21.270 -16.140  1.00  0.00     0.274 C
HETATM   43  N11 UNL     1      13.734 -21.175 -16.044  1.00  0.00     0.084 N
HETATM   44  C28 UNL     1      14.069 -20.688 -14.738  1.00  0.00     0.309 C
HETATM   45  C29 UNL     1      14.218 -20.224 -17.034  1.00  0.00     0.274 C
HETATM   46  C30 UNL     1      13.393 -20.261 -18.281  1.00  0.00     0.066 C
BRANCH  40  47
HETATM   47  N10 UNL     1      14.057 -22.545 -18.403  1.00  0.00    -0.408 N
HETATM   48  C24 UNL     1      15.123 -22.282 -19.272  1.00  0.00     0.143 C
HETATM   49  C25 UNL     1      13.903 -23.915 -18.107  1.00  0.00     0.143 C
ENDBRANCH  40  47
ENDBRANCH  39  40
ENDBRANCH  31  39
ENDBRANCH  27  28
ENDBRANCH  26  27
ENDBRANCH   1  26
TORSDOF 13
ENDMDL