MODEL 2
REMARK VINA RESULT: -9.741440175      2.676      5.649
REMARK  14 active torsions:
REMARK  status: ('A' for Active; 'I' for Inactive)
REMARK    1  A    between atoms: C3_3  and  N1_4
REMARK    2  A    between atoms: N1_4  and  C4_6
REMARK    3  A    between atoms: C4_6  and  C5_7
REMARK    4  A    between atoms: C10_15  and  N3_16
REMARK    5  A    between atoms: N3_16  and  C11_18
REMARK    6  A    between atoms: C13_20  and  C14_21
REMARK    7  A    between atoms: C14_21  and  C15_22
REMARK    8  A    between atoms: C15_22  and  C16_23
REMARK    9  A    between atoms: C18_27  and  O2_28
REMARK   10  A    between atoms: O2_28  and  C19_29
REMARK   11  A    between atoms: C19_29  and  C20_30
REMARK   12  A    between atoms: C20_30  and  C21_31
REMARK   13  A    between atoms: C21_31  and  N5_32
REMARK   14  A    between atoms: N7_43  and  C29_44
ROOT
HETATM    1  C11 UNL     1      15.946 -22.189 -16.364  1.00  0.00     0.337 C
HETATM    2  C12 UNL     1      14.714 -21.269 -16.417  1.00  0.00     0.062 C
HETATM    3  C13 UNL     1      13.912 -21.466 -15.175  1.00  0.00    -0.009 C
HETATM    4  C27 UNL     1      14.787 -21.123 -14.004  1.00  0.00     0.035 C
HETATM    5  C28 UNL     1      16.082 -21.902 -14.051  1.00  0.00     0.276 C
HETATM    6  N7  UNL     1      16.797 -21.667 -15.312  1.00  0.00     0.116 N
ENDROOT
BRANCH   3   7
HETATM    7  C14 UNL     1      12.651 -20.669 -15.159  1.00  0.00     0.009 C
BRANCH   7   8
HETATM    8  C15 UNL     1      12.789 -19.305 -15.752  1.00  0.00     0.042 C
BRANCH   8   9
HETATM    9  C16 UNL     1      11.530 -18.837 -16.378  1.00  0.00    -0.027 A
HETATM   10  C17 UNL     1      11.568 -17.729 -17.210  1.00  0.00     0.100 A
HETATM   11  N4  UNL     1      10.424 -17.296 -17.797  1.00  0.00    -0.332 N
HETATM   12  C18 UNL     1       9.239 -17.917 -17.594  1.00  0.00     0.223 A
ATOM     13  H4  UNL     1      10.457 -16.480 -18.408  1.00  0.00     0.168 HD
HETATM   14  N6  UNL     1       9.217 -18.987 -16.787  1.00  0.00    -0.332 N
HETATM   15  C26 UNL     1      10.319 -19.454 -16.184  1.00  0.00     0.100 A
ATOM     16  H6  UNL     1       8.329 -19.463 -16.625  1.00  0.00     0.168 HD
BRANCH  12  17
HETATM   17  O2  UNL     1       8.071 -17.469 -18.199  1.00  0.00    -0.322 OA
BRANCH  17  18
HETATM   18  C19 UNL     1       8.075 -16.852 -19.475  1.00  0.00     0.180 C
BRANCH  18  19
HETATM   19  C20 UNL     1       7.622 -17.841 -20.534  1.00  0.00     0.046 C
BRANCH  19  20
HETATM   20  C21 UNL     1       8.783 -18.480 -21.264  1.00  0.00     0.119 C
BRANCH  20  21
HETATM   21  N5  UNL     1       9.326 -19.521 -20.458  1.00  0.00    -0.408 N
HETATM   22  C22 UNL     1       8.566 -20.726 -20.402  1.00  0.00     0.143 C
HETATM   23  C23 UNL     1       9.507 -21.895 -20.604  1.00  0.00     0.187 C
HETATM   24  O3  UNL     1      10.445 -21.875 -19.575  1.00  0.00    -0.388 OA
HETATM   25  C24 UNL     1      11.279 -20.764 -19.654  1.00  0.00     0.187 C
HETATM   26  C25 UNL     1      10.730 -19.708 -20.584  1.00  0.00     0.143 C
ENDBRANCH  20  21
ENDBRANCH  19  20
ENDBRANCH  18  19
ENDBRANCH  17  18
ENDBRANCH  12  17
ENDBRANCH   8   9
ENDBRANCH   7   8
ENDBRANCH   3   7
BRANCH   1  27
HETATM   27  N3  UNL     1      16.525 -22.096 -17.650  1.00  0.00    -0.194 N
ATOM     28  H3  UNL     1      16.985 -21.210 -17.861  1.00  0.00     0.180 HD
BRANCH  27  29
HETATM   29  C10 UNL     1      16.551 -22.952 -18.572  1.00  0.00     0.681 A
HETATM   30  N2  UNL     1      17.628 -23.786 -18.634  1.00  0.00    -0.177 N
HETATM   31  C3  UNL     1      17.744 -24.748 -19.583  1.00  0.00     0.118 A
ATOM     32  H2  UNL     1      18.372 -23.683 -17.944  1.00  0.00     0.185 HD
HETATM   33  C2  UNL     1      16.711 -24.844 -20.493  1.00  0.00     0.066 A
HETATM   34  C1  UNL     1      15.606 -23.992 -20.433  1.00  0.00     0.110 A
HETATM   35  N8  UNL     1      15.560 -23.061 -19.463  1.00  0.00    -0.202 N
ATOM     36  H8  UNL     1      14.760 -22.432 -19.406  1.00  0.00     0.183 HD
BRANCH  31  37
HETATM   37  N1  UNL     1      18.780 -25.512 -19.594  1.00  0.00    -0.376 N
ATOM     38  H1  UNL     1      19.669 -25.065 -19.815  1.00  0.00     0.161 HD
BRANCH  37  39
HETATM   39  C4  UNL     1      18.824 -26.900 -19.336  1.00  0.00     0.126 C
BRANCH  39  40
HETATM   40  C5  UNL     1      19.931 -27.351 -18.410  1.00  0.00     0.007 C
HETATM   41  C6  UNL     1      19.721 -26.675 -17.071  1.00  0.00     0.032 C
HETATM   42  C7  UNL     1      18.467 -27.129 -16.403  1.00  0.00     0.168 C
HETATM   43  O1  UNL     1      18.024 -28.372 -16.783  1.00  0.00    -0.391 OA
HETATM   44  C8  UNL     1      19.036 -29.267 -17.052  1.00  0.00     0.168 C
HETATM   45  C9  UNL     1      19.969 -28.821 -18.161  1.00  0.00     0.032 C
ENDBRANCH  39  40
ENDBRANCH  37  39
ENDBRANCH  31  37
ENDBRANCH  27  29
ENDBRANCH   1  27
BRANCH   6  46
HETATM   46  C29 UNL     1      18.042 -22.395 -15.172  1.00  0.00     0.225 C
HETATM   47  C30 UNL     1      17.761 -23.753 -14.623  1.00  0.00     0.036 C
HETATM   48  C31 UNL     1      19.116 -24.193 -14.065  1.00  0.00     0.002 C
HETATM   49  C32 UNL     1      19.654 -22.920 -13.461  1.00  0.00     0.002 C
HETATM   50  C33 UNL     1      18.998 -21.787 -14.220  1.00  0.00     0.036 C
ENDBRANCH   6  46
TORSDOF 14
ENDMDL