MODEL 1
REMARK VINA RESULT: -7.978329691      0.000      0.000
REMARK  16 active torsions:
REMARK  status: ('A' for Active; 'I' for Inactive)
REMARK    1  A    between atoms: C2_2  and  C4_4
REMARK    2  A    between atoms: C6_7  and  S2_8
REMARK       I    between atoms: N1_13  and  C10_15
REMARK    3  A    between atoms: C10_15  and  C11_17
REMARK    4  A    between atoms: C11_17  and  C12_18
REMARK    5  A    between atoms: C12_18  and  C14_20
REMARK    6  A    between atoms: C14_20  and  C15_21
REMARK    7  A    between atoms: C15_21  and  C16_23
REMARK    8  A    between atoms: C16_23  and  C17_24
REMARK    9  A    between atoms: C16_23  and  C21_28
REMARK   10  A    between atoms: C17_24  and  C18_25
REMARK   11  A    between atoms: C18_25  and  C19_26
REMARK   12  A    between atoms: C21_28  and  O4_29
REMARK   13  A    between atoms: O4_29  and  N2_30
REMARK   14  A    between atoms: C22_32  and  O5_33
REMARK   15  A    between atoms: C22_32  and  N3_35
REMARK   16  A    between atoms: N3_35  and  C23_37
ROOT
HETATM    1  C14 UNL     1      11.178 -19.296 -18.948  1.00  0.00     0.083 C
ENDROOT
BRANCH   1   2
HETATM    2  C12 UNL     1      10.656 -20.726 -18.847  1.00  0.00    -0.003 C
HETATM    3  C13 UNL     1      11.285 -21.440 -17.667  1.00  0.00     0.011 C
BRANCH   2   4
HETATM    4  C11 UNL     1      10.914 -21.486 -20.120  1.00  0.00     0.108 C
BRANCH   4   5
HETATM    5  C10 UNL     1       9.698 -21.617 -20.955  1.00  0.00     0.222 C
HETATM    6  N1  UNL     1       8.429 -21.488 -20.349  1.00  0.00    -0.319 N
HETATM    7  C9  UNL     1       7.718 -20.430 -20.516  1.00  0.00     0.154 C
ATOM      8  H1  UNL     1       8.070 -22.246 -19.768  1.00  0.00     0.169 HD
HETATM    9  C8  UNL     1       6.402 -20.234 -19.921  1.00  0.00     0.231 C
HETATM   10  C26 UNL     1       8.027 -19.227 -21.297  1.00  0.00     0.277 C
HETATM   11  C6  UNL     1       5.841 -19.031 -20.524  1.00  0.00     0.202 C
HETATM   12  O1  UNL     1       5.869 -20.964 -19.061  1.00  0.00    -0.286 OA
HETATM   13  S1  UNL     1       5.372 -17.759 -19.291  1.00  0.00    -0.116 SA
HETATM   14  N5  UNL     1       6.936 -18.338 -21.178  1.00  0.00    -0.303 N
HETATM   15  C5  UNL     1       6.179 -16.327 -20.126  1.00  0.00     0.107 C
HETATM   16  C4  UNL     1       6.497 -16.998 -21.460  1.00  0.00     0.128 C
HETATM   17  O6  UNL     1       9.109 -19.059 -21.956  1.00  0.00    -0.266 OA
HETATM   18  O2  UNL     1       9.799 -21.843 -22.196  1.00  0.00    -0.273 OA
BRANCH  11  19
HETATM   19  S2  UNL     1       4.485 -19.352 -21.680  1.00  0.00    -0.123 SA
HETATM   20  C7  UNL     1       2.911 -18.782 -21.046  1.00  0.00     0.093 C
ENDBRANCH  11  19
BRANCH  16  21
HETATM   21  C2  UNL     1       7.480 -16.218 -22.246  1.00  0.00    -0.070 C
HETATM   22  C1  UNL     1       8.341 -15.440 -21.602  1.00  0.00     0.016 C
HETATM   23  C3  UNL     1       7.544 -16.267 -23.713  1.00  0.00     0.044 C
ENDBRANCH  16  21
ENDBRANCH   4   5
ENDBRANCH   2   4
ENDBRANCH   1   2
BRANCH   1  24
HETATM   24  C15 UNL     1      10.337 -18.358 -18.187  1.00  0.00     0.133 C
HETATM   25  O3  UNL     1       9.205 -18.099 -18.579  1.00  0.00    -0.297 OA
BRANCH  24  26
HETATM   26  C16 UNL     1      10.817 -17.712 -16.958  1.00  0.00     0.081 C
BRANCH  26  27
HETATM   27  C17 UNL     1      12.308 -18.011 -16.748  1.00  0.00     0.014 C
BRANCH  27  28
HETATM   28  C18 UNL     1      12.530 -18.744 -15.464  1.00  0.00     0.000 C
BRANCH  28  29
HETATM   29  C19 UNL     1      13.691 -19.703 -15.526  1.00  0.00    -0.005 C
HETATM   30  C20 UNL     1      13.486 -20.923 -14.689  1.00  0.00     0.005 C
ENDBRANCH  28  29
ENDBRANCH  27  28
ENDBRANCH  26  27
BRANCH  26  31
HETATM   31  C21 UNL     1      10.017 -18.149 -15.770  1.00  0.00     0.213 C
BRANCH  31  32
HETATM   32  O4  UNL     1       9.080 -17.207 -15.315  1.00  0.00    -0.276 OA
BRANCH  32  33
HETATM   33  N2  UNL     1       8.038 -16.747 -16.070  1.00  0.00    -0.230 N
HETATM   34  C22 UNL     1       7.867 -15.480 -16.191  1.00  0.00     0.243 C
ATOM     35  H2  UNL     1       7.406 -17.401 -16.531  1.00  0.00     0.198 HD
BRANCH  34  36
HETATM   36  O5  UNL     1       8.748 -14.592 -15.548  1.00  0.00    -0.331 OA
ATOM     37  H5  UNL     1       8.452 -14.100 -14.791  1.00  0.00     0.221 HD
ENDBRANCH  34  36
BRANCH  34  38
HETATM   38  N3  UNL     1       6.787 -15.015 -16.974  1.00  0.00    -0.301 N
ATOM     39  H3  UNL     1       6.905 -14.793 -17.963  1.00  0.00     0.171 HD
BRANCH  38  40
HETATM   40  C23 UNL     1       5.623 -14.880 -16.374  1.00  0.00     0.151 A
HETATM   41  N4  UNL     1       4.930 -13.765 -16.158  1.00  0.00    -0.346 N
HETATM   42  C24 UNL     1       3.786 -13.844 -15.539  1.00  0.00     0.097 A
ATOM     43  H4  UNL     1       5.288 -12.863 -16.471  1.00  0.00     0.167 HD
HETATM   44  C25 UNL     1       3.357 -15.085 -15.145  1.00  0.00     0.070 A
HETATM   45  S3  UNL     1       4.628 -16.086 -15.683  1.00  0.00    -0.064 SA
ENDBRANCH  38  40
ENDBRANCH  34  38
ENDBRANCH  32  33
ENDBRANCH  31  32
ENDBRANCH  26  31
ENDBRANCH  24  26
ENDBRANCH   1  24
TORSDOF 16
ENDMDL