MODEL 1
REMARK VINA RESULT: -9.177868997      0.000      0.000
REMARK  13 active torsions:
REMARK  status: ('A' for Active; 'I' for Inactive)
REMARK    1  A    between atoms: C4_4  and  C5_5
REMARK    2  A    between atoms: C5_5  and  C6_7
REMARK       I    between atoms: C6_7  and  N1_9
REMARK    3  A    between atoms: C16_19  and  C17_20
REMARK    4  A    between atoms: C17_20  and  N2_21
REMARK    5  A    between atoms: N3_24  and  C20_25
REMARK    6  A    between atoms: C20_25  and  C22_27
REMARK    7  A    between atoms: C24_30  and  N4_31
REMARK    8  A    between atoms: N4_31  and  C25_33
REMARK    9  A    between atoms: C28_40  and  N7_41
REMARK   10  A    between atoms: N7_41  and  C29_43
REMARK   11  A    between atoms: C29_43  and  C30_44
REMARK   12  A    between atoms: C30_44  and  C31_45
REMARK   13  A    between atoms: C31_45  and  N8_46
ROOT
HETATM    1  C1  UNL     1      14.234 -21.442 -12.339  1.00  0.00     0.050 C
HETATM    2  C2  UNL     1      14.687 -21.462 -13.765  1.00  0.00    -0.034 A
HETATM    3  C3  UNL     1      14.100 -20.664 -14.718  1.00  0.00     0.024 A
HETATM    4  C4  UNL     1      14.441 -20.622 -16.036  1.00  0.00     0.021 A
HETATM    5  C15 UNL     1      15.495 -21.497 -16.390  1.00  0.00     0.027 A
HETATM    6  C16 UNL     1      16.127 -22.319 -15.508  1.00  0.00    -0.002 A
HETATM    7  C24 UNL     1      15.722 -22.307 -14.168  1.00  0.00     0.048 A
ENDROOT
BRANCH   7   8
HETATM    8  N4  UNL     1      16.355 -23.085 -13.294  1.00  0.00    -0.338 N
ATOM      9  H4  UNL     1      16.759 -22.398 -12.658  1.00  0.00     0.167 HD
BRANCH   8  10
HETATM   10  C25 UNL     1      16.737 -24.127 -12.807  1.00  0.00     0.150 A
HETATM   11  N5  UNL     1      15.891 -25.216 -12.860  1.00  0.00    -0.348 N
HETATM   12  C26 UNL     1      16.240 -26.389 -12.372  1.00  0.00     0.107 A
ATOM     13  H5  UNL     1      14.972 -25.111 -13.290  1.00  0.00     0.167 HD
HETATM   14  C27 UNL     1      17.494 -26.555 -11.780  1.00  0.00     0.107 A
HETATM   15  N6  UNL     1      18.309 -25.505 -11.727  1.00  0.00    -0.348 N
HETATM   16  C28 UNL     1      17.967 -24.305 -12.220  1.00  0.00     0.146 A
ATOM     17  H6  UNL     1      19.227 -25.616 -11.296  1.00  0.00     0.167 HD
BRANCH  16  18
HETATM   18  N7  UNL     1      18.906 -23.204 -12.073  1.00  0.00    -0.373 N
ATOM     19  H7  UNL     1      18.928 -22.673 -11.202  1.00  0.00     0.161 HD
BRANCH  18  20
HETATM   20  C29 UNL     1      19.809 -22.850 -13.150  1.00  0.00     0.123 C
BRANCH  20  21
HETATM   21  C30 UNL     1      19.731 -21.382 -13.393  1.00  0.00     0.050 C
BRANCH  21  22
HETATM   22  C31 UNL     1      21.041 -20.679 -13.011  1.00  0.00     0.273 C
BRANCH  22  23
HETATM   23  N8  UNL     1      21.049 -20.536 -11.589  1.00  0.00     0.080 N
HETATM   24  C32 UNL     1      22.216 -21.082 -10.958  1.00  0.00     0.309 C
HETATM   25  C33 UNL     1      20.670 -19.238 -11.127  1.00  0.00     0.309 C
ENDBRANCH  22  23
ENDBRANCH  21  22
ENDBRANCH  20  21
ENDBRANCH  18  20
ENDBRANCH  16  18
ENDBRANCH   8  10
ENDBRANCH   7   8
BRANCH   6  26
HETATM   26  C17 UNL     1      17.257 -23.197 -15.920  1.00  0.00     0.315 C
BRANCH  26  27
HETATM   27  N2  UNL     1      17.450 -23.095 -17.351  1.00  0.00     0.122 N
HETATM   28  C18 UNL     1      18.828 -23.533 -17.655  1.00  0.00     0.305 C
HETATM   29  C19 UNL     1      18.717 -25.020 -17.524  1.00  0.00     0.306 C
HETATM   30  N3  UNL     1      17.400 -25.337 -18.042  1.00  0.00     0.129 N
HETATM   31  C23 UNL     1      16.640 -24.131 -18.037  1.00  0.00     0.544 C
BRANCH  30  32
HETATM   32  C20 UNL     1      17.568 -25.940 -19.334  1.00  0.00     0.282 C
HETATM   33  C21 UNL     1      18.878 -26.664 -19.516  1.00  0.00     0.050 C
BRANCH  32  34
HETATM   34  C22 UNL     1      17.262 -25.049 -20.466  1.00  0.00     0.266 C
HETATM   35  O3  UNL     1      18.118 -24.389 -21.013  1.00  0.00    -0.305 OA
ENDBRANCH  32  34
ENDBRANCH  30  32
ENDBRANCH  26  27
ENDBRANCH   6  26
BRANCH   4  36
HETATM   36  C5  UNL     1      13.859 -19.801 -17.065  1.00  0.00     0.249 C
HETATM   37  O1  UNL     1      14.622 -19.447 -18.025  1.00  0.00    -0.281 OA
BRANCH  36  38
HETATM   38  C6  UNL     1      12.513 -19.350 -17.103  1.00  0.00     0.294 C
HETATM   39  O2  UNL     1      12.045 -18.642 -16.166  1.00  0.00    -0.264 OA
HETATM   40  N1  UNL     1      11.571 -19.634 -18.169  1.00  0.00    -0.345 N
HETATM   41  C7  UNL     1      10.205 -19.142 -18.008  1.00  0.00     0.127 C
HETATM   42  C14 UNL     1      11.934 -20.331 -19.346  1.00  0.00     0.131 C
HETATM   43  C8  UNL     1       9.788 -18.491 -19.286  1.00  0.00     0.029 C
HETATM   44  C9  UNL     1       9.720 -19.587 -20.337  1.00  0.00    -0.041 C
HETATM   45  C10 UNL     1       8.577 -20.516 -19.960  1.00  0.00     0.015 C
HETATM   46  C11 UNL     1       9.319 -18.939 -21.645  1.00  0.00     0.015 C
HETATM   47  C12 UNL     1      11.023 -20.276 -20.516  1.00  0.00     0.007 C
HETATM   48  C13 UNL     1      10.732 -21.721 -20.959  1.00  0.00     0.012 C
ENDBRANCH  36  38
ENDBRANCH   4  36
TORSDOF 13
ENDMDL