MODEL 3
REMARK VINA RESULT: -8.598047919      0.396      1.869
REMARK  13 active torsions:
REMARK  status: ('A' for Active; 'I' for Inactive)
REMARK    1  A    between atoms: C2_2  and  C3_3
REMARK    2  A    between atoms: C3_3  and  C4_4
REMARK    3  A    between atoms: C4_4  and  C5_5
REMARK    4  A    between atoms: C5_5  and  N1_6
REMARK    5  A    between atoms: C5_5  and  C19_29
REMARK       I    between atoms: N1_6  and  C6_8
REMARK    6  A    between atoms: C6_8  and  C7_10
REMARK    7  A    between atoms: C9_12  and  C10_13
REMARK    8  A    between atoms: C12_15  and  O2_16
REMARK    9  A    between atoms: C14_18  and  O3_19
REMARK   10  A    between atoms: C16_21  and  O4_22
REMARK       I    between atoms: C19_29  and  N4_31
REMARK   11  A    between atoms: C22_34  and  C23_35
REMARK   12  A    between atoms: C22_34  and  C25_39
REMARK   13  A    between atoms: C23_35  and  O7_37
REMARK       I    between atoms: C25_39  and  N5_41
ROOT
HETATM    1  C5  UNL     1     -11.628  18.981 -19.247  1.00  0.00     0.177 C
ENDROOT
BRANCH   1   2
HETATM    2  C4  UNL     1     -11.240  18.945 -20.698  1.00  0.00     0.035 C
BRANCH   2   3
HETATM    3  C3  UNL     1      -9.841  19.087 -21.077  1.00  0.00     0.002 C
BRANCH   3   4
HETATM    4  C2  UNL     1      -8.972  17.892 -21.159  1.00  0.00    -0.004 C
HETATM    5  C1  UNL     1      -7.502  18.177 -21.015  1.00  0.00     0.005 C
ENDBRANCH   3   4
ENDBRANCH   2   3
ENDBRANCH   1   2
BRANCH   1   6
HETATM    6  N1  UNL     1     -10.413  18.418 -18.584  1.00  0.00    -0.342 N
HETATM    7  C6  UNL     1     -10.433  17.711 -17.391  1.00  0.00     0.270 C
HETATM    8  O1  UNL     1     -11.491  17.491 -16.770  1.00  0.00    -0.266 OA
ATOM      9  H1  UNL     1      -9.511  18.563 -19.038  1.00  0.00     0.163 HD
BRANCH   7  10
HETATM   10  C7  UNL     1      -9.163  17.209 -16.850  1.00  0.00     0.118 A
HETATM   11  C8  UNL     1      -8.071  16.822 -17.587  1.00  0.00     0.068 A
HETATM   12  C9  UNL     1      -7.116  16.419 -16.706  1.00  0.00     0.060 A
HETATM   13  N2  UNL     1      -7.646  16.569 -15.485  1.00  0.00    -0.299 N
HETATM   14  N3  UNL     1      -8.863  17.039 -15.560  1.00  0.00    -0.295 N
ATOM     15  H2  UNL     1      -7.164  16.347 -14.614  1.00  0.00     0.187 HD
ATOM     16  H3  UNL     1      -9.477  17.240 -14.771  1.00  0.00     0.187 HD
BRANCH  12  17
HETATM   17  C10 UNL     1      -5.766  15.912 -16.998  1.00  0.00    -0.003 A
HETATM   18  C11 UNL     1      -5.168  16.037 -18.231  1.00  0.00     0.053 A
HETATM   19  C12 UNL     1      -3.896  15.545 -18.489  1.00  0.00     0.105 A
HETATM   20  C14 UNL     1      -3.171  14.895 -17.481  1.00  0.00     0.135 A
HETATM   21  C16 UNL     1      -3.779  14.777 -16.258  1.00  0.00     0.105 A
HETATM   22  C18 UNL     1      -5.045  15.271 -16.013  1.00  0.00     0.053 A
BRANCH  19  23
HETATM   23  O2  UNL     1      -3.273  15.657 -19.710  1.00  0.00    -0.353 OA
HETATM   24  C13 UNL     1      -2.860  16.828 -20.322  1.00  0.00     0.210 C
ENDBRANCH  19  23
BRANCH  20  25
HETATM   25  O3  UNL     1      -1.899  14.405 -17.749  1.00  0.00    -0.351 OA
HETATM   26  C15 UNL     1      -1.722  13.066 -18.169  1.00  0.00     0.210 C
ENDBRANCH  20  25
BRANCH  21  27
HETATM   27  O4  UNL     1      -3.062  14.131 -15.253  1.00  0.00    -0.353 OA
HETATM   28  C17 UNL     1      -2.139  14.885 -14.485  1.00  0.00     0.210 C
ENDBRANCH  21  27
ENDBRANCH  12  17
ENDBRANCH   7  10
ENDBRANCH   1   6
BRANCH   1  29
HETATM   29  C19 UNL     1     -11.737  20.403 -18.765  1.00  0.00     0.242 C
HETATM   30  O5  UNL     1     -10.728  20.872 -18.105  1.00  0.00    -0.271 OA
HETATM   31  N4  UNL     1     -12.809  21.285 -18.946  1.00  0.00    -0.350 N
HETATM   32  C20 UNL     1     -14.046  20.983 -19.602  1.00  0.00     0.127 C
HETATM   33  C31 UNL     1     -12.691  22.666 -18.446  1.00  0.00     0.127 C
HETATM   34  C21 UNL     1     -15.253  21.457 -18.833  1.00  0.00     0.050 C
HETATM   35  C22 UNL     1     -15.168  22.853 -18.322  1.00  0.00     0.131 C
HETATM   36  C30 UNL     1     -13.835  23.049 -17.592  1.00  0.00     0.050 C
BRANCH  35  37
HETATM   37  C23 UNL     1     -15.224  23.898 -19.364  1.00  0.00     0.276 C
HETATM   38  O6  UNL     1     -14.696  25.039 -19.120  1.00  0.00    -0.264 OA
BRANCH  37  39
HETATM   39  O7  UNL     1     -15.826  23.692 -20.599  1.00  0.00    -0.325 OA
HETATM   40  C24 UNL     1     -16.713  24.687 -21.070  1.00  0.00     0.213 C
ENDBRANCH  37  39
ENDBRANCH  35  37
BRANCH  35  41
HETATM   41  C25 UNL     1     -16.276  23.156 -17.362  1.00  0.00     0.238 C
HETATM   42  O8  UNL     1     -17.121  24.055 -17.716  1.00  0.00    -0.272 OA
HETATM   43  N5  UNL     1     -16.429  22.521 -16.124  1.00  0.00    -0.351 N
HETATM   44  C26 UNL     1     -15.632  21.505 -15.502  1.00  0.00     0.126 C
HETATM   45  C29 UNL     1     -17.499  22.775 -15.140  1.00  0.00     0.126 C
HETATM   46  C27 UNL     1     -16.568  20.693 -14.612  1.00  0.00     0.021 C
HETATM   47  C28 UNL     1     -17.905  21.373 -14.696  1.00  0.00     0.021 C
ENDBRANCH  35  41
ENDBRANCH   1  29
TORSDOF 13
ENDMDL