MODEL 5
REMARK VINA RESULT: -9.877940919      2.316      4.829
REMARK  13 active torsions:
REMARK  status: ('A' for Active; 'I' for Inactive)
REMARK    1  A    between atoms: C2_2  and  C3_3
REMARK    2  A    between atoms: C3_3  and  C4_4
REMARK    3  A    between atoms: C4_4  and  N1_5
REMARK    4  A    between atoms: C4_4  and  C22_33
REMARK       I    between atoms: N1_5  and  C5_7
REMARK    5  A    between atoms: C5_7  and  C6_9
REMARK    6  A    between atoms: C6_9  and  C7_10
REMARK    7  A    between atoms: C6_9  and  N2_17
REMARK    8  A    between atoms: C7_10  and  C8_11
REMARK    9  A    between atoms: C15_19  and  C16_20
REMARK   10  A    between atoms: C16_20  and  C17_21
REMARK   11  A    between atoms: C22_33  and  C23_35
REMARK       I    between atoms: C23_35  and  N6_37
REMARK       I    between atoms: N7_40  and  C26_41
REMARK   12  A    between atoms: C26_41  and  O6_43
REMARK   13  A    between atoms: O6_43  and  C27_44
ROOT
HETATM    1  C6  UNL     1     -13.590  20.130 -17.484  1.00  0.00     0.201 C
ENDROOT
BRANCH   1   2
HETATM    2  C5  UNL     1     -12.650  19.103 -17.939  1.00  0.00     0.243 C
HETATM    3  N1  UNL     1     -11.261  19.245 -17.785  1.00  0.00    -0.347 N
ATOM      4  H1  UNL     1     -10.927  20.100 -17.340  1.00  0.00     0.163 HD
HETATM    5  O1  UNL     1     -13.197  18.097 -18.473  1.00  0.00    -0.271 OA
BRANCH   3   6
HETATM    6  C4  UNL     1     -10.258  18.279 -18.205  1.00  0.00     0.164 C
BRANCH   6   7
HETATM    7  C3  UNL     1      -9.288  17.995 -17.091  1.00  0.00     0.033 C
BRANCH   7   8
HETATM    8  C2  UNL     1      -9.768  18.172 -15.706  1.00  0.00    -0.002 C
HETATM    9  C1  UNL     1     -10.117  16.904 -14.960  1.00  0.00     0.005 C
ENDBRANCH   7   8
ENDBRANCH   6   7
BRANCH   6  10
HETATM   10  C22 UNL     1      -9.447  19.035 -19.250  1.00  0.00     0.239 C
HETATM   11  O3  UNL     1      -9.710  20.282 -19.214  1.00  0.00    -0.285 OA
BRANCH  10  12
HETATM   12  C23 UNL     1      -8.528  18.399 -20.133  1.00  0.00     0.291 C
HETATM   13  O4  UNL     1      -9.058  17.625 -21.020  1.00  0.00    -0.264 OA
HETATM   14  N6  UNL     1      -7.143  18.482 -20.184  1.00  0.00    -0.342 N
HETATM   15  C24 UNL     1      -6.425  17.671 -21.198  1.00  0.00     0.146 C
HETATM   16  C30 UNL     1      -6.355  19.306 -19.306  1.00  0.00     0.146 C
HETATM   17  C25 UNL     1      -5.105  17.263 -20.590  1.00  0.00     0.148 C
HETATM   18  N7  UNL     1      -5.077  17.291 -19.162  1.00  0.00    -0.325 N
HETATM   19  C26 UNL     1      -4.424  16.238 -18.455  1.00  0.00     0.362 C
HETATM   20  C29 UNL     1      -5.676  18.336 -18.343  1.00  0.00     0.148 C
HETATM   21  O5  UNL     1      -3.895  15.313 -19.094  1.00  0.00    -0.238 OA
BRANCH  19  22
HETATM   22  O6  UNL     1      -4.358  16.211 -17.068  1.00  0.00    -0.304 OA
BRANCH  22  23
HETATM   23  C27 UNL     1      -5.012  15.278 -16.266  1.00  0.00     0.176 C
HETATM   24  C28 UNL     1      -6.234  15.824 -15.570  1.00  0.00     0.034 C
ENDBRANCH  22  23
ENDBRANCH  19  22
ENDBRANCH  10  12
ENDBRANCH   6  10
ENDBRANCH   3   6
ENDBRANCH   1   2
BRANCH   1  25
HETATM   25  C7  UNL     1     -14.817  19.722 -16.798  1.00  0.00     0.041 C
BRANCH  25  26
HETATM   26  C8  UNL     1     -15.140  20.282 -15.456  1.00  0.00    -0.012 C
HETATM   27  C9  UNL     1     -13.914  21.073 -14.929  1.00  0.00     0.005 C
HETATM   28  C10 UNL     1     -14.163  21.285 -13.456  1.00  0.00     0.000 C
HETATM   29  C11 UNL     1     -15.326  22.234 -13.305  1.00  0.00     0.000 C
HETATM   30  C12 UNL     1     -15.983  22.493 -14.613  1.00  0.00     0.000 C
HETATM   31  C13 UNL     1     -16.321  21.227 -15.400  1.00  0.00     0.005 C
ENDBRANCH  25  26
ENDBRANCH   1  25
BRANCH   1  32
HETATM   32  N2  UNL     1     -13.891  20.971 -18.664  1.00  0.00    -0.273 N
HETATM   33  C14 UNL     1     -14.285  22.252 -18.691  1.00  0.00     0.139 A
HETATM   34  C15 UNL     1     -14.449  22.622 -20.021  1.00  0.00     0.044 A
HETATM   35  N4  UNL     1     -14.141  21.531 -20.718  1.00  0.00    -0.289 N
HETATM   36  N5  UNL     1     -13.803  20.533 -19.890  1.00  0.00    -0.240 N
ATOM     37  H4  UNL     1     -14.160  21.464 -21.736  1.00  0.00     0.188 HD
ATOM     38  H5  UNL     1     -13.524  19.593 -20.170  1.00  0.00     0.208 HD
BRANCH  34  39
HETATM   39  C16 UNL     1     -14.876  23.974 -20.430  1.00  0.00     0.065 C
BRANCH  39  40
HETATM   40  C17 UNL     1     -16.251  24.341 -19.958  1.00  0.00    -0.004 C
HETATM   41  C18 UNL     1     -16.149  25.111 -18.664  1.00  0.00     0.010 C
HETATM   42  C19 UNL     1     -17.299  26.098 -18.661  1.00  0.00     0.066 C
HETATM   43  C20 UNL     1     -17.938  25.982 -20.008  1.00  0.00     0.179 A
HETATM   44  C21 UNL     1     -16.866  25.402 -20.875  1.00  0.00     0.070 C
HETATM   45  N3  UNL     1     -18.956  26.778 -20.376  1.00  0.00    -0.262 N
HETATM   46  O2  UNL     1     -19.178  25.364 -20.113  1.00  0.00    -0.247 OA
ATOM     47  H3  UNL     1     -19.312  27.696 -20.643  1.00  0.00     0.191 HD
ENDBRANCH  39  40
ENDBRANCH  34  39
ENDBRANCH   1  32
TORSDOF 13
ENDMDL