MODEL 4
REMARK VINA RESULT: -9.679356623      2.400      8.936
REMARK  14 active torsions:
REMARK  status: ('A' for Active; 'I' for Inactive)
REMARK    1  A    between atoms: C2_2  and  C3_3
REMARK    2  A    between atoms: C3_3  and  C4_4
REMARK    3  A    between atoms: C4_4  and  O1_5
REMARK    4  A    between atoms: O1_5  and  C5_6
REMARK    5  A    between atoms: C7_8  and  C8_9
REMARK    6  A    between atoms: C8_9  and  C9_10
REMARK       I    between atoms: C9_10  and  N1_12
REMARK    7  A    between atoms: N1_12  and  C10_14
REMARK    8  A    between atoms: C11_19  and  C12_20
REMARK    9  A    between atoms: C12_20  and  C13_21
REMARK   10  A    between atoms: C14_22  and  C15_23
REMARK   11  A    between atoms: C15_23  and  C16_24
REMARK   12  A    between atoms: C19_27  and  N4_28
REMARK       I    between atoms: N4_28  and  C20_30
REMARK   13  A    between atoms: C20_30  and  C21_32
REMARK   14  A    between atoms: C21_32  and  C22_33
ROOT
HETATM    1  C13 UNL     1     -12.014  17.809 -15.675  1.00  0.00    -0.019 C
HETATM    2  C14 UNL     1     -11.285  17.056 -14.685  1.00  0.00    -0.001 C
ENDROOT
BRANCH   1   3
HETATM    3  C12 UNL     1     -11.708  17.788 -17.130  1.00  0.00     0.105 C
BRANCH   3   4
HETATM    4  C11 UNL     1     -12.682  18.780 -17.792  1.00  0.00     0.117 A
HETATM    5  N3  UNL     1     -13.869  18.537 -18.330  1.00  0.00    -0.274 N
HETATM    6  N2  UNL     1     -14.355  19.668 -18.865  1.00  0.00    -0.130 N
ATOM      7  H3  UNL     1     -14.340  17.632 -18.336  1.00  0.00     0.189 HD
HETATM    8  C10 UNL     1     -13.435  20.628 -18.643  1.00  0.00     0.702 A
ATOM      9  H2  UNL     1     -15.247  19.779 -19.347  1.00  0.00     0.205 HD
HETATM   10  N8  UNL     1     -12.375  20.061 -17.959  1.00  0.00    -0.173 N
HETATM   11  C31 UNL     1     -11.191  20.767 -17.545  1.00  0.00     0.177 C
BRANCH   8  12
HETATM   12  N1  UNL     1     -13.398  21.847 -19.011  1.00  0.00    -0.158 N
HETATM   13  C9  UNL     1     -14.355  22.473 -19.799  1.00  0.00     0.242 C
HETATM   14  O2  UNL     1     -14.701  21.979 -20.922  1.00  0.00    -0.272 OA
ATOM     15  H1  UNL     1     -12.602  22.407 -18.703  1.00  0.00     0.187 HD
BRANCH  13  16
HETATM   16  C8  UNL     1     -14.981  23.742 -19.330  1.00  0.00     0.170 C
BRANCH  16  17
HETATM   17  C7  UNL     1     -16.131  23.339 -18.435  1.00  0.00     0.089 A
HETATM   18  C6  UNL     1     -15.966  22.980 -17.092  1.00  0.00     0.093 A
HETATM   19  C5  UNL     1     -17.243  22.670 -16.583  1.00  0.00     0.165 A
HETATM   20  N9  UNL     1     -18.056  22.861 -17.631  1.00  0.00    -0.239 N
HETATM   21  O4  UNL     1     -17.387  23.248 -18.686  1.00  0.00    -0.240 OA
ATOM     22  H9  UNL     1     -19.067  22.723 -17.608  1.00  0.00     0.197 HD
BRANCH  19  23
HETATM   23  O1  UNL     1     -17.486  22.272 -15.277  1.00  0.00    -0.334 OA
BRANCH  23  24
HETATM   24  C4  UNL     1     -16.505  21.806 -14.402  1.00  0.00     0.177 C
BRANCH  24  25
HETATM   25  C3  UNL     1     -16.344  20.293 -14.437  1.00  0.00     0.026 C
BRANCH  25  26
HETATM   26  C2  UNL     1     -15.042  19.924 -15.124  1.00  0.00    -0.002 C
HETATM   27  C1  UNL     1     -13.925  20.863 -14.729  1.00  0.00     0.005 C
ENDBRANCH  25  26
ENDBRANCH  24  25
ENDBRANCH  23  24
ENDBRANCH  19  23
ENDBRANCH  16  17
ENDBRANCH  13  16
ENDBRANCH   8  12
ENDBRANCH   3   4
ENDBRANCH   1   3
BRANCH   2  28
HETATM   28  C15 UNL     1      -9.888  17.226 -14.347  1.00  0.00     0.030 C
BRANCH  28  29
HETATM   29  C16 UNL     1      -8.806  16.584 -15.076  1.00  0.00     0.048 A
HETATM   30  C17 UNL     1      -9.006  15.825 -16.193  1.00  0.00     0.035 A
HETATM   31  C18 UNL     1      -7.943  15.293 -16.875  1.00  0.00     0.052 A
HETATM   32  C19 UNL     1      -6.615  15.521 -16.433  1.00  0.00     0.122 A
HETATM   33  N6  UNL     1      -6.494  16.269 -15.335  1.00  0.00    -0.285 N
HETATM   34  N7  UNL     1      -7.509  16.784 -14.671  1.00  0.00    -0.299 N
ATOM     35  H6  UNL     1      -5.554  16.453 -14.985  1.00  0.00     0.188 HD
ATOM     36  H7  UNL     1      -7.328  17.344 -13.839  1.00  0.00     0.187 HD
BRANCH  32  37
HETATM   37  N4  UNL     1      -5.711  15.041 -17.116  1.00  0.00    -0.312 N
HETATM   38  C20 UNL     1      -4.513  15.370 -17.685  1.00  0.00     0.228 C
HETATM   39  O3  UNL     1      -3.529  14.588 -17.505  1.00  0.00    -0.273 OA
ATOM     40  H4  UNL     1      -5.930  14.067 -17.329  1.00  0.00     0.170 HD
BRANCH  38  41
HETATM   41  C21 UNL     1      -4.321  16.585 -18.498  1.00  0.00     0.160 C
BRANCH  41  42
HETATM   42  C22 UNL     1      -5.610  16.909 -19.202  1.00  0.00     0.018 A
HETATM   43  C23 UNL     1      -6.177  18.170 -19.074  1.00  0.00     0.033 A
HETATM   44  C24 UNL     1      -7.364  18.481 -19.751  1.00  0.00    -0.048 A
HETATM   45  C25 UNL     1      -7.976  17.550 -20.541  1.00  0.00    -0.030 A
HETATM   46  C30 UNL     1      -8.131  19.755 -19.776  1.00  0.00     0.039 C
HETATM   47  C26 UNL     1      -7.384  16.287 -20.652  1.00  0.00     0.012 A
HETATM   48  C28 UNL     1      -9.205  18.115 -21.146  1.00  0.00     0.041 C
HETATM   49  C27 UNL     1      -8.055  15.288 -21.514  1.00  0.00     0.068 C
HETATM   50  N5  UNL     1      -6.251  16.034 -19.989  1.00  0.00    -0.362 N
ATOM     51  H5  UNL     1      -5.844  15.104 -20.090  1.00  0.00     0.165 HD
HETATM   52  C29 UNL     1      -9.511  19.284 -20.195  1.00  0.00     0.009 C
ENDBRANCH  41  42
ENDBRANCH  38  41
ENDBRANCH  32  37
ENDBRANCH  28  29
ENDBRANCH   2  28
TORSDOF 14
ENDMDL