MODEL 3
REMARK VINA RESULT: -8.830539585      1.195      1.660
REMARK  16 active torsions:
REMARK  status: ('A' for Active; 'I' for Inactive)
REMARK    1  A    between atoms: C2_2  and  O1_3
REMARK    2  A    between atoms: O1_3  and  C3_4
REMARK    3  A    between atoms: C3_4  and  C4_6
REMARK    4  A    between atoms: C4_6  and  C5_7
REMARK    5  A    between atoms: C4_6  and  C20_30
REMARK    6  A    between atoms: C5_7  and  C6_8
REMARK    7  A    between atoms: C6_8  and  C7_9
REMARK       I    between atoms: C7_9  and  N1_11
REMARK    8  A    between atoms: C10_14  and  C11_15
REMARK    9  A    between atoms: C10_14  and  C17_25
REMARK   10  A    between atoms: C11_15  and  O4_16
REMARK   11  A    between atoms: O4_16  and  C12_17
REMARK   12  A    between atoms: C12_17  and  C13_19
REMARK   13  A    between atoms: C13_19  and  C14_20
REMARK   14  A    between atoms: C14_20  and  O6_23
REMARK   15  A    between atoms: C20_30  and  O9_32
REMARK   16  A    between atoms: O9_32  and  C21_33
ROOT
HETATM    1  C5  UNL     1     -11.722  19.038 -18.805  1.00  0.00     0.034 C
ENDROOT
BRANCH   1   2
HETATM    2  C4  UNL     1     -12.281  20.131 -17.968  1.00  0.00     0.185 C
BRANCH   2   3
HETATM    3  C3  UNL     1     -11.773  20.226 -16.602  1.00  0.00     0.272 C
HETATM    4  O2  UNL     1     -11.820  21.286 -15.955  1.00  0.00    -0.264 OA
BRANCH   3   5
HETATM    5  O1  UNL     1     -11.214  19.116 -15.987  1.00  0.00    -0.321 OA
BRANCH   5   6
HETATM    6  C2  UNL     1     -11.971  17.974 -15.637  1.00  0.00     0.174 C
HETATM    7  C1  UNL     1     -11.243  17.284 -14.511  1.00  0.00     0.034 C
ENDBRANCH   5   6
ENDBRANCH   3   5
ENDBRANCH   2   3
BRANCH   2   8
HETATM    8  C20 UNL     1     -13.762  20.025 -18.019  1.00  0.00     0.273 C
HETATM    9  O8  UNL     1     -14.252  18.933 -18.385  1.00  0.00    -0.264 OA
BRANCH   8  10
HETATM   10  O9  UNL     1     -14.643  21.012 -17.703  1.00  0.00    -0.314 OA
BRANCH  10  11
HETATM   11  C21 UNL     1     -15.152  22.001 -18.600  1.00  0.00     0.144 C
HETATM   12  C22 UNL     1     -14.163  22.411 -19.629  1.00  0.00     0.016 C
HETATM   13  C23 UNL     1     -14.359  21.705 -20.975  1.00  0.00     0.013 C
HETATM   14  C24 UNL     1     -14.143  23.881 -19.952  1.00  0.00    -0.004 C
HETATM   15  C25 UNL     1     -15.202  24.301 -20.910  1.00  0.00     0.038 C
HETATM   16  C30 UNL     1     -14.188  24.719 -18.722  1.00  0.00     0.014 C
HETATM   17  C26 UNL     1     -16.326  25.068 -20.314  1.00  0.00    -0.087 C
HETATM   18  C27 UNL     1     -17.299  25.769 -21.238  1.00  0.00     0.043 C
HETATM   19  C28 UNL     1     -16.514  25.169 -19.004  1.00  0.00    -0.019 C
HETATM   20  C29 UNL     1     -15.542  24.472 -18.111  1.00  0.00     0.019 C
HETATM   21  C31 UNL     1     -15.909  23.066 -17.897  1.00  0.00    -0.014 C
HETATM   22  C32 UNL     1     -15.797  22.791 -16.385  1.00  0.00     0.018 C
HETATM   23  C33 UNL     1     -17.428  22.985 -18.157  1.00  0.00     0.018 C
ENDBRANCH  10  11
ENDBRANCH   8  10
ENDBRANCH   2   8
ENDBRANCH   1   2
BRANCH   1  24
HETATM   24  C6  UNL     1     -11.318  19.407 -20.187  1.00  0.00     0.104 C
BRANCH  24  25
HETATM   25  C7  UNL     1     -10.052  20.177 -20.193  1.00  0.00     0.219 C
HETATM   26  O3  UNL     1     -10.048  21.408 -19.977  1.00  0.00    -0.273 OA
HETATM   27  N1  UNL     1      -8.799  19.544 -20.443  1.00  0.00    -0.352 N
HETATM   28  C8  UNL     1      -8.748  18.121 -20.702  1.00  0.00     0.127 C
HETATM   29  C19 UNL     1      -7.555  20.281 -20.453  1.00  0.00     0.127 C
HETATM   30  C9  UNL     1      -7.789  17.469 -19.767  1.00  0.00     0.041 C
HETATM   31  C10 UNL     1      -6.489  18.208 -19.600  1.00  0.00     0.063 C
HETATM   32  C18 UNL     1      -6.625  19.680 -19.439  1.00  0.00     0.041 C
BRANCH  31  33
HETATM   33  C11 UNL     1      -5.884  17.683 -18.286  1.00  0.00     0.197 C
BRANCH  33  34
HETATM   34  O4  UNL     1      -5.916  16.268 -18.283  1.00  0.00    -0.320 OA
BRANCH  34  35
HETATM   35  C12 UNL     1      -5.682  15.612 -17.082  1.00  0.00     0.261 C
HETATM   36  O5  UNL     1      -4.938  14.599 -17.031  1.00  0.00    -0.265 OA
BRANCH  35  37
HETATM   37  C13 UNL     1      -6.287  16.059 -15.799  1.00  0.00     0.148 C
BRANCH  37  38
HETATM   38  C14 UNL     1      -7.607  15.399 -15.559  1.00  0.00     0.059 C
HETATM   39  C15 UNL     1      -8.056  15.436 -14.129  1.00  0.00     0.045 C
HETATM   40  C16 UNL     1      -8.641  16.099 -16.421  1.00  0.00     0.045 C
BRANCH  38  41
HETATM   41  O6  UNL     1      -7.548  14.067 -15.976  1.00  0.00    -0.390 OA
ATOM     42  H6  UNL     1      -8.226  13.905 -16.621  1.00  0.00     0.210 HD
ENDBRANCH  38  41
ENDBRANCH  37  38
ENDBRANCH  35  37
ENDBRANCH  34  35
ENDBRANCH  33  34
ENDBRANCH  31  33
BRANCH  31  43
HETATM   43  C17 UNL     1      -5.519  17.899 -20.654  1.00  0.00     0.242 C
HETATM   44  N2  UNL     1      -5.656  16.792 -21.546  1.00  0.00    -0.061 NA
HETATM   45  O7  UNL     1      -4.512  18.625 -20.800  1.00  0.00    -0.276 OA
ENDBRANCH  31  43
ENDBRANCH  24  25
ENDBRANCH   1  24
TORSDOF 16
ENDMDL