MODEL 1
REMARK VINA RESULT: -9.921646745      0.000      0.000
REMARK  12 active torsions:
REMARK  status: ('A' for Active; 'I' for Inactive)
REMARK    1  A    between atoms: C2_2  and  C3_3
REMARK    2  A    between atoms: C2_2  and  C12_14
REMARK    3  A    between atoms: C3_3  and  C4_4
REMARK    4  A    between atoms: C4_4  and  C5_5
REMARK    5  A    between atoms: C5_5  and  N1_6
REMARK       I    between atoms: C12_14  and  N3_16
REMARK    6  A    between atoms: C14_23  and  C15_24
REMARK    7  A    between atoms: C15_24  and  C16_25
REMARK    8  A    between atoms: C16_25  and  S1_26
REMARK    9  A    between atoms: S1_26  and  C17_27
REMARK   10  A    between atoms: C17_27  and  C18_28
REMARK   11  A    between atoms: C18_28  and  C19_29
REMARK       I    between atoms: N8_35  and  C21_37
REMARK   12  A    between atoms: C21_37  and  C22_39
ROOT
HETATM    1  C12 UNL     1     -12.132  19.267 -19.018  1.00  0.00     0.227 C
HETATM    2  O1  UNL     1     -12.615  18.146 -19.248  1.00  0.00    -0.273 OA
HETATM    3  N3  UNL     1     -12.416  19.877 -17.798  1.00  0.00    -0.306 N
ATOM      4  H3  UNL     1     -11.652  20.413 -17.386  1.00  0.00     0.171 HD
HETATM    5  C13 UNL     1     -13.508  19.858 -17.121  1.00  0.00     0.167 A
HETATM    6  N4  UNL     1     -14.680  19.259 -17.374  1.00  0.00    -0.279 N
ATOM      7  H4  UNL     1     -14.809  18.715 -18.227  1.00  0.00     0.189 HD
HETATM    8  N5  UNL     1     -15.623  19.377 -16.543  1.00  0.00    -0.296 N
ATOM      9  H5  UNL     1     -16.518  18.925 -16.731  1.00  0.00     0.187 HD
HETATM   10  C14 UNL     1     -15.470  20.075 -15.435  1.00  0.00     0.070 A
HETATM   11  S3  UNL     1     -13.853  20.606 -15.596  1.00  0.00    -0.038 SA
ENDROOT
BRANCH  10  12
HETATM   12  C15 UNL     1     -16.453  20.350 -14.305  1.00  0.00     0.076 C
BRANCH  12  13
HETATM   13  C16 UNL     1     -17.213  21.572 -14.750  1.00  0.00     0.080 C
BRANCH  13  14
HETATM   14  S1  UNL     1     -18.959  21.518 -14.486  1.00  0.00    -0.168 SA
BRANCH  14  15
HETATM   15  C17 UNL     1     -19.741  23.087 -14.313  1.00  0.00     0.080 C
BRANCH  15  16
HETATM   16  C18 UNL     1     -18.845  24.211 -13.890  1.00  0.00     0.076 C
BRANCH  16  17
HETATM   17  C19 UNL     1     -18.503  24.997 -15.136  1.00  0.00     0.070 A
HETATM   18  N6  UNL     1     -18.336  26.303 -15.261  1.00  0.00    -0.296 N
HETATM   19  N7  UNL     1     -18.050  26.809 -16.387  1.00  0.00    -0.279 N
ATOM     20  H6  UNL     1     -18.439  26.908 -14.446  1.00  0.00     0.187 HD
HETATM   21  C20 UNL     1     -17.922  25.996 -17.444  1.00  0.00     0.167 A
ATOM     22  H7  UNL     1     -17.920  27.816 -16.487  1.00  0.00     0.189 HD
HETATM   23  N8  UNL     1     -17.631  26.310 -18.690  1.00  0.00    -0.306 N
HETATM   24  S2  UNL     1     -18.230  24.467 -16.743  1.00  0.00    -0.038 SA
HETATM   25  C21 UNL     1     -17.568  25.213 -19.579  1.00  0.00     0.227 C
ATOM     26  H8  UNL     1     -17.466  27.271 -18.990  1.00  0.00     0.171 HD
HETATM   27  O2  UNL     1     -18.516  25.010 -20.365  1.00  0.00    -0.273 OA
BRANCH  25  28
HETATM   28  C22 UNL     1     -16.401  24.314 -19.586  1.00  0.00     0.078 C
HETATM   29  C23 UNL     1     -16.120  23.900 -21.016  1.00  0.00     0.014 C
HETATM   30  C24 UNL     1     -14.676  23.886 -21.369  1.00  0.00     0.001 C
HETATM   31  C25 UNL     1     -13.788  23.339 -20.288  1.00  0.00     0.000 C
HETATM   32  C26 UNL     1     -14.049  23.974 -18.938  1.00  0.00     0.001 C
HETATM   33  C27 UNL     1     -15.162  24.999 -19.020  1.00  0.00     0.014 C
ENDBRANCH  25  28
ENDBRANCH  16  17
ENDBRANCH  15  16
ENDBRANCH  14  15
ENDBRANCH  13  14
ENDBRANCH  12  13
ENDBRANCH  10  12
BRANCH   1  34
HETATM   34  C2  UNL     1     -11.267  19.911 -20.052  1.00  0.00     0.074 C
HETATM   35  C1  UNL     1     -10.812  21.285 -19.458  1.00  0.00     0.020 C
BRANCH  34  36
HETATM   36  C3  UNL     1     -10.021  19.161 -20.264  1.00  0.00     0.015 C
BRANCH  36  37
HETATM   37  C4  UNL     1      -9.052  18.979 -19.170  1.00  0.00     0.031 C
BRANCH  37  38
HETATM   38  C5  UNL     1      -8.709  17.532 -18.895  1.00  0.00     0.272 C
BRANCH  38  39
HETATM   39  N1  UNL     1      -8.907  17.180 -17.506  1.00  0.00     0.090 N
HETATM   40  C6  UNL     1      -7.760  16.535 -16.931  1.00  0.00     0.274 C
HETATM   41  C7  UNL     1      -8.228  15.276 -16.238  1.00  0.00     0.060 C
HETATM   42  C8  UNL     1      -8.883  15.554 -14.910  1.00  0.00     0.273 C
HETATM   43  N2  UNL     1      -9.972  16.499 -15.082  1.00  0.00     0.086 N
HETATM   44  C9  UNL     1     -10.947  16.386 -14.010  1.00  0.00     0.309 C
HETATM   45  C10 UNL     1      -9.488  17.848 -15.274  1.00  0.00     0.302 C
HETATM   46  C11 UNL     1      -9.498  18.219 -16.736  1.00  0.00     0.302 C
ENDBRANCH  38  39
ENDBRANCH  37  38
ENDBRANCH  36  37
ENDBRANCH  34  36
ENDBRANCH   1  34
TORSDOF 12
ENDMDL