MODEL 2
REMARK VINA RESULT: -8.443527148      1.218      2.001
REMARK  16 active torsions:
REMARK  status: ('A' for Active; 'I' for Inactive)
REMARK    1  A    between atoms: C2_2  and  C3_3
REMARK    2  A    between atoms: C3_3  and  N1_4
REMARK    3  A    between atoms: C3_3  and  C19_29
REMARK       I    between atoms: N1_4  and  C4_6
REMARK    4  A    between atoms: C4_6  and  C5_8
REMARK    5  A    between atoms: N2_9  and  C6_10
REMARK    6  A    between atoms: C6_10  and  C7_11
REMARK    7  A    between atoms: C6_10  and  C11_15
REMARK    8  A    between atoms: C7_11  and  C9_13
REMARK    9  A    between atoms: C11_15  and  N3_16
REMARK   10  A    between atoms: C11_15  and  C12_20
REMARK   11  A    between atoms: C12_20  and  C13_21
REMARK   12  A    between atoms: C19_29  and  C20_31
REMARK       I    between atoms: C20_31  and  N4_33
REMARK   13  A    between atoms: N5_36  and  C23_37
REMARK   14  A    between atoms: C23_37  and  O5_39
REMARK   15  A    between atoms: O5_39  and  C24_40
REMARK   16  A    between atoms: C24_40  and  C25_41
ROOT
HETATM    1  N1  UNL     1     -13.228  20.939 -15.641  1.00  0.00    -0.347 N
ATOM      2  H1  UNL     1     -13.257  21.886 -16.020  1.00  0.00     0.163 HD
HETATM    3  C4  UNL     1     -12.274  20.041 -16.160  1.00  0.00     0.242 C
HETATM    4  O1  UNL     1     -12.177  18.855 -15.774  1.00  0.00    -0.271 OA
ENDROOT
BRANCH   3   5
HETATM    5  C5  UNL     1     -11.296  20.473 -17.231  1.00  0.00     0.191 C
HETATM    6  N2  UNL     1     -10.928  19.317 -17.919  1.00  0.00    -0.384 N
HETATM    7  C15 UNL     1     -11.991  18.775 -18.683  1.00  0.00     0.193 C
HETATM    8  S1  UNL     1     -13.380  20.010 -18.466  1.00  0.00    -0.138 SA
HETATM    9  C16 UNL     1     -12.141  21.346 -18.161  1.00  0.00     0.031 C
HETATM   10  C17 UNL     1     -12.700  22.564 -17.580  1.00  0.00     0.029 C
HETATM   11  C18 UNL     1     -11.449  21.633 -19.450  1.00  0.00     0.029 C
BRANCH   6  12
HETATM   12  C6  UNL     1      -9.575  19.085 -18.332  1.00  0.00     0.115 C
BRANCH  12  13
HETATM   13  C7  UNL     1      -9.344  19.326 -19.797  1.00  0.00     0.006 C
HETATM   14  C8  UNL     1      -9.182  18.047 -20.603  1.00  0.00     0.012 C
BRANCH  13  15
HETATM   15  C9  UNL     1      -8.395  20.390 -20.207  1.00  0.00     0.002 C
HETATM   16  C10 UNL     1      -7.033  19.771 -20.524  1.00  0.00     0.005 C
ENDBRANCH  13  15
ENDBRANCH  12  13
BRANCH  12  17
HETATM   17  C11 UNL     1      -9.072  17.718 -17.912  1.00  0.00     0.213 C
BRANCH  17  18
HETATM   18  N3  UNL     1      -7.638  17.783 -17.559  1.00  0.00    -0.073 N
ATOM     19  H33 UNL     1      -7.048  17.883 -18.385  1.00  0.00     0.274 HD
ATOM     20  H32 UNL     1      -7.401  18.660 -17.095  1.00  0.00     0.274 HD
ATOM     21  H31 UNL     1      -7.373  16.973 -16.999  1.00  0.00     0.274 HD
ENDBRANCH  17  18
BRANCH  17  22
HETATM   22  C12 UNL     1      -9.677  17.104 -16.695  1.00  0.00     0.112 C
BRANCH  22  23
HETATM   23  C13 UNL     1      -8.939  16.027 -16.041  1.00  0.00     0.125 C
HETATM   24  C14 UNL     1      -8.721  16.118 -14.550  1.00  0.00     0.091 C
HETATM   25  O2  UNL     1      -8.471  15.046 -16.565  1.00  0.00    -0.298 OA
ENDBRANCH  22  23
ENDBRANCH  17  22
ENDBRANCH  12  17
ENDBRANCH   6  12
ENDBRANCH   3   5
BRANCH   1  26
HETATM   26  C3  UNL     1     -14.175  20.586 -14.595  1.00  0.00     0.164 C
BRANCH  26  27
HETATM   27  C2  UNL     1     -14.296  21.622 -13.549  1.00  0.00     0.029 C
HETATM   28  C1  UNL     1     -14.442  20.929 -12.200  1.00  0.00     0.007 C
ENDBRANCH  26  27
BRANCH  26  29
HETATM   29  C19 UNL     1     -15.509  20.292 -15.215  1.00  0.00     0.239 C
HETATM   30  O3  UNL     1     -15.714  19.152 -15.761  1.00  0.00    -0.285 OA
BRANCH  29  31
HETATM   31  C20 UNL     1     -16.619  21.217 -15.242  1.00  0.00     0.291 C
HETATM   32  O4  UNL     1     -17.536  20.985 -14.368  1.00  0.00    -0.264 OA
HETATM   33  N4  UNL     1     -16.789  22.307 -16.102  1.00  0.00    -0.342 N
HETATM   34  C21 UNL     1     -17.993  23.135 -15.937  1.00  0.00     0.146 C
HETATM   35  C29 UNL     1     -15.835  22.610 -17.131  1.00  0.00     0.146 C
HETATM   36  C22 UNL     1     -18.607  23.250 -17.322  1.00  0.00     0.145 C
HETATM   37  N5  UNL     1     -17.637  23.972 -18.134  1.00  0.00    -0.349 N
HETATM   38  C28 UNL     1     -16.217  23.845 -17.930  1.00  0.00     0.145 C
BRANCH  37  39
HETATM   39  C23 UNL     1     -18.111  24.817 -19.164  1.00  0.00     0.212 C
HETATM   40  S2  UNL     1     -18.888  26.195 -18.758  1.00  0.00    -0.033 SA
BRANCH  39  41
HETATM   41  O5  UNL     1     -17.939  24.519 -20.529  1.00  0.00    -0.327 OA
BRANCH  41  42
HETATM   42  C24 UNL     1     -16.766  25.009 -21.186  1.00  0.00     0.182 C
BRANCH  42  43
HETATM   43  C25 UNL     1     -15.628  24.060 -20.996  1.00  0.00     0.002 C
HETATM   44  C26 UNL     1     -14.382  24.689 -20.444  1.00  0.00     0.011 C
HETATM   45  C27 UNL     1     -15.277  23.425 -22.356  1.00  0.00     0.011 C
ENDBRANCH  42  43
ENDBRANCH  41  42
ENDBRANCH  39  41
ENDBRANCH  37  39
ENDBRANCH  29  31
ENDBRANCH  26  29
ENDBRANCH   1  26
TORSDOF 16
ENDMDL