MODEL 5
REMARK VINA RESULT: -9.677614092      1.986      2.509
REMARK  13 active torsions:
REMARK  status: ('A' for Active; 'I' for Inactive)
REMARK    1  A    between atoms: C2_2  and  O1_3
REMARK    2  A    between atoms: O1_3  and  C3_4
REMARK    3  A    between atoms: C3_4  and  C4_5
REMARK    4  A    between atoms: C4_5  and  C5_6
REMARK    5  A    between atoms: C4_5  and  N7_42
REMARK       I    between atoms: C5_6  and  N1_8
REMARK    6  A    between atoms: N1_8  and  C6_10
REMARK    7  A    between atoms: N2_12  and  C8_13
REMARK    8  A    between atoms: C8_13  and  C9_14
REMARK    9  A    between atoms: C9_14  and  N3_15
REMARK       I    between atoms: N3_15  and  C10_17
REMARK   10  A    between atoms: C10_17  and  C11_19
REMARK       I    between atoms: N4_22  and  C14_23
REMARK   11  A    between atoms: C14_23  and  C15_25
REMARK   12  A    between atoms: C16_26  and  C17_27
REMARK   13  A    between atoms: C17_27  and  C18_28
ROOT
HETATM    1  C9  UNL     1     -14.159  20.913 -16.205  1.00  0.00     0.051 C
HETATM    2  C24 UNL     1     -15.314  19.997 -16.371  1.00  0.00     0.033 C
HETATM    3  C25 UNL     1     -15.716  19.683 -14.944  1.00  0.00     0.002 C
HETATM    4  C26 UNL     1     -15.320  20.901 -14.168  1.00  0.00     0.002 C
HETATM    5  C27 UNL     1     -14.689  21.878 -15.136  1.00  0.00     0.033 C
ENDROOT
BRANCH   1   6
HETATM    6  C8  UNL     1     -12.980  20.221 -15.527  1.00  0.00     0.180 C
BRANCH   6   7
HETATM    7  N2  UNL     1     -12.250  19.359 -16.441  1.00  0.00    -0.283 N
HETATM    8  C7  UNL     1     -11.031  19.488 -16.969  1.00  0.00     0.161 A
HETATM    9  C6  UNL     1     -10.795  18.433 -17.805  1.00  0.00     0.141 A
HETATM   10  N6  UNL     1     -11.931  17.667 -17.749  1.00  0.00    -0.270 N
HETATM   11  N5  UNL     1     -12.767  18.251 -16.931  1.00  0.00    -0.239 N
ATOM     12  H6  UNL     1     -12.095  16.797 -18.256  1.00  0.00     0.190 HD
ATOM     13  H5  UNL     1     -13.695  17.896 -16.703  1.00  0.00     0.208 HD
BRANCH   9  14
HETATM   14  N1  UNL     1      -9.650  18.100 -18.605  1.00  0.00    -0.306 N
HETATM   15  C5  UNL     1      -8.750  17.067 -18.316  1.00  0.00     0.271 C
HETATM   16  O2  UNL     1      -8.973  16.355 -17.291  1.00  0.00    -0.266 OA
ATOM     17  H1  UNL     1      -9.479  18.655 -19.443  1.00  0.00     0.170 HD
BRANCH  15  18
HETATM   18  C4  UNL     1      -7.557  16.768 -19.144  1.00  0.00     0.100 C
BRANCH  18  19
HETATM   19  C3  UNL     1      -7.637  15.548 -19.989  1.00  0.00     0.230 C
BRANCH  19  20
HETATM   20  O1  UNL     1      -7.021  15.576 -21.207  1.00  0.00    -0.385 OA
BRANCH  20  21
HETATM   21  C2  UNL     1      -7.387  16.583 -22.064  1.00  0.00     0.163 C
HETATM   22  C1  UNL     1      -7.398  15.991 -23.480  1.00  0.00     0.033 C
ENDBRANCH  20  21
ENDBRANCH  19  20
ENDBRANCH  18  19
BRANCH  18  23
HETATM   23  N7  UNL     1      -6.320  16.982 -18.497  1.00  0.00    -0.374 N
HETATM   24  C28 UNL     1      -5.483  18.040 -18.924  1.00  0.00     0.149 C
HETATM   25  C29 UNL     1      -4.221  18.146 -18.092  1.00  0.00     0.187 C
HETATM   26  O5  UNL     1      -4.402  17.411 -16.934  1.00  0.00    -0.388 OA
HETATM   27  C30 UNL     1      -4.416  16.059 -17.290  1.00  0.00     0.187 C
HETATM   28  C31 UNL     1      -5.578  15.769 -18.213  1.00  0.00     0.149 C
ENDBRANCH  18  23
ENDBRANCH  15  18
ENDBRANCH   9  14
ENDBRANCH   6   7
ENDBRANCH   1   6
BRANCH   1  29
HETATM   29  N3  UNL     1     -13.751  21.683 -17.321  1.00  0.00    -0.350 N
HETATM   30  C10 UNL     1     -14.515  21.968 -18.469  1.00  0.00     0.222 C
HETATM   31  O3  UNL     1     -15.678  21.548 -18.618  1.00  0.00    -0.273 OA
ATOM     32  H3  UNL     1     -12.808  22.071 -17.290  1.00  0.00     0.163 HD
BRANCH  30  33
HETATM   33  C11 UNL     1     -13.948  22.808 -19.584  1.00  0.00     0.081 C
HETATM   34  C12 UNL     1     -14.836  22.696 -20.765  1.00  0.00     0.034 C
HETATM   35  C13 UNL     1     -15.629  23.936 -21.008  1.00  0.00     0.127 C
HETATM   36  N4  UNL     1     -16.076  24.524 -19.759  1.00  0.00    -0.349 N
HETATM   37  C14 UNL     1     -17.476  24.720 -19.535  1.00  0.00     0.243 C
HETATM   38  C22 UNL     1     -15.086  24.884 -18.786  1.00  0.00     0.127 C
HETATM   39  O4  UNL     1     -18.243  24.356 -20.454  1.00  0.00    -0.268 OA
HETATM   40  C23 UNL     1     -13.749  24.233 -19.115  1.00  0.00     0.034 C
BRANCH  37  41
HETATM   41  C15 UNL     1     -17.975  25.305 -18.318  1.00  0.00     0.070 C
HETATM   42  C16 UNL     1     -18.125  24.786 -17.140  1.00  0.00    -0.020 C
BRANCH  42  43
HETATM   43  C17 UNL     1     -17.832  23.430 -16.668  1.00  0.00     0.035 C
BRANCH  43  44
HETATM   44  C18 UNL     1     -18.433  23.193 -15.289  1.00  0.00    -0.048 C
HETATM   45  C19 UNL     1     -18.741  21.738 -15.059  1.00  0.00     0.014 C
HETATM   46  C20 UNL     1     -19.706  24.014 -15.245  1.00  0.00     0.014 C
HETATM   47  C21 UNL     1     -17.491  23.727 -14.251  1.00  0.00     0.014 C
ENDBRANCH  43  44
ENDBRANCH  42  43
ENDBRANCH  37  41
ENDBRANCH  30  33
ENDBRANCH   1  29
TORSDOF 13
ENDMDL