MODEL 1
REMARK VINA RESULT: -9.010676794      0.000      0.000
REMARK  15 active torsions:
REMARK  status: ('A' for Active; 'I' for Inactive)
REMARK    1  A    between atoms: C2_2  and  C3_3
REMARK    2  A    between atoms: C3_3  and  C4_4
REMARK    3  A    between atoms: C4_4  and  C5_5
REMARK    4  A    between atoms: C5_5  and  O1_6
REMARK    5  A    between atoms: O1_6  and  C6_7
REMARK       I    between atoms: C6_7  and  N1_9
REMARK    6  A    between atoms: N2_12  and  C9_13
REMARK    7  A    between atoms: C9_13  and  O3_14
REMARK    8  A    between atoms: C9_13  and  C10_16
REMARK    9  A    between atoms: C10_16  and  C11_17
REMARK   10  A    between atoms: C10_16  and  N3_22
REMARK   11  A    between atoms: C11_17  and  C12_18
REMARK   12  A    between atoms: C12_18  and  C13_19
REMARK       I    between atoms: N3_22  and  C14_24
REMARK   13  A    between atoms: C14_24  and  C15_26
REMARK   14  A    between atoms: C16_29  and  N5_30
REMARK   15  A    between atoms: C22_36  and  N6_37
ROOT
HETATM    1  N3  UNL     1      -8.273  17.743 -17.093  1.00  0.00    -0.342 N
ATOM      2  H3  UNL     1      -7.835  18.392 -16.439  1.00  0.00     0.163 HD
HETATM    3  C14 UNL     1      -7.417  17.121 -18.011  1.00  0.00     0.286 C
HETATM    4  O6  UNL     1      -7.809  16.312 -18.846  1.00  0.00    -0.264 OA
ENDROOT
BRANCH   1   5
HETATM    5  C10 UNL     1      -9.698  17.574 -16.962  1.00  0.00     0.160 C
BRANCH   5   6
HETATM    6  C9  UNL     1     -10.475  18.392 -17.900  1.00  0.00     0.137 C
BRANCH   6   7
HETATM    7  N2  UNL     1     -11.515  19.244 -17.530  1.00  0.00    -0.361 N
HETATM    8  C8  UNL     1     -11.213  20.671 -17.338  1.00  0.00     0.144 C
HETATM    9  C7  UNL     1     -11.991  21.412 -18.378  1.00  0.00     0.148 C
HETATM   10  N1  UNL     1     -13.386  21.088 -18.272  1.00  0.00    -0.325 N
HETATM   11  C6  UNL     1     -14.364  22.137 -18.258  1.00  0.00     0.362 C
HETATM   12  C30 UNL     1     -13.817  19.726 -18.181  1.00  0.00     0.148 C
HETATM   13  O2  UNL     1     -15.560  21.815 -18.184  1.00  0.00    -0.238 OA
HETATM   14  C29 UNL     1     -12.868  18.847 -17.355  1.00  0.00     0.144 C
BRANCH  11  15
HETATM   15  O1  UNL     1     -13.961  23.424 -18.327  1.00  0.00    -0.304 OA
BRANCH  15  16
HETATM   16  C5  UNL     1     -14.216  24.377 -19.253  1.00  0.00     0.180 C
BRANCH  16  17
HETATM   17  C4  UNL     1     -14.163  24.100 -20.708  1.00  0.00     0.027 C
BRANCH  17  18
HETATM   18  C3  UNL     1     -15.407  23.850 -21.452  1.00  0.00     0.002 C
BRANCH  18  19
HETATM   19  C2  UNL     1     -16.636  24.294 -20.606  1.00  0.00    -0.004 C
HETATM   20  C1  UNL     1     -17.154  25.572 -21.208  1.00  0.00     0.005 C
ENDBRANCH  18  19
ENDBRANCH  17  18
ENDBRANCH  16  17
ENDBRANCH  15  16
ENDBRANCH  11  15
ENDBRANCH   6   7
BRANCH   6  21
HETATM   21  O3  UNL     1     -10.143  18.286 -19.155  1.00  0.00    -0.348 OA
ATOM     22  H3  UNL     1     -10.024  17.425 -19.539  1.00  0.00     0.219 HD
ENDBRANCH   6  21
ENDBRANCH   5   6
BRANCH   5  23
HETATM   23  C11 UNL     1     -10.071  17.808 -15.505  1.00  0.00     0.044 C
BRANCH  23  24
HETATM   24  C12 UNL     1     -10.280  16.506 -14.762  1.00  0.00     0.116 C
BRANCH  24  25
HETATM   25  C13 UNL     1      -9.006  15.702 -14.829  1.00  0.00     0.172 C
HETATM   26  O4  UNL     1      -7.977  16.206 -14.337  1.00  0.00    -0.648 OA
HETATM   27  O5  UNL     1      -9.012  14.458 -15.416  1.00  0.00    -0.648 OA
ENDBRANCH  24  25
ENDBRANCH  23  24
ENDBRANCH   5  23
ENDBRANCH   1   5
BRANCH   3  28
HETATM   28  C15 UNL     1      -5.972  17.438 -17.993  1.00  0.00     0.177 A
HETATM   29  N4  UNL     1      -5.546  18.569 -18.537  1.00  0.00    -0.324 N
HETATM   30  C16 UNL     1      -4.234  18.907 -18.540  1.00  0.00     0.108 A
ATOM     31  H4  UNL     1      -6.223  19.200 -18.966  1.00  0.00     0.169 HD
HETATM   32  C21 UNL     1      -3.332  18.044 -17.957  1.00  0.00     0.096 A
HETATM   33  C22 UNL     1      -3.771  16.855 -17.381  1.00  0.00     0.108 A
HETATM   34  N7  UNL     1      -5.091  16.619 -17.434  1.00  0.00    -0.324 N
ATOM     35  H7  UNL     1      -5.438  15.755 -17.018  1.00  0.00     0.169 HD
BRANCH  30  36
HETATM   36  N5  UNL     1      -3.790  20.112 -19.132  1.00  0.00    -0.367 N
HETATM   37  C17 UNL     1      -3.910  21.423 -18.574  1.00  0.00     0.124 C
HETATM   38  C18 UNL     1      -2.860  22.283 -19.253  1.00  0.00     0.021 C
HETATM   39  C19 UNL     1      -2.094  21.308 -20.112  1.00  0.00     0.021 C
HETATM   40  C20 UNL     1      -3.136  20.240 -20.398  1.00  0.00     0.124 C
ENDBRANCH  30  36
BRANCH  33  41
HETATM   41  N6  UNL     1      -2.850  15.939 -16.759  1.00  0.00    -0.363 N
HETATM   42  C23 UNL     1      -2.288  14.836 -17.457  1.00  0.00     0.125 C
HETATM   43  C24 UNL     1      -1.682  13.750 -16.659  1.00  0.00     0.020 C
HETATM   44  C25 UNL     1      -1.427  14.073 -15.220  1.00  0.00     0.004 C
HETATM   45  C26 UNL     1      -2.530  14.920 -14.621  1.00  0.00     0.025 C
HETATM   46  C27 UNL     1      -2.513  16.219 -15.381  1.00  0.00     0.081 C
HETATM   47  C28 UNL     1      -1.117  16.805 -15.389  1.00  0.00     0.032 C
ENDBRANCH  33  41
ENDBRANCH   3  28
TORSDOF 15
ENDMDL