MODEL 2
REMARK VINA RESULT: -8.750186551      2.249      6.639
REMARK  14 active torsions:
REMARK  status: ('A' for Active; 'I' for Inactive)
REMARK    1  A    between atoms: C2_2  and  O1_3
REMARK    2  A    between atoms: O1_3  and  C3_4
REMARK       I    between atoms: C3_4  and  N1_6
REMARK    3  A    between atoms: N1_6  and  C4_7
REMARK    4  A    between atoms: N1_6  and  C8_12
REMARK    5  A    between atoms: C4_7  and  C5_8
REMARK    6  A    between atoms: C5_8  and  N2_9
REMARK    7  A    between atoms: C8_12  and  C9_13
REMARK    8  A    between atoms: C9_13  and  N3_14
REMARK    9  A    between atoms: N3_14  and  C10_15
REMARK   10  A    between atoms: N3_14  and  N4_20
REMARK   11  A    between atoms: C10_15  and  C11_16
REMARK   12  A    between atoms: C15_22  and  C16_23
REMARK   13  A    between atoms: C17_24  and  C18_25
REMARK   14  A    between atoms: C26_38  and  C27_39
REMARK       I    between atoms: C27_39  and  N7_41
ROOT
HETATM    1  C16 UNL     1     -15.570  23.284 -18.962  1.00  0.00     0.043 A
HETATM    2  C17 UNL     1     -14.247  22.946 -19.150  1.00  0.00     0.072 A
HETATM    3  N5  UNL     1     -13.840  23.662 -20.232  1.00  0.00    -0.298 N
ATOM      4  H5  UNL     1     -12.897  23.628 -20.621  1.00  0.00     0.187 HD
HETATM    5  N6  UNL     1     -14.792  24.388 -20.704  1.00  0.00    -0.294 N
ATOM      6  H6  UNL     1     -14.714  25.006 -21.511  1.00  0.00     0.187 HD
HETATM    7  C26 UNL     1     -15.901  24.208 -19.970  1.00  0.00     0.132 A
ENDROOT
BRANCH   1   8
HETATM    8  C15 UNL     1     -16.439  22.836 -17.876  1.00  0.00     0.123 C
HETATM    9  N4  UNL     1     -16.320  23.261 -16.667  1.00  0.00    -0.309 N
ATOM     10  H4  UNL     1     -15.596  23.940 -16.433  1.00  0.00     0.186 HD
BRANCH   9  11
HETATM   11  N3  UNL     1     -17.222  22.773 -15.629  1.00  0.00    -0.305 N
BRANCH  11  12
HETATM   12  C9  UNL     1     -17.917  23.788 -14.961  1.00  0.00     0.103 C
BRANCH  12  13
HETATM   13  C8  UNL     1     -17.487  24.382 -13.694  1.00  0.00     0.174 C
BRANCH  13  14
HETATM   14  N1  UNL     1     -18.293  25.421 -13.167  1.00  0.00    -0.322 N
HETATM   15  C3  UNL     1     -17.629  26.523 -12.513  1.00  0.00     0.363 C
HETATM   16  O2  UNL     1     -18.256  27.462 -11.963  1.00  0.00    -0.238 OA
BRANCH  15  17
HETATM   17  O1  UNL     1     -16.245  26.594 -12.462  1.00  0.00    -0.304 OA
BRANCH  17  18
HETATM   18  C2  UNL     1     -15.586  27.223 -11.379  1.00  0.00     0.176 C
HETATM   19  C1  UNL     1     -14.094  27.194 -11.489  1.00  0.00     0.034 C
ENDBRANCH  17  18
ENDBRANCH  15  17
BRANCH  14  20
HETATM   20  C4  UNL     1     -19.759  25.451 -13.165  1.00  0.00     0.158 C
BRANCH  20  21
HETATM   21  C5  UNL     1     -20.260  24.399 -12.197  1.00  0.00     0.291 C
BRANCH  21  22
HETATM   22  N2  UNL     1     -20.935  24.964 -11.073  1.00  0.00     0.081 N
HETATM   23  C6  UNL     1     -20.009  25.037  -9.960  1.00  0.00     0.309 C
HETATM   24  C7  UNL     1     -21.525  26.247 -11.273  1.00  0.00     0.309 C
ENDBRANCH  21  22
ENDBRANCH  20  21
ENDBRANCH  14  20
ENDBRANCH  13  14
ENDBRANCH  12  13
ENDBRANCH  11  12
BRANCH  11  25
HETATM   25  C10 UNL     1     -17.213  21.367 -15.519  1.00  0.00     0.156 C
BRANCH  25  26
HETATM   26  C11 UNL     1     -15.964  20.727 -14.975  1.00  0.00    -0.033 C
HETATM   27  C12 UNL     1     -15.176  19.905 -15.943  1.00  0.00     0.016 C
HETATM   28  C13 UNL     1     -15.044  21.703 -14.301  1.00  0.00     0.016 C
HETATM   29  C14 UNL     1     -16.443  19.765 -13.876  1.00  0.00     0.016 C
ENDBRANCH  25  26
ENDBRANCH  11  25
ENDBRANCH   9  11
ENDBRANCH   1   8
BRANCH   2  30
HETATM   30  C18 UNL     1     -13.381  22.065 -18.409  1.00  0.00    -0.006 A
HETATM   31  C19 UNL     1     -12.696  22.418 -17.289  1.00  0.00     0.016 A
HETATM   32  C20 UNL     1     -11.868  21.509 -16.659  1.00  0.00     0.038 A
HETATM   33  C21 UNL     1     -11.704  20.203 -17.138  1.00  0.00     0.075 A
HETATM   34  C22 UNL     1     -12.402  19.852 -18.269  1.00  0.00    -0.022 A
HETATM   35  O3  UNL     1     -10.964  19.112 -16.723  1.00  0.00    -0.350 OA
HETATM   36  C23 UNL     1     -13.230  20.771 -18.897  1.00  0.00     0.023 A
HETATM   37  C24 UNL     1     -12.084  18.437 -18.596  1.00  0.00     0.068 C
HETATM   38  C25 UNL     1     -11.410  17.939 -17.342  1.00  0.00     0.180 C
ENDBRANCH   2  30
BRANCH   7  39
HETATM   39  C27 UNL     1     -17.211  24.811 -20.182  1.00  0.00     0.291 C
HETATM   40  O4  UNL     1     -17.902  24.361 -21.161  1.00  0.00    -0.264 OA
HETATM   41  N7  UNL     1     -17.825  25.828 -19.450  1.00  0.00    -0.253 N
HETATM   42  C28 UNL     1     -19.214  26.215 -19.836  1.00  0.00     0.153 C
HETATM   43  N8  UNL     1     -17.229  26.550 -18.417  1.00  0.00    -0.265 N
HETATM   44  C29 UNL     1     -19.882  26.943 -18.701  1.00  0.00     0.031 C
HETATM   45  C30 UNL     1     -19.455  26.448 -17.355  1.00  0.00     0.106 C
HETATM   46  C31 UNL     1     -17.987  26.726 -17.203  1.00  0.00     0.236 C
HETATM   47  O5  UNL     1     -17.513  27.075 -16.119  1.00  0.00    -0.272 OA
ATOM     48  H8  UNL     1     -16.291  26.940 -18.517  1.00  0.00     0.190 HD
ENDBRANCH   7  39
TORSDOF 14
ENDMDL