MODEL 2
REMARK VINA RESULT: -9.141702212      2.531     12.125
REMARK  15 active torsions:
REMARK  status: ('A' for Active; 'I' for Inactive)
REMARK    1  A    between atoms: C3_3  and  C4_4
REMARK    2  A    between atoms: C4_4  and  O1_5
REMARK    3  A    between atoms: O1_5  and  C5_6
REMARK    4  A    between atoms: C6_7  and  C7_8
REMARK    5  A    between atoms: C8_9  and  C9_10
REMARK    6  A    between atoms: N2_17  and  C14_18
REMARK    7  A    between atoms: C16_20  and  N3_21
REMARK    8  A    between atoms: C17_23  and  C18_24
REMARK    9  A    between atoms: C18_24  and  O2_25
REMARK   10  A    between atoms: C21_34  and  C22_35
REMARK   11  A    between atoms: C27_40  and  C28_41
REMARK       I    between atoms: C28_41  and  N7_43
REMARK   12  A    between atoms: N7_43  and  C29_45
REMARK   13  A    between atoms: C29_45  and  C30_46
REMARK   14  A    between atoms: C30_46  and  C31_47
REMARK   15  A    between atoms: C31_47  and  N8_48
ROOT
HETATM    1  C1  UNL     1     -15.277  21.303 -13.588  1.00  0.00     0.112 C
HETATM    2  C2  UNL     1     -14.160  20.912 -14.469  1.00  0.00    -0.109 C
HETATM    3  C3  UNL     1     -13.246  20.618 -15.192  1.00  0.00    -0.080 C
ENDROOT
BRANCH   3   4
HETATM    4  C4  UNL     1     -12.107  20.283 -16.068  1.00  0.00     0.269 C
BRANCH   4   5
HETATM    5  O1  UNL     1     -12.395  19.199 -16.889  1.00  0.00    -0.334 OA
BRANCH   5   6
HETATM    6  C5  UNL     1     -11.841  19.029 -18.131  1.00  0.00     0.133 A
HETATM    7  C6  UNL     1     -12.456  19.749 -19.195  1.00  0.00     0.124 A
HETATM    8  N5  UNL     1     -11.960  19.636 -20.426  1.00  0.00    -0.343 N
HETATM    9  C20 UNL     1     -10.896  18.857 -20.671  1.00  0.00     0.182 A
ATOM     10  H5  UNL     1     -12.395  20.148 -21.192  1.00  0.00     0.167 HD
HETATM   11  N6  UNL     1     -10.325  18.186 -19.673  1.00  0.00    -0.349 N
HETATM   12  C21 UNL     1     -10.770  18.241 -18.364  1.00  0.00     0.080 A
ATOM     13  H6  UNL     1      -9.517  17.601 -19.885  1.00  0.00     0.166 HD
BRANCH   7  14
HETATM   14  C7  UNL     1     -13.616  20.580 -18.912  1.00  0.00    -0.039 C
HETATM   15  C8  UNL     1     -14.557  21.289 -18.654  1.00  0.00    -0.042 C
BRANCH  15  16
HETATM   16  C9  UNL     1     -15.659  22.172 -18.332  1.00  0.00     0.090 A
HETATM   17  C10 UNL     1     -16.036  23.059 -19.332  1.00  0.00     0.071 A
HETATM   18  C11 UNL     1     -17.067  23.930 -19.099  1.00  0.00     0.069 A
HETATM   19  C12 UNL     1     -17.686  23.897 -17.894  1.00  0.00     0.105 A
HETATM   20  N2  UNL     1     -17.634  24.890 -19.889  1.00  0.00    -0.341 N
HETATM   21  N1  UNL     1     -18.653  24.846 -17.929  1.00  0.00    -0.347 N
HETATM   22  C16 UNL     1     -17.332  23.009 -16.852  1.00  0.00     0.135 A
HETATM   23  C13 UNL     1     -18.603  25.434 -19.144  1.00  0.00     0.184 A
ATOM     24  H1  UNL     1     -19.301  25.075 -17.175  1.00  0.00     0.167 HD
HETATM   25  N4  UNL     1     -16.293  22.171 -17.164  1.00  0.00    -0.333 N
ATOM     26  H4  UNL     1     -15.987  21.505 -16.455  1.00  0.00     0.168 HD
BRANCH  22  27
HETATM   27  N3  UNL     1     -17.921  23.017 -15.785  1.00  0.00    -0.352 N
HETATM   28  C17 UNL     1     -18.118  23.393 -14.508  1.00  0.00     0.088 C
ATOM     29  H3  UNL     1     -18.702  22.383 -15.956  1.00  0.00     0.166 HD
BRANCH  28  30
HETATM   30  C18 UNL     1     -19.548  23.189 -13.988  1.00  0.00     0.211 C
BRANCH  30  31
HETATM   31  O2  UNL     1     -20.082  22.053 -14.579  1.00  0.00    -0.391 OA
HETATM   32  C19 UNL     1     -20.536  21.168 -13.609  1.00  0.00     0.201 C
ENDBRANCH  30  31
ENDBRANCH  28  30
ENDBRANCH  22  27
BRANCH  20  33
HETATM   33  C14 UNL     1     -17.224  25.193 -21.235  1.00  0.00     0.125 C
HETATM   34  C15 UNL     1     -17.603  26.619 -21.576  1.00  0.00     0.027 C
ENDBRANCH  20  33
ENDBRANCH  15  16
ENDBRANCH   7  14
BRANCH  12  35
HETATM   35  C22 UNL     1     -10.015  17.549 -17.351  1.00  0.00    -0.005 A
HETATM   36  C23 UNL     1     -10.658  17.375 -16.107  1.00  0.00     0.020 A
HETATM   37  C24 UNL     1     -10.067  16.779 -15.026  1.00  0.00    -0.060 A
HETATM   38  C25 UNL     1     -10.829  16.629 -13.721  1.00  0.00     0.048 C
HETATM   39  C26 UNL     1      -8.780  16.313 -15.126  1.00  0.00     0.024 A
HETATM   40  C27 UNL     1      -8.099  16.452 -16.311  1.00  0.00     0.033 A
HETATM   41  C34 UNL     1      -8.747  17.070 -17.390  1.00  0.00     0.030 A
BRANCH  40  42
HETATM   42  C28 UNL     1      -6.745  15.958 -16.486  1.00  0.00     0.251 C
HETATM   43  O3  UNL     1      -6.564  14.730 -16.736  1.00  0.00    -0.268 OA
HETATM   44  N7  UNL     1      -5.628  16.846 -16.380  1.00  0.00    -0.357 N
ATOM     45  H7  UNL     1      -5.799  17.830 -16.175  1.00  0.00     0.162 HD
BRANCH  44  46
HETATM   46  C29 UNL     1      -4.276  16.398 -16.552  1.00  0.00     0.124 C
BRANCH  46  47
HETATM   47  C30 UNL     1      -3.760  16.801 -17.911  1.00  0.00     0.050 C
BRANCH  47  48
HETATM   48  C31 UNL     1      -4.028  18.259 -18.127  1.00  0.00     0.273 C
BRANCH  48  49
HETATM   49  N8  UNL     1      -4.715  18.478 -19.409  1.00  0.00     0.080 N
HETATM   50  C32 UNL     1      -5.989  19.149 -19.126  1.00  0.00     0.309 C
HETATM   51  C33 UNL     1      -5.072  17.166 -19.959  1.00  0.00     0.309 C
ENDBRANCH  48  49
ENDBRANCH  47  48
ENDBRANCH  46  47
ENDBRANCH  44  46
ENDBRANCH  40  42
ENDBRANCH  12  35
ENDBRANCH   5   6
ENDBRANCH   4   5
ENDBRANCH   3   4
TORSDOF 15
ENDMDL