MODEL 5
REMARK VINA RESULT: -8.838609659      1.552      3.398
REMARK  14 active torsions:
REMARK  status: ('A' for Active; 'I' for Inactive)
REMARK    1  A    between atoms: C2_2  and  C3_3
REMARK    2  A    between atoms: C3_3  and  C4_4
REMARK    3  A    between atoms: N1_7  and  C7_8
REMARK    4  A    between atoms: C7_8  and  C8_9
REMARK    5  A    between atoms: C8_9  and  C9_10
REMARK    6  A    between atoms: C9_10  and  C10_11
REMARK    7  A    between atoms: C10_11  and  C11_12
REMARK    8  A    between atoms: N2_15  and  C14_16
REMARK    9  A    between atoms: C15_19  and  N4_20
REMARK   10  A    between atoms: N4_20  and  C16_22
REMARK   11  A    between atoms: C16_22  and  C18_24
REMARK   12  A    between atoms: C18_24  and  O1_25
REMARK   13  A    between atoms: N8_37  and  C23_38
REMARK   14  A    between atoms: C23_38  and  C24_39
ROOT
HETATM    1  C14 UNL     1     -14.577 -21.855  17.801  1.00  0.00     0.703 A
HETATM    2  N3  UNL     1     -15.489 -22.617  18.408  1.00  0.00    -0.022 N
ATOM      3  H3  UNL     1     -15.523 -22.622  19.427  1.00  0.00     0.203 HD
HETATM    4  C15 UNL     1     -16.362 -23.377  17.729  1.00  0.00     0.695 A
HETATM    5  N5  UNL     1     -16.316 -23.369  16.392  1.00  0.00    -0.166 N
ATOM      6  H5  UNL     1     -16.974 -23.942  15.865  1.00  0.00     0.186 HD
HETATM    7  C19 UNL     1     -15.416 -22.619  15.731  1.00  0.00     0.217 A
HETATM    8  C20 UNL     1     -15.413 -22.649  14.309  1.00  0.00     0.138 C
HETATM    9  N6  UNL     1     -15.424 -22.662  13.172  1.00  0.00    -0.188 NA
HETATM   10  N7  UNL     1     -14.552 -21.865  16.446  1.00  0.00    -0.165 N
ATOM     11  H7  UNL     1     -13.866 -21.292  15.955  1.00  0.00     0.186 HD
ENDROOT
BRANCH   4  12
HETATM   12  N4  UNL     1     -17.230 -24.100  18.319  1.00  0.00    -0.219 N
ATOM     13  H4  UNL     1     -18.183 -23.738  18.337  1.00  0.00     0.178 HD
BRANCH  12  14
HETATM   14  C16 UNL     1     -17.021 -25.361  18.958  1.00  0.00     0.118 C
HETATM   15  C17 UNL     1     -17.427 -26.485  18.034  1.00  0.00     0.035 C
BRANCH  14  16
HETATM   16  C18 UNL     1     -17.886 -25.389  20.212  1.00  0.00     0.189 C
BRANCH  16  17
HETATM   17  O1  UNL     1     -17.724 -24.272  20.998  1.00  0.00    -0.399 OA
ATOM     18  H1  UNL     1     -17.845 -24.452  21.923  1.00  0.00     0.209 HD
ENDBRANCH  16  17
ENDBRANCH  14  16
ENDBRANCH  12  14
ENDBRANCH   4  12
BRANCH   1  19
HETATM   19  N2  UNL     1     -13.671 -21.076  18.554  1.00  0.00    -0.149 N
HETATM   20  C13 UNL     1     -12.770 -21.801  19.430  1.00  0.00     0.153 C
HETATM   21  C12 UNL     1     -11.328 -21.441  19.123  1.00  0.00     0.056 C
HETATM   22  C11 UNL     1     -10.993 -20.039  19.508  1.00  0.00     0.225 C
HETATM   23  N8  UNL     1     -11.392 -19.016  18.609  1.00  0.00     0.102 N
HETATM   24  C22 UNL     1     -12.781 -18.643  18.768  1.00  0.00     0.376 C
HETATM   25  C21 UNL     1     -13.736 -19.689  18.371  1.00  0.00     0.266 C
HETATM   26  O2  UNL     1     -14.773 -19.298  17.777  1.00  0.00    -0.271 OA
BRANCH  22  27
HETATM   27  C10 UNL     1      -9.512 -19.978  19.860  1.00  0.00     0.036 C
BRANCH  27  28
HETATM   28  C9  UNL     1      -9.286 -19.788  21.316  1.00  0.00     0.004 C
BRANCH  28  29
HETATM   29  C8  UNL     1      -8.370 -18.612  21.613  1.00  0.00     0.030 C
BRANCH  29  30
HETATM   30  C7  UNL     1      -8.435 -17.563  20.538  1.00  0.00     0.272 C
BRANCH  30  31
HETATM   31  N1  UNL     1      -7.153 -17.137  20.053  1.00  0.00     0.088 N
HETATM   32  C6  UNL     1      -7.240 -16.313  18.886  1.00  0.00     0.272 C
HETATM   33  C5  UNL     1      -6.167 -16.626  17.866  1.00  0.00     0.036 C
HETATM   34  C4  UNL     1      -4.819 -16.702  18.564  1.00  0.00    -0.003 C
HETATM   35  C28 UNL     1      -4.816 -17.593  19.745  1.00  0.00     0.036 C
HETATM   36  C27 UNL     1      -6.203 -18.172  20.043  1.00  0.00     0.272 C
BRANCH  34  37
HETATM   37  C3  UNL     1      -3.699 -16.822  17.597  1.00  0.00    -0.034 C
HETATM   38  C29 UNL     1      -2.702 -15.681  17.850  1.00  0.00     0.040 C
HETATM   39  C30 UNL     1      -3.158 -14.403  17.180  1.00  0.00     0.272 C
HETATM   40  N9  UNL     1      -2.907 -14.546  15.759  1.00  0.00     0.084 N
HETATM   41  C31 UNL     1      -1.494 -14.376  15.496  1.00  0.00     0.309 C
HETATM   42  C32 UNL     1      -3.260 -15.895  15.305  1.00  0.00     0.272 C
HETATM   43  C33 UNL     1      -4.303 -16.473  16.223  1.00  0.00     0.040 C
BRANCH  37  44
HETATM   44  C2  UNL     1      -3.019 -18.132  17.486  1.00  0.00     0.005 C
HETATM   45  C1  UNL     1      -1.577 -18.188  17.846  1.00  0.00     0.006 C
ENDBRANCH  37  44
ENDBRANCH  34  37
ENDBRANCH  30  31
ENDBRANCH  29  30
ENDBRANCH  28  29
ENDBRANCH  27  28
ENDBRANCH  22  27
BRANCH  23  46
HETATM   46  C23 UNL     1     -11.015 -19.224  17.241  1.00  0.00     0.278 C
BRANCH  46  47
HETATM   47  C24 UNL     1     -10.071 -18.185  16.713  1.00  0.00     0.014 A
HETATM   48  C25 UNL     1      -9.086 -18.780  15.690  1.00  0.00     0.007 A
HETATM   49  C26 UNL     1     -10.034 -17.718  15.330  1.00  0.00     0.007 A
ENDBRANCH  46  47
ENDBRANCH  23  46
ENDBRANCH   1  19
TORSDOF 14
ENDMDL