MODEL 5
REMARK VINA RESULT: -8.634855581      2.592      9.127
REMARK  15 active torsions:
REMARK  status: ('A' for Active; 'I' for Inactive)
REMARK    1  A    between atoms: O1_2  and  C2_3
REMARK    2  A    between atoms: C2_3  and  C3_4
REMARK    3  A    between atoms: C3_4  and  C4_5
REMARK    4  A    between atoms: N1_8  and  C7_9
REMARK    5  A    between atoms: C7_9  and  C8_10
REMARK    6  A    between atoms: C10_13  and  C11_14
REMARK    7  A    between atoms: C11_14  and  N2_15
REMARK    8  A    between atoms: N2_15  and  C12_17
REMARK    9  A    between atoms: C13_20  and  N4_21
REMARK   10  A    between atoms: C19_30  and  N7_31
REMARK   11  A    between atoms: N7_31  and  C20_33
REMARK   12  A    between atoms: C20_33  and  C21_34
REMARK   13  A    between atoms: C21_34  and  C22_35
REMARK   14  A    between atoms: C22_35  and  N8_36
REMARK       I    between atoms: N8_36  and  C24_38
REMARK   15  A    between atoms: C24_38  and  C25_40
ROOT
HETATM    1  C12 UNL     1     -11.340 -21.002  16.718  1.00  0.00     0.707 A
HETATM    2  N3  UNL     1     -10.627 -19.871  16.696  1.00  0.00    -0.021 N
ATOM      3  H3  UNL     1      -9.880 -19.756  17.381  1.00  0.00     0.203 HD
HETATM    4  C13 UNL     1     -10.845 -18.880  15.817  1.00  0.00     0.709 A
HETATM    5  N6  UNL     1     -11.825 -19.042  14.925  1.00  0.00    -0.021 N
ATOM      6  H6  UNL     1     -12.011 -18.303  14.246  1.00  0.00     0.203 HD
HETATM    7  C19 UNL     1     -12.588 -20.182  14.903  1.00  0.00     0.707 A
HETATM    8  N9  UNL     1     -12.340 -21.148  15.796  1.00  0.00    -0.022 N
ATOM      9  H9  UNL     1     -12.900 -22.000  15.789  1.00  0.00     0.203 HD
ENDROOT
BRANCH   1  10
HETATM   10  N2  UNL     1     -11.160 -21.974  17.532  1.00  0.00    -0.219 N
ATOM     11  H2  UNL     1     -10.757 -22.852  17.201  1.00  0.00     0.178 HD
BRANCH  10  12
HETATM   12  C11 UNL     1     -11.525 -21.825  18.906  1.00  0.00     0.203 C
BRANCH  12  13
HETATM   13  C10 UNL     1     -10.396 -21.275  19.724  1.00  0.00     0.077 A
HETATM   14  O2  UNL     1      -9.348 -21.953  20.092  1.00  0.00    -0.324 OA
HETATM   15  C9  UNL     1      -8.539 -21.167  20.808  1.00  0.00     0.151 A
HETATM   16  C8  UNL     1      -9.072 -19.909  20.923  1.00  0.00     0.001 A
HETATM   17  C29 UNL     1     -10.283 -19.999  20.211  1.00  0.00    -0.021 A
HETATM   18  C30 UNL     1     -11.249 -18.909  20.029  1.00  0.00     0.051 C
BRANCH  16  19
HETATM   19  C7  UNL     1      -8.647 -18.681  21.610  1.00  0.00     0.313 C
BRANCH  19  20
HETATM   20  N1  UNL     1      -8.207 -17.603  20.789  1.00  0.00     0.092 N
HETATM   21  C6  UNL     1      -7.061 -18.005  19.971  1.00  0.00     0.273 C
HETATM   22  C5  UNL     1      -5.825 -18.224  20.823  1.00  0.00     0.035 C
HETATM   23  C4  UNL     1      -5.572 -17.068  21.719  1.00  0.00    -0.009 C
HETATM   24  C32 UNL     1      -6.802 -16.692  22.521  1.00  0.00     0.035 C
HETATM   25  C31 UNL     1      -7.879 -16.392  21.523  1.00  0.00     0.273 C
BRANCH  23  26
HETATM   26  C3  UNL     1      -4.325 -17.176  22.509  1.00  0.00     0.031 C
BRANCH  26  27
HETATM   27  C2  UNL     1      -3.287 -18.144  22.075  1.00  0.00     0.167 C
BRANCH  27  28
HETATM   28  O1  UNL     1      -3.142 -19.256  22.882  1.00  0.00    -0.396 OA
HETATM   29  C1  UNL     1      -2.497 -20.302  22.213  1.00  0.00     0.201 C
ENDBRANCH  27  28
ENDBRANCH  26  27
ENDBRANCH  23  26
ENDBRANCH  19  20
ENDBRANCH  16  19
ENDBRANCH  12  13
ENDBRANCH  10  12
ENDBRANCH   1  10
BRANCH   4  30
HETATM   30  N4  UNL     1     -10.041 -17.688  15.848  1.00  0.00    -0.213 N
HETATM   31  C14 UNL     1      -9.717 -17.067  14.603  1.00  0.00     0.171 C
HETATM   32  C15 UNL     1      -9.064 -15.731  14.889  1.00  0.00     0.292 C
HETATM   33  N5  UNL     1      -7.956 -15.999  15.803  1.00  0.00     0.087 N
HETATM   34  C16 UNL     1      -7.161 -14.775  15.868  1.00  0.00     0.310 C
HETATM   35  C17 UNL     1      -8.498 -16.246  17.108  1.00  0.00     0.292 C
HETATM   36  C18 UNL     1      -9.625 -17.216  17.138  1.00  0.00     0.171 C
ENDBRANCH   4  30
BRANCH   7  37
HETATM   37  N7  UNL     1     -13.517 -20.304  14.028  1.00  0.00    -0.225 N
ATOM     38  H7  UNL     1     -13.810 -19.478  13.504  1.00  0.00     0.177 HD
BRANCH  37  39
HETATM   39  C20 UNL     1     -14.156 -21.553  13.760  1.00  0.00     0.139 C
BRANCH  39  40
HETATM   40  C21 UNL     1     -15.625 -21.438  14.030  1.00  0.00     0.040 C
BRANCH  40  41
HETATM   41  C22 UNL     1     -15.999 -21.060  15.423  1.00  0.00     0.127 C
BRANCH  41  42
HETATM   42  N8  UNL     1     -16.101 -22.174  16.348  1.00  0.00    -0.356 N
HETATM   43  C23 UNL     1     -16.887 -23.319  16.043  1.00  0.00     0.152 C
HETATM   44  C24 UNL     1     -15.388 -22.049  17.570  1.00  0.00     0.227 C
HETATM   45  O3  UNL     1     -14.697 -20.987  17.798  1.00  0.00    -0.273 OA
BRANCH  44  46
HETATM   46  C25 UNL     1     -15.357 -23.058  18.652  1.00  0.00     0.030 C
HETATM   47  C26 UNL     1     -16.705 -23.601  19.025  1.00  0.00     0.025 C
HETATM   48  C27 UNL     1     -14.760 -22.422  19.922  1.00  0.00     0.025 C
HETATM   49  C28 UNL     1     -14.416 -24.173  18.221  1.00  0.00     0.025 C
ENDBRANCH  44  46
ENDBRANCH  41  42
ENDBRANCH  40  41
ENDBRANCH  39  40
ENDBRANCH  37  39
ENDBRANCH   7  37
TORSDOF 15
ENDMDL