MODEL 2
REMARK VINA RESULT: -9.295377771      2.068      3.131
REMARK  12 active torsions:
REMARK  status: ('A' for Active; 'I' for Inactive)
REMARK    1  A    between atoms: S1_2  and  N1_5
REMARK    2  A    between atoms: N2_8  and  C4_9
REMARK    3  A    between atoms: C4_9  and  C5_10
REMARK    4  A    between atoms: C5_10  and  C6_11
REMARK    5  A    between atoms: C6_11  and  C7_12
REMARK    6  A    between atoms: C8_15  and  C9_16
REMARK    7  A    between atoms: C9_16  and  C10_17
REMARK    8  A    between atoms: C10_17  and  C11_18
REMARK    9  A    between atoms: C11_18  and  C12_19
REMARK   10  A    between atoms: C12_19  and  C13_20
REMARK   11  A    between atoms: N6_38  and  C25_39
REMARK   12  A    between atoms: C25_39  and  C26_40
ROOT
HETATM    1  C7  UNL     1     -15.377 -22.292  15.519  1.00  0.00     0.084 A
HETATM    2  N3  UNL     1     -15.101 -22.941  16.657  1.00  0.00    -0.348 N
ATOM      3  H3  UNL     1     -15.411 -23.886  16.884  1.00  0.00     0.167 HD
HETATM    4  C8  UNL     1     -14.339 -22.148  17.472  1.00  0.00     0.029 A
HETATM    5  C24 UNL     1     -14.178 -20.998  16.770  1.00  0.00     0.118 A
HETATM    6  N6  UNL     1     -14.811 -21.079  15.574  1.00  0.00    -0.335 N
ENDROOT
BRANCH   4   7
HETATM    7  C9  UNL     1     -13.848 -22.535  18.816  1.00  0.00     0.085 C
BRANCH   7   8
HETATM    8  C10 UNL     1     -12.817 -21.668  19.382  1.00  0.00    -0.021 C
BRANCH   8   9
HETATM    9  C11 UNL     1     -11.403 -21.757  19.165  1.00  0.00    -0.001 C
BRANCH   9  10
HETATM   10  C12 UNL     1     -10.506 -20.741  18.565  1.00  0.00     0.031 C
BRANCH  10  11
HETATM   11  C13 UNL     1      -9.825 -19.747  19.340  1.00  0.00     0.060 A
HETATM   12  N4  UNL     1      -9.737 -20.043  20.680  1.00  0.00    -0.297 N
HETATM   13  N5  UNL     1      -9.124 -19.404  21.612  1.00  0.00    -0.265 N
ATOM     14  H4  UNL     1     -10.226 -20.888  20.977  1.00  0.00     0.187 HD
HETATM   15  C14 UNL     1      -8.470 -18.280  21.234  1.00  0.00     0.277 A
ATOM     16  H5  UNL     1      -9.131 -19.724  22.580  1.00  0.00     0.190 HD
HETATM   17  O3  UNL     1      -7.832 -17.575  22.065  1.00  0.00    -0.265 OA
HETATM   18  C15 UNL     1      -8.516 -17.916  19.901  1.00  0.00     0.087 A
HETATM   19  S2  UNL     1      -7.849 -16.527  19.128  1.00  0.00    -0.088 SA
HETATM   20  C18 UNL     1      -9.167 -18.588  18.899  1.00  0.00     0.022 A
HETATM   21  C16 UNL     1      -8.428 -16.840  17.547  1.00  0.00    -0.009 A
HETATM   22  C17 UNL     1      -9.118 -18.020  17.684  1.00  0.00    -0.031 A
HETATM   23  C23 UNL     1      -8.178 -15.916  16.401  1.00  0.00     0.046 C
HETATM   24  C19 UNL     1      -9.837 -18.586  16.485  1.00  0.00     0.040 C
HETATM   25  C20 UNL     1      -9.478 -17.857  15.203  1.00  0.00     0.005 C
HETATM   26  C21 UNL     1      -8.021 -17.889  14.875  1.00  0.00     0.001 C
HETATM   27  C22 UNL     1      -7.466 -16.528  15.248  1.00  0.00     0.005 C
ENDBRANCH  10  11
ENDBRANCH   9  10
ENDBRANCH   8   9
ENDBRANCH   7   8
ENDBRANCH   4   7
BRANCH   1  28
HETATM   28  C6  UNL     1     -16.161 -22.774  14.365  1.00  0.00     0.081 C
BRANCH  28  29
HETATM   29  C5  UNL     1     -17.602 -22.325  14.350  1.00  0.00     0.052 C
BRANCH  29  30
HETATM   30  C4  UNL     1     -18.419 -23.606  14.450  1.00  0.00     0.058 C
BRANCH  30  31
HETATM   31  N2  UNL     1     -18.785 -24.015  15.729  1.00  0.00    -0.391 N
HETATM   32  C3  UNL     1     -19.088 -23.084  16.737  1.00  0.00     0.137 C
HETATM   33  C2  UNL     1     -18.209 -23.417  17.957  1.00  0.00     0.127 C
HETATM   34  N1  UNL     1     -18.683 -24.649  18.510  1.00  0.00    -0.208 NA
HETATM   35  C28 UNL     1     -18.946 -25.673  17.506  1.00  0.00     0.127 C
HETATM   36  C27 UNL     1     -18.315 -25.291  16.182  1.00  0.00     0.137 C
BRANCH  34  37
HETATM   37  S1  UNL     1     -17.647 -25.277  19.750  1.00  0.00     0.207 S
HETATM   38  C1  UNL     1     -15.995 -25.485  19.164  1.00  0.00     0.180 C
HETATM   39  O1  UNL     1     -17.705 -24.311  20.895  1.00  0.00    -0.212 OA
HETATM   40  O2  UNL     1     -18.201 -26.590  20.202  1.00  0.00    -0.212 OA
ENDBRANCH  34  37
ENDBRANCH  30  31
ENDBRANCH  29  30
ENDBRANCH  28  29
ENDBRANCH   1  28
BRANCH   6  41
HETATM   41  C25 UNL     1     -14.817 -19.984  14.633  1.00  0.00     0.242 C
BRANCH  41  42
HETATM   42  C26 UNL     1     -13.714 -20.023  13.648  1.00  0.00     0.191 C
HETATM   43  O4  UNL     1     -12.498 -19.985  14.000  1.00  0.00    -0.647 OA
HETATM   44  O5  UNL     1     -13.986 -20.105  12.300  1.00  0.00    -0.647 OA
ENDBRANCH  41  42
ENDBRANCH   6  41
TORSDOF 12
ENDMDL