MODEL 3
REMARK VINA RESULT: -8.478452015      3.339     10.047
REMARK  14 active torsions:
REMARK  status: ('A' for Active; 'I' for Inactive)
REMARK    1  A    between atoms: C2_2  and  N1_3
REMARK    2  A    between atoms: C3_5  and  S1_6
REMARK    3  A    between atoms: C3_5  and  N5_39
REMARK    4  A    between atoms: S1_6  and  S2_7
REMARK    5  A    between atoms: S2_7  and  C4_8
REMARK    6  A    between atoms: C4_8  and  C5_9
REMARK    7  A    between atoms: C4_8  and  C21_30
REMARK    8  A    between atoms: C5_9  and  C6_10
REMARK    9  A    between atoms: C6_10  and  N2_13
REMARK       I    between atoms: N2_13  and  C9_15
REMARK   10  A    between atoms: C9_15  and  C10_17
REMARK       I    between atoms: N3_20  and  C13_21
REMARK   11  A    between atoms: C13_21  and  C14_23
REMARK       I    between atoms: C21_30  and  N4_32
REMARK   12  A    between atoms: N4_32  and  C22_34
REMARK   13  A    between atoms: C22_34  and  C23_35
REMARK   14  A    between atoms: C22_34  and  C24_37
ROOT
HETATM    1  C4  UNL     1     -12.176 -20.553  18.655  1.00  0.00     0.153 C
ENDROOT
BRANCH   1   2
HETATM    2  S2  UNL     1     -12.881 -22.164  18.595  1.00  0.00    -0.075 SA
BRANCH   2   3
HETATM    3  S1  UNL     1     -14.782 -22.208  19.483  1.00  0.00    -0.020 SA
BRANCH   3   4
HETATM    4  C3  UNL     1     -15.851 -23.291  18.608  1.00  0.00     0.157 C
HETATM    5  N1  UNL     1     -16.206 -24.394  19.241  1.00  0.00    -0.370 N
ATOM      6  H1  UNL     1     -16.826 -25.069  18.794  1.00  0.00     0.161 HD
BRANCH   5   7
HETATM    7  C2  UNL     1     -15.712 -24.632  20.561  1.00  0.00     0.117 C
HETATM    8  C1  UNL     1     -16.807 -25.379  21.318  1.00  0.00     0.026 C
ENDBRANCH   5   7
BRANCH   4   9
HETATM    9  N5  UNL     1     -16.382 -23.099  17.312  1.00  0.00    -0.274 N
HETATM   10  C26 UNL     1     -15.717 -22.921  16.051  1.00  0.00     0.304 C
HETATM   11  O5  UNL     1     -16.679 -23.071  15.042  1.00  0.00    -0.362 OA
HETATM   12  C27 UNL     1     -17.888 -22.625  15.575  1.00  0.00     0.273 C
HETATM   13  C28 UNL     1     -17.789 -23.062  16.990  1.00  0.00     0.251 C
HETATM   14  O6  UNL     1     -18.744 -23.335  17.728  1.00  0.00    -0.270 OA
ENDBRANCH   4   9
ENDBRANCH   3   4
ENDBRANCH   2   3
ENDBRANCH   1   2
BRANCH   1  15
HETATM   15  C5  UNL     1     -10.702 -20.506  18.800  1.00  0.00     0.055 C
BRANCH  15  16
HETATM   16  C6  UNL     1     -10.059 -19.980  20.018  1.00  0.00     0.027 C
HETATM   17  C7  UNL     1     -10.960 -19.240  20.967  1.00  0.00     0.038 C
HETATM   18  C8  UNL     1      -9.075 -20.915  20.686  1.00  0.00     0.038 C
BRANCH  16  19
HETATM   19  N2  UNL     1      -9.164 -18.876  19.499  1.00  0.00    -0.352 N
HETATM   20  C9  UNL     1      -8.420 -18.051  20.355  1.00  0.00     0.224 C
HETATM   21  O1  UNL     1      -8.388 -18.117  21.602  1.00  0.00    -0.273 OA
ATOM     22  H2  UNL     1      -9.100 -18.727  18.492  1.00  0.00     0.163 HD
BRANCH  20  23
HETATM   23  C10 UNL     1      -7.565 -16.971  19.726  1.00  0.00     0.097 C
HETATM   24  C11 UNL     1      -6.142 -17.062  20.165  1.00  0.00     0.035 C
HETATM   25  C12 UNL     1      -5.302 -16.854  18.928  1.00  0.00     0.127 C
HETATM   26  N3  UNL     1      -6.221 -16.787  17.800  1.00  0.00    -0.351 N
HETATM   27  C13 UNL     1      -5.855 -16.372  16.506  1.00  0.00     0.224 C
HETATM   28  C20 UNL     1      -7.515 -17.232  18.231  1.00  0.00     0.139 C
HETATM   29  O2  UNL     1      -4.622 -16.051  16.297  1.00  0.00    -0.273 OA
BRANCH  27  30
HETATM   30  C14 UNL     1      -6.780 -16.266  15.342  1.00  0.00     0.078 C
HETATM   31  C15 UNL     1      -7.463 -17.565  15.087  1.00  0.00     0.014 C
HETATM   32  C16 UNL     1      -8.759 -17.429  14.303  1.00  0.00     0.001 C
HETATM   33  C17 UNL     1      -9.645 -16.362  14.905  1.00  0.00     0.000 C
HETATM   34  C18 UNL     1      -8.895 -15.042  14.714  1.00  0.00     0.001 C
HETATM   35  C19 UNL     1      -7.692 -15.103  15.599  1.00  0.00     0.014 C
ENDBRANCH  27  30
ENDBRANCH  20  23
ENDBRANCH  16  19
ENDBRANCH  15  16
ENDBRANCH   1  15
BRANCH   1  36
HETATM   36  C21 UNL     1     -12.468 -19.781  17.371  1.00  0.00     0.233 C
HETATM   37  O3  UNL     1     -11.950 -18.647  17.180  1.00  0.00    -0.272 OA
HETATM   38  N4  UNL     1     -13.313 -20.313  16.381  1.00  0.00    -0.349 N
ATOM     39  H4  UNL     1     -13.726 -21.232  16.541  1.00  0.00     0.163 HD
BRANCH  38  40
HETATM   40  C22 UNL     1     -13.622 -19.636  15.162  1.00  0.00     0.145 C
BRANCH  40  41
HETATM   41  C23 UNL     1     -15.057 -19.648  14.806  1.00  0.00     0.256 C
HETATM   42  O4  UNL     1     -15.964 -19.603  15.619  1.00  0.00    -0.305 OA
ENDBRANCH  40  41
BRANCH  40  43
HETATM   43  C24 UNL     1     -12.803 -20.268  14.054  1.00  0.00     0.028 C
HETATM   44  C25 UNL     1     -13.619 -20.409  12.787  1.00  0.00     0.007 C
ENDBRANCH  40  43
ENDBRANCH  38  40
ENDBRANCH   1  36
TORSDOF 14
ENDMDL