MODEL 5
REMARK VINA RESULT: -9.193731222      1.364      1.964
REMARK  12 active torsions:
REMARK  status: ('A' for Active; 'I' for Inactive)
REMARK    1  A    between atoms: C2_2  and  C3_3
REMARK    2  A    between atoms: C3_3  and  C4_4
REMARK    3  A    between atoms: C4_4  and  C5_5
REMARK    4  A    between atoms: C5_5  and  C6_6
REMARK    5  A    between atoms: C6_6  and  N1_7
REMARK    6  A    between atoms: C9_10  and  N2_11
REMARK       I    between atoms: N2_11  and  C10_13
REMARK    7  A    between atoms: C10_13  and  C11_15
REMARK    8  A    between atoms: C15_22  and  C16_23
REMARK    9  A    between atoms: C16_23  and  C17_25
REMARK       I    between atoms: C17_25  and  N4_27
REMARK   10  A    between atoms: N4_27  and  C18_29
REMARK   11  A    between atoms: C18_29  and  C19_30
REMARK   12  A    between atoms: C19_30  and  C20_31
REMARK       I    between atoms: C20_31  and  N5_33
ROOT
HETATM    1  C11 UNL     1     -13.574 -21.628  15.741  1.00  0.00     0.066 A
HETATM    2  C12 UNL     1     -13.930 -21.224  14.464  1.00  0.00     0.033 A
HETATM    3  N3  UNL     1     -15.148 -21.300  13.943  1.00  0.00    -0.316 N
HETATM    4  C13 UNL     1     -16.138 -21.824  14.727  1.00  0.00     0.266 A
HETATM    5  O2  UNL     1     -17.313 -21.948  14.353  1.00  0.00    -0.266 OA
HETATM    6  C14 UNL     1     -15.819 -22.243  16.013  1.00  0.00     0.085 A
HETATM    7  S1  UNL     1     -16.757 -22.952  17.286  1.00  0.00    -0.080 SA
HETATM    8  C15 UNL     1     -15.552 -23.130  18.452  1.00  0.00     0.062 A
HETATM    9  C25 UNL     1     -14.430 -22.632  17.838  1.00  0.00     0.037 A
HETATM   10  C26 UNL     1     -14.568 -22.175  16.580  1.00  0.00     0.006 A
HETATM   11  C27 UNL     1     -14.861 -20.723  12.662  1.00  0.00     0.138 A
HETATM   12  C28 UNL     1     -13.456 -20.647  13.163  1.00  0.00     0.078 A
ENDROOT
BRANCH   1  13
HETATM   13  C10 UNL     1     -12.195 -21.443  16.184  1.00  0.00     0.254 C
HETATM   14  N2  UNL     1     -11.560 -20.187  16.228  1.00  0.00    -0.352 N
ATOM     15  H2  UNL     1     -12.054 -19.346  15.928  1.00  0.00     0.163 HD
HETATM   16  O1  UNL     1     -11.463 -22.407  16.555  1.00  0.00    -0.268 OA
BRANCH  14  17
HETATM   17  C9  UNL     1     -10.173 -20.106  16.712  1.00  0.00     0.088 C
HETATM   18  C8  UNL     1     -10.217 -19.961  18.243  1.00  0.00     0.055 C
HETATM   19  C7  UNL     1     -10.450 -18.515  18.497  1.00  0.00     0.274 C
HETATM   20  N1  UNL     1      -9.269 -17.715  18.253  1.00  0.00     0.088 N
HETATM   21  C30 UNL     1      -8.683 -18.077  16.999  1.00  0.00     0.274 C
HETATM   22  C29 UNL     1      -9.550 -18.900  16.087  1.00  0.00     0.055 C
BRANCH  20  23
HETATM   23  C6  UNL     1      -8.277 -17.899  19.293  1.00  0.00     0.272 C
BRANCH  23  24
HETATM   24  C5  UNL     1      -8.744 -17.410  20.628  1.00  0.00     0.030 C
BRANCH  24  25
HETATM   25  C4  UNL     1      -8.387 -18.431  21.675  1.00  0.00     0.002 C
BRANCH  25  26
HETATM   26  C3  UNL     1      -9.410 -19.490  21.890  1.00  0.00    -0.000 C
BRANCH  26  27
HETATM   27  C2  UNL     1      -8.639 -20.825  21.861  1.00  0.00    -0.005 C
HETATM   28  C1  UNL     1      -9.016 -21.637  20.656  1.00  0.00     0.005 C
ENDBRANCH  26  27
ENDBRANCH  25  26
ENDBRANCH  24  25
ENDBRANCH  23  24
ENDBRANCH  20  23
ENDBRANCH  14  17
ENDBRANCH   1  13
BRANCH   8  29
HETATM   29  C16 UNL     1     -15.658 -23.711  19.809  1.00  0.00     0.256 C
HETATM   30  O3  UNL     1     -14.791 -23.498  20.645  1.00  0.00    -0.281 OA
BRANCH  29  31
HETATM   31  C17 UNL     1     -16.826 -24.540  20.100  1.00  0.00     0.293 C
HETATM   32  O4  UNL     1     -17.641 -24.114  20.978  1.00  0.00    -0.264 OA
HETATM   33  N4  UNL     1     -17.019 -25.748  19.422  1.00  0.00    -0.354 N
ATOM     34  H4  UNL     1     -16.325 -26.019  18.725  1.00  0.00     0.162 HD
BRANCH  33  35
HETATM   35  C18 UNL     1     -18.130 -26.632  19.642  1.00  0.00     0.132 C
BRANCH  35  36
HETATM   36  C19 UNL     1     -19.091 -26.657  18.445  1.00  0.00     0.122 C
BRANCH  36  37
HETATM   37  C20 UNL     1     -18.581 -27.622  17.450  1.00  0.00     0.221 C
HETATM   38  O5  UNL     1     -17.623 -27.267  16.718  1.00  0.00    -0.273 OA
HETATM   39  N5  UNL     1     -19.124 -28.946  17.271  1.00  0.00    -0.348 N
HETATM   40  C21 UNL     1     -20.232 -29.384  18.102  1.00  0.00     0.152 C
HETATM   41  C24 UNL     1     -18.559 -29.838  16.297  1.00  0.00     0.152 C
HETATM   42  C22 UNL     1     -21.055 -30.390  17.392  1.00  0.00     0.187 C
HETATM   43  O6  UNL     1     -20.878 -30.404  16.016  1.00  0.00    -0.388 OA
HETATM   44  C23 UNL     1     -19.576 -30.795  15.730  1.00  0.00     0.187 C
ENDBRANCH  36  37
ENDBRANCH  35  36
ENDBRANCH  33  35
ENDBRANCH  29  31
ENDBRANCH   8  29
TORSDOF 12
ENDMDL