MODEL 1
REMARK VINA RESULT: -8.367965163      0.000      0.000
REMARK  16 active torsions:
REMARK  status: ('A' for Active; 'I' for Inactive)
REMARK    1  A    between atoms: C2_2  and  C3_3
REMARK    2  A    between atoms: C3_3  and  C4_4
REMARK    3  A    between atoms: C4_4  and  C5_5
REMARK    4  A    between atoms: C4_4  and  C25_36
REMARK    5  A    between atoms: C5_5  and  N1_6
REMARK    6  A    between atoms: N2_10  and  C8_11
REMARK    7  A    between atoms: N4_19  and  C14_20
REMARK    8  A    between atoms: C17_24  and  C18_25
REMARK    9  A    between atoms: C17_24  and  C20_27
REMARK   10  A    between atoms: C20_27  and  O2_28
REMARK   11  A    between atoms: C20_27  and  N6_30
REMARK   12  A    between atoms: N6_30  and  C22_32
REMARK   13  A    between atoms: C22_32  and  C23_33
REMARK   14  A    between atoms: C23_33  and  O3_34
REMARK       I    between atoms: C25_36  and  N7_38
REMARK   15  A    between atoms: N7_38  and  C26_40
REMARK   16  A    between atoms: C27_43  and  C28_44
ROOT
HETATM    1  N1  UNL     1     -11.371 -19.115  18.394  1.00  0.00    -0.350 N
HETATM    2  C6  UNL     1     -12.644 -18.599  18.059  1.00  0.00     0.229 C
HETATM    3  C7  UNL     1     -13.766 -19.520  18.432  1.00  0.00     0.258 C
HETATM    4  O1  UNL     1     -14.915 -19.054  18.425  1.00  0.00    -0.270 OA
HETATM    5  N2  UNL     1     -13.464 -20.841  18.763  1.00  0.00    -0.223 N
HETATM    6  N5  UNL     1     -12.173 -21.206  18.980  1.00  0.00    -0.090 NA
HETATM    7  C17 UNL     1     -11.173 -20.475  18.094  1.00  0.00     0.189 C
ENDROOT
BRANCH   1   8
HETATM    8  C5  UNL     1     -10.348 -18.185  18.312  1.00  0.00     0.101 C
BRANCH   8   9
HETATM    9  C4  UNL     1      -9.198 -18.127  19.257  1.00  0.00     0.026 C
BRANCH   9  10
HETATM   10  C3  UNL     1      -9.492 -18.301  20.700  1.00  0.00     0.045 C
BRANCH  10  11
HETATM   11  C2  UNL     1      -8.335 -18.500  21.617  1.00  0.00     0.000 C
HETATM   12  C1  UNL     1      -7.664 -19.831  21.493  1.00  0.00     0.005 C
ENDBRANCH  10  11
ENDBRANCH   9  10
BRANCH   9  13
HETATM   13  C25 UNL     1      -8.057 -17.295  18.891  1.00  0.00     0.267 C
HETATM   14  O4  UNL     1      -8.224 -16.029  18.797  1.00  0.00    -0.267 OA
HETATM   15  N7  UNL     1      -6.772 -17.770  18.629  1.00  0.00    -0.154 N
ATOM     16  H7  UNL     1      -6.442 -18.538  19.214  1.00  0.00     0.187 HD
BRANCH  15  17
HETATM   17  C26 UNL     1      -5.955 -17.340  17.725  1.00  0.00     0.707 A
HETATM   18  N8  UNL     1      -4.670 -16.986  17.822  1.00  0.00    -0.169 N
HETATM   19  C27 UNL     1      -4.260 -16.588  16.598  1.00  0.00     0.170 A
ATOM     20  H8  UNL     1      -4.101 -17.013  18.668  1.00  0.00     0.186 HD
HETATM   21  O5  UNL     1      -5.293 -16.713  15.812  1.00  0.00    -0.208 OA
HETATM   22  N9  UNL     1      -6.319 -17.159  16.452  1.00  0.00    -0.089 N
ATOM     23  H9  UNL     1      -7.243 -17.341  16.058  1.00  0.00     0.213 HD
BRANCH  19  24
HETATM   24  C28 UNL     1      -2.927 -16.100  16.181  1.00  0.00     0.017 C
HETATM   25  C29 UNL     1      -2.093 -17.222  15.634  1.00  0.00     0.023 C
HETATM   26  C30 UNL     1      -3.043 -15.021  15.114  1.00  0.00     0.023 C
HETATM   27  C31 UNL     1      -2.157 -15.490  17.337  1.00  0.00     0.023 C
ENDBRANCH  19  24
ENDBRANCH  15  17
ENDBRANCH   9  13
ENDBRANCH   8   9
ENDBRANCH   1   8
BRANCH   7  28
HETATM   28  C18 UNL     1      -9.898 -21.086  18.650  1.00  0.00     0.056 C
HETATM   29  C19 UNL     1     -10.207 -21.744  19.973  1.00  0.00     0.009 C
ENDBRANCH   7  28
BRANCH   7  30
HETATM   30  C20 UNL     1     -11.384 -21.003  16.748  1.00  0.00     0.161 C
BRANCH  30  31
HETATM   31  O2  UNL     1     -10.891 -22.224  16.526  1.00  0.00    -0.346 OA
ATOM     32  H2  UNL     1      -9.949 -22.269  16.407  1.00  0.00     0.219 HD
ENDBRANCH  30  31
BRANCH  30  33
HETATM   33  N6  UNL     1     -11.988 -20.498  15.607  1.00  0.00    -0.364 N
HETATM   34  C21 UNL     1     -11.356 -19.292  14.940  1.00  0.00     0.151 C
BRANCH  33  35
HETATM   35  C22 UNL     1     -13.131 -20.981  14.906  1.00  0.00     0.150 C
BRANCH  35  36
HETATM   36  C23 UNL     1     -14.266 -19.986  14.804  1.00  0.00     0.186 C
BRANCH  36  37
HETATM   37  O3  UNL     1     -15.025 -20.374  13.689  1.00  0.00    -0.394 OA
HETATM   38  C24 UNL     1     -14.142 -20.787  12.699  1.00  0.00     0.201 C
ENDBRANCH  36  37
ENDBRANCH  35  36
ENDBRANCH  33  35
ENDBRANCH  30  33
ENDBRANCH   7  30
BRANCH   5  39
HETATM   39  C8  UNL     1     -14.490 -21.814  18.897  1.00  0.00     0.072 A
HETATM   40  C9  UNL     1     -14.562 -22.541  20.098  1.00  0.00     0.048 A
HETATM   41  C10 UNL     1     -15.520 -23.505  20.284  1.00  0.00     0.010 A
HETATM   42  C11 UNL     1     -15.855 -24.377  21.312  1.00  0.00     0.101 A
HETATM   43  C13 UNL     1     -16.486 -23.792  19.234  1.00  0.00     0.061 A
HETATM   44  N3  UNL     1     -16.922 -25.130  20.940  1.00  0.00    -0.372 N
HETATM   45  C12 UNL     1     -17.314 -24.796  19.700  1.00  0.00     0.118 A
ATOM     46  H3  UNL     1     -17.362 -25.846  21.518  1.00  0.00     0.164 HD
HETATM   47  N4  UNL     1     -16.387 -23.074  18.097  1.00  0.00    -0.353 N
HETATM   48  C16 UNL     1     -15.425 -22.134  17.960  1.00  0.00     0.122 A
BRANCH  47  49
HETATM   49  C14 UNL     1     -17.343 -23.363  17.056  1.00  0.00     0.124 C
HETATM   50  C15 UNL     1     -16.986 -22.687  15.737  1.00  0.00     0.027 C
ENDBRANCH  47  49
ENDBRANCH   5  39
TORSDOF 16
ENDMDL