MODEL 5
REMARK VINA RESULT: -8.928986533      1.446      2.029
REMARK  15 active torsions:
REMARK  status: ('A' for Active; 'I' for Inactive)
REMARK    1  A    between atoms: C2_2  and  C3_3
REMARK    2  A    between atoms: C3_3  and  C4_4
REMARK    3  A    between atoms: C4_4  and  C5_5
REMARK    4  A    between atoms: C5_5  and  C6_6
REMARK    5  A    between atoms: C6_6  and  C7_7
REMARK    6  A    between atoms: C7_7  and  C8_8
REMARK    7  A    between atoms: C8_8  and  C9_9
REMARK    8  A    between atoms: C9_9  and  C10_10
REMARK    9  A    between atoms: C10_10  and  O1_11
REMARK   10  A    between atoms: C10_10  and  N1_13
REMARK       I    between atoms: N2_16  and  C13_17
REMARK   11  A    between atoms: C13_17  and  C14_19
REMARK   12  A    between atoms: C14_19  and  C15_20
REMARK   13  A    between atoms: N3_23  and  C18_24
REMARK   14  A    between atoms: N6_35  and  C23_36
REMARK   15  A    between atoms: N7_42  and  N8_43
ROOT
HETATM    1  C15 UNL     1     -13.086 -20.812  15.666  1.00  0.00    -0.003 C
HETATM    2  C16 UNL     1     -12.473 -19.937  14.584  1.00  0.00     0.025 C
HETATM    3  C17 UNL     1     -11.214 -19.361  15.205  1.00  0.00     0.141 C
HETATM    4  N3  UNL     1     -11.385 -18.955  16.573  1.00  0.00    -0.216 N
HETATM    5  C28 UNL     1     -12.531 -19.212  17.408  1.00  0.00     0.141 C
HETATM    6  C29 UNL     1     -13.691 -19.829  16.657  1.00  0.00     0.025 C
ENDROOT
BRANCH   4   7
HETATM    7  C18 UNL     1     -10.311 -18.224  17.145  1.00  0.00     0.703 A
HETATM    8  N4  UNL     1      -9.742 -18.501  18.307  1.00  0.00    -0.172 N
HETATM    9  C19 UNL     1      -8.751 -17.598  18.563  1.00  0.00     0.164 A
ATOM     10  H4  UNL     1     -10.004 -19.274  18.920  1.00  0.00     0.186 HD
HETATM   11  C20 UNL     1      -8.733 -16.734  17.488  1.00  0.00     0.186 A
HETATM   12  N6  UNL     1      -7.897 -17.454  19.590  1.00  0.00    -0.255 N
HETATM   13  C21 UNL     1      -7.813 -15.717  17.504  1.00  0.00     0.282 A
HETATM   14  N7  UNL     1      -9.688 -17.133  16.642  1.00  0.00    -0.084 N
HETATM   15  O3  UNL     1      -7.787 -14.931  16.545  1.00  0.00    -0.265 OA
HETATM   16  N5  UNL     1      -6.949 -15.581  18.556  1.00  0.00    -0.273 N
HETATM   17  C22 UNL     1      -7.007 -16.460  19.591  1.00  0.00     0.333 A
ATOM     18  H5  UNL     1      -6.266 -14.825  18.563  1.00  0.00     0.173 HD
HETATM   19  O4  UNL     1      -6.223 -16.368  20.588  1.00  0.00    -0.246 OA
BRANCH  14  20
HETATM   20  N8  UNL     1     -10.020 -16.553  15.428  1.00  0.00    -0.323 N
ATOM     21  H82 UNL     1      -9.771 -16.891  14.499  1.00  0.00     0.178 HD
ATOM     22  H81 UNL     1     -10.571 -15.698  15.343  1.00  0.00     0.178 HD
ENDBRANCH  14  20
BRANCH  12  23
HETATM   23  C23 UNL     1      -8.003 -18.450  20.666  1.00  0.00     0.234 C
HETATM   24  C24 UNL     1      -7.571 -19.764  20.001  1.00  0.00     0.054 C
HETATM   25  C25 UNL     1      -8.414 -20.935  20.462  1.00  0.00     0.006 C
HETATM   26  C26 UNL     1      -8.771 -20.652  21.906  1.00  0.00     0.026 C
HETATM   27  C27 UNL     1      -9.685 -19.471  21.916  1.00  0.00     0.170 C
HETATM   28  O5  UNL     1      -9.333 -18.473  21.047  1.00  0.00    -0.366 OA
ENDBRANCH  12  23
ENDBRANCH   4   7
BRANCH   1  29
HETATM   29  C14 UNL     1     -14.070 -21.808  15.165  1.00  0.00     0.107 C
BRANCH  29  30
HETATM   30  C13 UNL     1     -14.873 -22.355  16.276  1.00  0.00     0.220 C
HETATM   31  N2  UNL     1     -16.276 -22.278  16.336  1.00  0.00    -0.349 N
HETATM   32  C12 UNL     1     -16.956 -22.872  17.507  1.00  0.00     0.145 C
HETATM   33  C30 UNL     1     -17.103 -21.659  15.356  1.00  0.00     0.145 C
HETATM   34  C11 UNL     1     -18.357 -23.321  17.066  1.00  0.00     0.144 C
HETATM   35  N1  UNL     1     -18.267 -23.772  15.715  1.00  0.00    -0.362 N
HETATM   36  C31 UNL     1     -18.073 -22.625  14.744  1.00  0.00     0.144 C
HETATM   37  O2  UNL     1     -14.215 -22.913  17.200  1.00  0.00    -0.273 OA
BRANCH  35  38
HETATM   38  C10 UNL     1     -18.306 -25.013  15.118  1.00  0.00     0.113 C
BRANCH  38  39
HETATM   39  C9  UNL     1     -19.032 -26.223  15.468  1.00  0.00     0.084 C
BRANCH  39  40
HETATM   40  C8  UNL     1     -18.239 -27.306  16.072  1.00  0.00     0.008 C
BRANCH  40  41
HETATM   41  C7  UNL     1     -18.543 -27.528  17.565  1.00  0.00     0.000 C
BRANCH  41  42
HETATM   42  C6  UNL     1     -17.692 -26.620  18.400  1.00  0.00     0.000 C
BRANCH  42  43
HETATM   43  C5  UNL     1     -18.361 -26.095  19.640  1.00  0.00     0.000 C
BRANCH  43  44
HETATM   44  C4  UNL     1     -17.360 -25.992  20.750  1.00  0.00     0.000 C
BRANCH  44  45
HETATM   45  C3  UNL     1     -16.821 -24.586  20.928  1.00  0.00    -0.000 C
BRANCH  45  46
HETATM   46  C2  UNL     1     -15.391 -24.484  20.447  1.00  0.00    -0.005 C
HETATM   47  C1  UNL     1     -14.852 -23.080  20.684  1.00  0.00     0.005 C
ENDBRANCH  45  46
ENDBRANCH  44  45
ENDBRANCH  43  44
ENDBRANCH  42  43
ENDBRANCH  41  42
ENDBRANCH  40  41
ENDBRANCH  39  40
ENDBRANCH  38  39
BRANCH  38  48
HETATM   48  O1  UNL     1     -17.535 -25.118  14.029  1.00  0.00    -0.349 OA
ATOM     49  H1  UNL     1     -17.794 -24.561  13.304  1.00  0.00     0.219 HD
ENDBRANCH  38  48
ENDBRANCH  35  38
ENDBRANCH  29  30
ENDBRANCH   1  29
TORSDOF 15
ENDMDL