MODEL 5
REMARK VINA RESULT: -9.108424730      3.732      5.580
REMARK  14 active torsions:
REMARK  status: ('A' for Active; 'I' for Inactive)
REMARK    1  A    between atoms: C2_2  and  C3_3
REMARK    2  A    between atoms: C6_6  and  C7_7
REMARK    3  A    between atoms: N1_9  and  C8_10
REMARK    4  A    between atoms: C8_10  and  N2_11
REMARK    5  A    between atoms: N3_14  and  C11_15
REMARK    6  A    between atoms: C11_15  and  C12_16
REMARK    7  A    between atoms: C12_16  and  O2_17
REMARK    8  A    between atoms: C19_27  and  N5_28
REMARK    9  A    between atoms: N5_28  and  C20_30
REMARK   10  A    between atoms: C23_33  and  O3_34
REMARK   11  A    between atoms: O3_34  and  C24_35
REMARK   12  A    between atoms: C24_35  and  C25_36
REMARK   13  A    between atoms: C25_36  and  C26_37
REMARK   14  A    between atoms: C26_37  and  N6_38
ROOT
HETATM    1  C20 UNL     1     -13.202 -19.388  17.432  1.00  0.00     0.050 A
HETATM    2  C21 UNL     1     -13.052 -19.451  16.072  1.00  0.00     0.033 A
HETATM    3  C22 UNL     1     -11.811 -19.214  15.503  1.00  0.00     0.040 A
HETATM    4  C23 UNL     1     -10.685 -18.909  16.245  1.00  0.00     0.089 A
HETATM    5  C31 UNL     1     -10.855 -18.848  17.650  1.00  0.00     0.080 A
HETATM    6  C32 UNL     1      -9.685 -18.518  18.442  1.00  0.00     0.102 C
HETATM    7  N7  UNL     1      -8.762 -18.244  19.080  1.00  0.00    -0.191 NA
HETATM    8  C33 UNL     1     -12.078 -19.084  18.190  1.00  0.00     0.055 A
ENDROOT
BRANCH   4   9
HETATM    9  O3  UNL     1      -9.523 -18.681  15.727  1.00  0.00    -0.350 OA
BRANCH   9  10
HETATM   10  C24 UNL     1      -8.368 -18.453  15.201  1.00  0.00     0.177 C
BRANCH  10  11
HETATM   11  C25 UNL     1      -8.055 -17.146  14.492  1.00  0.00     0.057 C
BRANCH  11  12
HETATM   12  C26 UNL     1      -8.726 -15.961  15.092  1.00  0.00     0.274 C
BRANCH  12  13
HETATM   13  N6  UNL     1      -7.804 -15.096  15.791  1.00  0.00     0.088 N
HETATM   14  C27 UNL     1      -7.636 -15.354  17.172  1.00  0.00     0.272 C
HETATM   15  C28 UNL     1      -6.227 -15.856  17.381  1.00  0.00     0.032 C
HETATM   16  C29 UNL     1      -5.494 -15.511  16.125  1.00  0.00     0.032 C
HETATM   17  C30 UNL     1      -6.549 -15.076  15.137  1.00  0.00     0.272 C
ENDBRANCH  12  13
ENDBRANCH  11  12
ENDBRANCH  10  11
ENDBRANCH   9  10
ENDBRANCH   4   9
BRANCH   1  18
HETATM   18  N5  UNL     1     -14.406 -19.585  18.149  1.00  0.00    -0.192 N
ATOM     19  H5  UNL     1     -15.045 -18.799  18.264  1.00  0.00     0.184 HD
BRANCH  18  20
HETATM   20  C19 UNL     1     -14.730 -20.755  18.674  1.00  0.00     0.683 A
HETATM   21  N4  UNL     1     -14.165 -21.173  19.823  1.00  0.00    -0.201 N
HETATM   22  C18 UNL     1     -14.409 -22.367  20.378  1.00  0.00     0.115 A
ATOM     23  H4  UNL     1     -13.515 -20.546  20.296  1.00  0.00     0.183 HD
HETATM   24  C17 UNL     1     -15.299 -23.246  19.742  1.00  0.00    -0.014 A
HETATM   25  C16 UNL     1     -15.609 -24.543  20.362  1.00  0.00     0.047 C
HETATM   26  C34 UNL     1     -15.858 -22.782  18.566  1.00  0.00     0.069 A
HETATM   27  C15 UNL     1     -16.272 -25.502  19.469  1.00  0.00     0.047 C
HETATM   28  C5  UNL     1     -16.904 -24.962  18.261  1.00  0.00    -0.013 A
HETATM   29  C4  UNL     1     -16.705 -23.704  17.806  1.00  0.00     0.024 A
HETATM   30  C6  UNL     1     -17.762 -25.605  17.355  1.00  0.00     0.085 A
HETATM   31  C3  UNL     1     -17.446 -23.592  16.628  1.00  0.00     0.030 A
HETATM   32  N1  UNL     1     -18.079 -24.758  16.372  1.00  0.00    -0.307 N
HETATM   33  N8  UNL     1     -15.587 -21.573  18.044  1.00  0.00    -0.190 N
ATOM     34  H8  UNL     1     -16.030 -21.280  17.174  1.00  0.00     0.184 HD
BRANCH  31  35
HETATM   35  C2  UNL     1     -17.509 -22.337  15.834  1.00  0.00     0.054 C
HETATM   36  C1  UNL     1     -16.317 -22.372  14.876  1.00  0.00     0.011 C
ENDBRANCH  31  35
BRANCH  32  37
HETATM   37  C8  UNL     1     -18.889 -25.010  15.240  1.00  0.00     0.186 C
BRANCH  37  38
HETATM   38  N2  UNL     1     -18.357 -25.742  14.152  1.00  0.00    -0.373 N
HETATM   39  C9  UNL     1     -19.166 -26.891  13.793  1.00  0.00     0.143 C
HETATM   40  C10 UNL     1     -19.615 -26.921  12.375  1.00  0.00     0.141 C
HETATM   41  N3  UNL     1     -18.610 -26.630  11.422  1.00  0.00    -0.388 N
HETATM   42  C13 UNL     1     -17.411 -26.075  11.976  1.00  0.00     0.141 C
HETATM   43  C14 UNL     1     -17.785 -25.038  13.069  1.00  0.00     0.143 C
BRANCH  41  44
HETATM   44  C11 UNL     1     -18.537 -27.356  10.240  1.00  0.00     0.084 C
BRANCH  44  45
HETATM   45  C12 UNL     1     -17.375 -28.279  10.036  1.00  0.00     0.208 C
BRANCH  45  46
HETATM   46  O2  UNL     1     -17.614 -29.431  10.812  1.00  0.00    -0.396 OA
ATOM     47  H2  UNL     1     -18.555 -29.516  10.909  1.00  0.00     0.209 HD
ENDBRANCH  45  46
ENDBRANCH  44  45
ENDBRANCH  41  44
ENDBRANCH  37  38
ENDBRANCH  32  37
BRANCH  30  48
HETATM   48  C7  UNL     1     -18.180 -27.006  17.512  1.00  0.00     0.289 C
HETATM   49  O1  UNL     1     -17.727 -27.943  16.846  1.00  0.00    -0.300 OA
ENDBRANCH  30  48
ENDBRANCH  18  20
ENDBRANCH   1  18
TORSDOF 14
ENDMDL