MODEL 4
REMARK VINA RESULT: -7.778805277      3.464     11.309
REMARK  16 active torsions:
REMARK  status: ('A' for Active; 'I' for Inactive)
REMARK    1  A    between atoms: C2_2  and  O1_3
REMARK    2  A    between atoms: O1_3  and  C3_4
REMARK    3  A    between atoms: C3_4  and  C4_6
REMARK    4  A    between atoms: C4_6  and  O3_7
REMARK    5  A    between atoms: C4_6  and  C5_9
REMARK    6  A    between atoms: C5_9  and  C6_10
REMARK       I    between atoms: C6_10  and  N1_12
REMARK    7  A    between atoms: C7_14  and  C8_15
REMARK    8  A    between atoms: C7_14  and  C12_23
REMARK    9  A    between atoms: C8_15  and  C9_16
REMARK   10  A    between atoms: C9_16  and  C10_17
REMARK   11  A    between atoms: C10_17  and  C11_18
REMARK   12  A    between atoms: C11_18  and  N2_19
REMARK   13  A    between atoms: C12_23  and  N3_24
REMARK   14  A    between atoms: C12_23  and  C25_42
REMARK   15  A    between atoms: N4_33  and  S2_34
REMARK   16  A    between atoms: S2_34  and  C20_37
ROOT
HETATM    1  C12 UNL     1     -14.411 -22.074  15.771  1.00  0.00     0.144 C
ENDROOT
BRANCH   1   2
HETATM    2  C7  UNL     1     -15.636 -22.750  16.260  1.00  0.00     0.013 C
HETATM    3  N1  UNL     1     -15.701 -23.580  17.207  1.00  0.00    -0.332 N
HETATM    4  C6  UNL     1     -14.849 -24.164  18.092  1.00  0.00     0.224 C
ATOM      5  H1  UNL     1     -16.657 -23.903  17.349  1.00  0.00     0.168 HD
HETATM    6  O4  UNL     1     -13.654 -24.423  17.836  1.00  0.00    -0.273 OA
BRANCH   4   7
HETATM    7  C5  UNL     1     -15.347 -24.527  19.454  1.00  0.00     0.145 C
BRANCH   7   8
HETATM    8  C4  UNL     1     -16.276 -25.690  19.347  1.00  0.00     0.226 C
BRANCH   8   9
HETATM    9  C3  UNL     1     -17.690 -25.328  19.524  1.00  0.00     0.288 C
HETATM   10  O2  UNL     1     -18.101 -24.582  20.457  1.00  0.00    -0.262 OA
BRANCH   9  11
HETATM   11  O1  UNL     1     -18.626 -25.821  18.632  1.00  0.00    -0.320 OA
BRANCH  11  12
HETATM   12  C2  UNL     1     -19.649 -26.727  18.956  1.00  0.00     0.174 C
HETATM   13  C1  UNL     1     -19.413 -28.059  18.306  1.00  0.00     0.034 C
ENDBRANCH  11  12
ENDBRANCH   9  11
ENDBRANCH   8   9
BRANCH   8  14
HETATM   14  O3  UNL     1     -16.101 -26.338  18.138  1.00  0.00    -0.385 OA
ATOM     15  H3  UNL     1     -15.188 -26.574  18.025  1.00  0.00     0.210 HD
ENDBRANCH   8  14
ENDBRANCH   7   8
ENDBRANCH   4   7
BRANCH   2  16
HETATM   16  C8  UNL     1     -16.985 -22.488  15.629  1.00  0.00     0.055 C
BRANCH  16  17
HETATM   17  C9  UNL     1     -18.118 -23.001  16.478  1.00  0.00     0.007 C
BRANCH  17  18
HETATM   18  C10 UNL     1     -19.092 -23.836  15.719  1.00  0.00     0.027 C
BRANCH  18  19
HETATM   19  C11 UNL     1     -18.447 -24.896  14.867  1.00  0.00     0.229 C
BRANCH  19  20
HETATM   20  N2  UNL     1     -17.977 -25.977  15.709  1.00  0.00    -0.079 N
ATOM     21  H23 UNL     1     -17.979 -25.724  16.698  1.00  0.00     0.274 HD
ATOM     22  H22 UNL     1     -18.644 -26.748  15.754  1.00  0.00     0.274 HD
ATOM     23  H21 UNL     1     -17.057 -26.283  15.392  1.00  0.00     0.274 HD
ENDBRANCH  19  20
ENDBRANCH  18  19
ENDBRANCH  17  18
ENDBRANCH  16  17
ENDBRANCH   2  16
ENDBRANCH   1   2
BRANCH   1  24
HETATM   24  N3  UNL     1     -13.896 -21.251  16.812  1.00  0.00    -0.344 N
HETATM   25  C13 UNL     1     -12.497 -21.454  17.038  1.00  0.00     0.142 C
HETATM   26  C14 UNL     1     -11.910 -20.365  17.949  1.00  0.00    -0.010 C
HETATM   27  C15 UNL     1     -12.439 -19.066  17.504  1.00  0.00     0.013 C
HETATM   28  C18 UNL     1     -12.083 -20.721  19.381  1.00  0.00     0.028 C
HETATM   29  C24 UNL     1     -10.412 -20.418  17.730  1.00  0.00     0.118 C
HETATM   30  C16 UNL     1     -13.366 -18.366  18.440  1.00  0.00     0.013 C
HETATM   31  C17 UNL     1     -14.733 -18.974  18.534  1.00  0.00     0.097 C
HETATM   32  S1  UNL     1     -14.837 -20.684  18.054  1.00  0.00    -0.057 SA
HETATM   33  C19 UNL     1     -10.723 -20.621  20.037  1.00  0.00     0.108 C
HETATM   34  N4  UNL     1      -9.765 -20.423  19.000  1.00  0.00    -0.206 NA
BRANCH  34  35
HETATM   35  S2  UNL     1      -8.774 -19.037  19.255  1.00  0.00     0.233 S
HETATM   36  O5  UNL     1      -9.310 -18.234  20.412  1.00  0.00    -0.207 OA
HETATM   37  O6  UNL     1      -7.351 -19.497  19.517  1.00  0.00    -0.207 OA
BRANCH  35  38
HETATM   38  C20 UNL     1      -8.721 -18.001  17.862  1.00  0.00     0.128 C
HETATM   39  C21 UNL     1      -8.179 -16.808  17.963  1.00  0.00    -0.076 C
HETATM   40  C22 UNL     1      -8.122 -15.900  16.781  1.00  0.00     0.043 C
HETATM   41  C23 UNL     1      -7.602 -16.299  19.237  1.00  0.00     0.043 C
ENDBRANCH  35  38
ENDBRANCH  34  35
ENDBRANCH   1  24
BRANCH   1  42
HETATM   42  C25 UNL     1     -14.447 -21.515  14.412  1.00  0.00    -0.025 C
HETATM   43  C26 UNL     1     -14.658 -22.339  13.232  1.00  0.00     0.017 C
HETATM   44  C27 UNL     1     -15.512 -20.400  14.390  1.00  0.00     0.017 C
HETATM   45  C28 UNL     1     -13.124 -20.746  14.211  1.00  0.00     0.017 C
ENDBRANCH   1  42
TORSDOF 16
ENDMDL