MODEL 5
REMARK VINA RESULT: -8.342978144      1.866      5.114
REMARK  16 active torsions:
REMARK  status: ('A' for Active; 'I' for Inactive)
REMARK    1  A    between atoms: C2_3  and  C3_4
REMARK    2  A    between atoms: C3_4  and  C4_5
REMARK       I    between atoms: C4_5  and  N2_7
REMARK    3  A    between atoms: N2_7  and  C5_9
REMARK    4  A    between atoms: C6_14  and  C7_15
REMARK    5  A    between atoms: C7_15  and  C8_16
REMARK    6  A    between atoms: C8_16  and  S1_17
REMARK    7  A    between atoms: S1_17  and  C9_18
REMARK    8  A    between atoms: C9_18  and  C10_19
REMARK    9  A    between atoms: C10_19  and  C11_20
REMARK   10  A    between atoms: C14_23  and  N5_24
REMARK   11  A    between atoms: N5_24  and  C15_25
REMARK   12  A    between atoms: C15_25  and  O2_26
REMARK   13  A    between atoms: C15_25  and  C16_28
REMARK   14  A    between atoms: C16_28  and  C17_29
REMARK   15  A    between atoms: C17_29  and  N6_30
REMARK   16  A    between atoms: C23_41  and  C24_42
ROOT
HETATM    1  C5  UNL     1     -10.349 -18.887  16.970  1.00  0.00     0.167 A
HETATM    2  N3  UNL     1     -10.884 -17.673  17.302  1.00  0.00    -0.279 N
ATOM      3  H3  UNL     1     -11.865 -17.584  17.569  1.00  0.00     0.189 HD
HETATM    4  N4  UNL     1     -10.127 -16.667  17.268  1.00  0.00    -0.296 N
ATOM      5  H4  UNL     1     -10.512 -15.754  17.512  1.00  0.00     0.187 HD
HETATM    6  C6  UNL     1      -8.867 -16.748  16.932  1.00  0.00     0.070 A
HETATM    7  S2  UNL     1      -8.734 -18.448  16.628  1.00  0.00    -0.038 SA
ENDROOT
BRANCH   6   8
HETATM    8  C7  UNL     1      -7.843 -15.676  16.812  1.00  0.00     0.076 C
BRANCH   8   9
HETATM    9  C8  UNL     1      -6.917 -15.574  17.962  1.00  0.00     0.080 C
BRANCH   9  10
HETATM   10  S1  UNL     1      -7.481 -15.869  19.598  1.00  0.00    -0.168 SA
BRANCH  10  11
HETATM   11  C9  UNL     1      -7.296 -17.508  20.226  1.00  0.00     0.080 C
BRANCH  11  12
HETATM   12  C10 UNL     1      -8.265 -17.837  21.336  1.00  0.00     0.068 C
BRANCH  12  13
HETATM   13  C11 UNL     1      -9.323 -18.763  20.772  1.00  0.00     0.026 A
HETATM   14  C12 UNL     1      -9.002 -20.040  20.394  1.00  0.00     0.031 A
HETATM   15  C13 UNL     1      -9.998 -20.893  19.982  1.00  0.00     0.067 A
HETATM   16  C14 UNL     1     -11.359 -20.492  19.937  1.00  0.00     0.196 A
HETATM   17  N7  UNL     1     -11.575 -19.203  20.330  1.00  0.00    -0.274 N
HETATM   18  N8  UNL     1     -10.604 -18.399  20.720  1.00  0.00    -0.302 N
ATOM     19  H7  UNL     1     -12.530 -18.845  20.321  1.00  0.00     0.189 HD
ATOM     20  H8  UNL     1     -10.848 -17.447  20.995  1.00  0.00     0.186 HD
BRANCH  16  21
HETATM   21  N5  UNL     1     -12.183 -21.304  19.621  1.00  0.00    -0.366 NA
BRANCH  21  22
HETATM   22  C15 UNL     1     -13.103 -22.159  19.286  1.00  0.00     0.194 C
BRANCH  22  23
HETATM   23  O2  UNL     1     -13.005 -22.967  18.259  1.00  0.00    -0.339 OA
ATOM     24  H2  UNL     1     -13.201 -23.895  18.299  1.00  0.00     0.220 HD
ENDBRANCH  22  23
BRANCH  22  25
HETATM   25  C16 UNL     1     -14.432 -22.387  19.992  1.00  0.00     0.128 C
BRANCH  25  26
HETATM   26  C17 UNL     1     -15.329 -23.100  18.994  1.00  0.00     0.245 C
BRANCH  26  27
HETATM   27  N6  UNL     1     -15.939 -24.263  19.550  1.00  0.00    -0.078 N
HETATM   28  C18 UNL     1     -17.386 -24.229  19.299  1.00  0.00     0.271 C
HETATM   29  C19 UNL     1     -15.701 -24.395  20.956  1.00  0.00     0.271 C
HETATM   30  C20 UNL     1     -15.391 -25.431  18.851  1.00  0.00     0.271 C
ENDBRANCH  26  27
ENDBRANCH  25  26
ENDBRANCH  22  25
ENDBRANCH  21  22
ENDBRANCH  16  21
ENDBRANCH  12  13
ENDBRANCH  11  12
ENDBRANCH  10  11
ENDBRANCH   9  10
ENDBRANCH   8   9
ENDBRANCH   6   8
BRANCH   1  31
HETATM   31  N2  UNL     1     -10.977 -20.003  16.956  1.00  0.00    -0.306 N
HETATM   32  C4  UNL     1     -11.753 -20.566  15.988  1.00  0.00     0.229 C
HETATM   33  O1  UNL     1     -11.882 -21.844  15.956  1.00  0.00    -0.273 OA
ATOM     34  H2  UNL     1     -10.881 -20.559  17.806  1.00  0.00     0.171 HD
BRANCH  32  35
HETATM   35  C3  UNL     1     -12.486 -19.803  14.949  1.00  0.00     0.160 C
BRANCH  35  36
HETATM   36  C2  UNL     1     -13.686 -20.545  14.526  1.00  0.00     0.020 A
HETATM   37  N1  UNL     1     -14.812 -20.800  15.183  1.00  0.00    -0.352 N
HETATM   38  C1  UNL     1     -15.109 -20.427  16.561  1.00  0.00     0.156 C
HETATM   39  C23 UNL     1     -15.636 -21.476  14.373  1.00  0.00     0.068 A
HETATM   40  C22 UNL     1     -15.041 -21.674  13.144  1.00  0.00     0.034 A
HETATM   41  C21 UNL     1     -13.804 -21.085  13.241  1.00  0.00     0.028 A
BRANCH  39  42
HETATM   42  C24 UNL     1     -16.995 -21.919  14.660  1.00  0.00     0.101 A
HETATM   43  N9  UNL     1     -18.129 -21.284  14.373  1.00  0.00    -0.358 N
HETATM   44  C25 UNL     1     -19.263 -21.785  14.730  1.00  0.00     0.096 A
ATOM     45  H9  UNL     1     -18.102 -20.398  13.868  1.00  0.00     0.166 HD
HETATM   46  C26 UNL     1     -19.258 -22.978  15.405  1.00  0.00     0.069 A
HETATM   47  S3  UNL     1     -17.587 -23.315  15.488  1.00  0.00    -0.081 SA
ENDBRANCH  39  42
ENDBRANCH  35  36
ENDBRANCH  32  35
ENDBRANCH   1  31
TORSDOF 16
ENDMDL