MODEL 4
REMARK VINA RESULT: -7.482785227      2.065      2.563
REMARK  11 active torsions:
REMARK  status: ('A' for Active; 'I' for Inactive)
REMARK    1  A    between atoms: C2_2  and  O1_3
REMARK    2  A    between atoms: O1_3  and  C3_4
REMARK    3  A    between atoms: C3_4  and  C4_6
REMARK    4  A    between atoms: C5_8  and  C6_9
REMARK    5  A    between atoms: C10_13  and  O3_14
REMARK    6  A    between atoms: C11_16  and  C12_17
REMARK    7  A    between atoms: C12_17  and  C13_19
REMARK    8  A    between atoms: C16_23  and  C17_24
REMARK    9  A    between atoms: C17_24  and  C18_26
REMARK   10  A    between atoms: C18_26  and  C19_27
REMARK   11  A    between atoms: C22_30  and  O6_31
ROOT
HETATM    1  C4  UNL     1       6.856  95.277  39.050  1.00  0.00     0.097 A
HETATM    2  S1  UNL     1       5.891  95.457  40.484  1.00  0.00    -0.084 SA
HETATM    3  C5  UNL     1       6.964  94.787  41.621  1.00  0.00     0.025 A
HETATM    4  C10 UNL     1       8.035  94.439  40.863  1.00  0.00     0.095 A
HETATM    5  C11 UNL     1       7.981  94.689  39.524  1.00  0.00     0.073 A
ENDROOT
BRANCH   5   6
HETATM    6  C12 UNL     1       9.142  94.394  38.658  1.00  0.00     0.206 C
HETATM    7  O4  UNL     1      10.054  95.248  38.615  1.00  0.00    -0.286 OA
BRANCH   6   8
HETATM    8  C13 UNL     1       9.242  93.147  37.886  1.00  0.00     0.090 A
HETATM    9  S2  UNL     1       8.439  92.737  36.447  1.00  0.00    -0.087 SA
HETATM   10  C14 UNL     1       8.953  91.112  36.297  1.00  0.00    -0.004 A
HETATM   11  C15 UNL     1       8.573  90.161  35.183  1.00  0.00     0.057 C
HETATM   12  C16 UNL     1       9.749  90.939  37.397  1.00  0.00     0.057 A
HETATM   13  C22 UNL     1       9.906  91.994  38.233  1.00  0.00     0.101 A
BRANCH  12  14
HETATM   14  C17 UNL     1      10.426  89.647  37.666  1.00  0.00     0.163 C
HETATM   15  O5  UNL     1      10.265  89.026  38.741  1.00  0.00    -0.292 OA
BRANCH  14  16
HETATM   16  C18 UNL     1      11.335  88.992  36.702  1.00  0.00     0.088 C
BRANCH  16  17
HETATM   17  C19 UNL     1      11.173  87.465  36.801  1.00  0.00    -0.015 C
HETATM   18  C20 UNL     1      10.501  86.897  35.594  1.00  0.00     0.010 C
HETATM   19  C21 UNL     1      12.512  86.787  36.972  1.00  0.00     0.010 C
ENDBRANCH  16  17
ENDBRANCH  14  16
ENDBRANCH  12  14
BRANCH  13  20
HETATM   20  O6  UNL     1      10.674  92.057  39.422  1.00  0.00    -0.358 OA
ATOM     21  H6  UNL     1      11.530  92.461  39.342  1.00  0.00     0.217 HD
ENDBRANCH  13  20
ENDBRANCH   6   8
ENDBRANCH   5   6
BRANCH   1  22
HETATM   22  C3  UNL     1       6.365  95.797  37.802  1.00  0.00     0.301 C
HETATM   23  O2  UNL     1       5.526  95.209  37.106  1.00  0.00    -0.259 OA
BRANCH  22  24
HETATM   24  O1  UNL     1       6.797  97.018  37.267  1.00  0.00    -0.317 OA
BRANCH  24  25
HETATM   25  C2  UNL     1       7.590  97.924  38.003  1.00  0.00     0.174 C
HETATM   26  C1  UNL     1       6.720  98.880  38.784  1.00  0.00     0.034 C
ENDBRANCH  24  25
ENDBRANCH  22  24
ENDBRANCH   1  22
BRANCH   4  27
HETATM   27  O3  UNL     1       9.146  93.835  41.503  1.00  0.00    -0.359 OA
ATOM     28  H3  UNL     1       9.535  94.279  42.247  1.00  0.00     0.217 HD
ENDBRANCH   4  27
BRANCH   3  29
HETATM   29  C6  UNL     1       6.780  94.615  43.119  1.00  0.00    -0.015 C
HETATM   30  C7  UNL     1       5.531  95.371  43.480  1.00  0.00     0.020 C
HETATM   31  C8  UNL     1       6.728  93.169  43.483  1.00  0.00     0.020 C
HETATM   32  C9  UNL     1       7.940  95.319  43.806  1.00  0.00     0.020 C
ENDBRANCH   3  29
TORSDOF 11
ENDMDL