MODEL 2
REMARK VINA RESULT: -7.946318023      1.834      2.412
REMARK  9 active torsions:
REMARK  status: ('A' for Active; 'I' for Inactive)
REMARK    1  A    between atoms: C2_2  and  C3_3
REMARK    2  A    between atoms: C3_3  and  N1_4
REMARK    3  A    between atoms: C6_9  and  C7_10
REMARK    4  A    between atoms: C8_11  and  C9_12
REMARK    5  A    between atoms: C9_12  and  C10_14
REMARK    6  A    between atoms: C13_17  and  O2_18
REMARK    7  A    between atoms: C14_20  and  O3_21
REMARK    8  A    between atoms: N3_23  and  C15_24
REMARK    9  A    between atoms: C16_26  and  C17_27
ROOT
HETATM    1  C15 UNL     1       8.633  94.400  39.293  1.00  0.00     0.177 A
HETATM    2  O4  UNL     1       8.597  93.100  39.083  1.00  0.00    -0.295 OA
HETATM    3  C16 UNL     1       9.502  92.674  38.274  1.00  0.00     0.064 A
HETATM    4  C21 UNL     1      10.244  93.738  37.871  1.00  0.00     0.060 A
HETATM    5  C22 UNL     1       9.709  94.839  38.505  1.00  0.00     0.099 A
HETATM    6  C23 UNL     1      10.211  96.159  38.350  1.00  0.00     0.104 C
HETATM    7  N4  UNL     1      10.629  97.240  38.246  1.00  0.00    -0.191 NA
ENDROOT
BRANCH   1   8
HETATM    8  N3  UNL     1       7.815  95.212  40.110  1.00  0.00    -0.266 N
HETATM    9  C7  UNL     1       7.906  95.484  41.457  1.00  0.00     0.074 A
HETATM   10  C8  UNL     1       6.788  96.233  41.742  1.00  0.00     0.076 A
HETATM   11  C13 UNL     1       6.002  96.426  40.630  1.00  0.00     0.133 A
HETATM   12  C14 UNL     1       6.658  95.787  39.618  1.00  0.00     0.184 A
BRANCH   9  13
HETATM   13  C6  UNL     1       8.722  94.642  42.320  1.00  0.00     0.040 A
HETATM   14  C4  UNL     1      10.095  94.421  42.354  1.00  0.00     0.036 A
HETATM   15  N2  UNL     1      10.376  93.299  43.020  1.00  0.00    -0.302 N
HETATM   16  C5  UNL     1      11.139  95.414  41.863  1.00  0.00     0.070 C
HETATM   17  N1  UNL     1       9.289  92.738  43.446  1.00  0.00    -0.296 N
ATOM     18  H2  UNL     1      11.317  92.933  43.171  1.00  0.00     0.186 HD
HETATM   19  C24 UNL     1       8.246  93.516  43.044  1.00  0.00     0.039 A
HETATM   20  C25 UNL     1       6.863  93.096  43.243  1.00  0.00     0.071 C
BRANCH  17  21
HETATM   21  C3  UNL     1       9.193  91.523  44.214  1.00  0.00     0.148 C
BRANCH  21  22
HETATM   22  C2  UNL     1       9.830  90.408  43.366  1.00  0.00     0.017 C
HETATM   23  C1  UNL     1       9.323  89.116  43.956  1.00  0.00     0.007 C
ENDBRANCH  21  22
ENDBRANCH  17  21
ENDBRANCH   9  13
BRANCH  10  24
HETATM   24  C9  UNL     1       6.553  96.938  43.025  1.00  0.00     0.168 C
HETATM   25  O1  UNL     1       7.164  97.957  43.390  1.00  0.00    -0.292 OA
BRANCH  24  26
HETATM   26  C10 UNL     1       5.525  96.448  43.979  1.00  0.00     0.053 C
HETATM   27  C11 UNL     1       6.276  96.111  45.290  1.00  0.00     0.018 C
HETATM   28  C12 UNL     1       4.617  97.647  44.288  1.00  0.00     0.018 C
ENDBRANCH  24  26
ENDBRANCH  10  24
BRANCH  11  29
HETATM   29  O2  UNL     1       4.808  97.100  40.508  1.00  0.00    -0.356 OA
ATOM     30  H2  UNL     1       3.985  96.808  40.134  1.00  0.00     0.218 HD
ENDBRANCH  11  29
BRANCH  12  31
HETATM   31  O3  UNL     1       6.283  95.685  38.267  1.00  0.00    -0.344 OA
ATOM     32  H3  UNL     1       6.022  96.380  37.675  1.00  0.00     0.219 HD
ENDBRANCH  12  31
ENDBRANCH   1   8
BRANCH   3  33
HETATM   33  C17 UNL     1       9.641  91.225  37.896  1.00  0.00    -0.002 C
HETATM   34  C18 UNL     1       8.728  90.985  36.720  1.00  0.00     0.021 C
HETATM   35  C19 UNL     1      11.063  91.027  37.455  1.00  0.00     0.021 C
HETATM   36  C20 UNL     1       9.268  90.346  39.068  1.00  0.00     0.021 C
ENDBRANCH   3  33
TORSDOF 9
ENDMDL