MODEL 3
REMARK VINA RESULT: -7.213024497      2.958      5.280
REMARK  9 active torsions:
REMARK  status: ('A' for Active; 'I' for Inactive)
REMARK    1  A    between atoms: C2_2  and  C3_3
REMARK    2  A    between atoms: C6_9  and  C7_10
REMARK    3  A    between atoms: C7_10  and  C8_12
REMARK    4  A    between atoms: C9_13  and  O3_14
REMARK    5  A    between atoms: C11_16  and  O4_17
REMARK    6  A    between atoms: C14_20  and  O5_21
REMARK    7  A    between atoms: C15_23  and  C16_24
REMARK    8  A    between atoms: C17_26  and  C18_27
REMARK    9  A    between atoms: C22_31  and  O7_32
ROOT
HETATM    1  C8  UNL     1       9.678  92.989  39.195  1.00  0.00     0.067 A
HETATM    2  C9  UNL     1      10.066  91.915  38.353  1.00  0.00     0.116 A
HETATM    3  C11 UNL     1      10.337  90.653  38.791  1.00  0.00     0.105 A
HETATM    4  C13 UNL     1      10.215  90.455  40.145  1.00  0.00     0.077 A
HETATM    5  C14 UNL     1       9.848  91.455  40.983  1.00  0.00     0.082 A
HETATM    6  C15 UNL     1       9.564  92.776  40.532  1.00  0.00     0.049 A
ENDROOT
BRANCH   6   7
HETATM    7  C16 UNL     1       9.276  93.726  41.588  1.00  0.00     0.098 A
HETATM    8  O6  UNL     1       8.151  93.511  42.306  1.00  0.00    -0.310 OA
HETATM    9  C17 UNL     1       7.966  94.385  43.216  1.00  0.00     0.095 A
HETATM   10  C22 UNL     1       9.000  95.263  43.150  1.00  0.00     0.104 A
HETATM   11  C23 UNL     1       9.841  94.821  42.093  1.00  0.00     0.009 A
HETATM   12  C24 UNL     1      11.116  95.525  41.805  1.00  0.00     0.054 C
BRANCH   9  13
HETATM   13  C18 UNL     1       6.808  94.411  44.157  1.00  0.00     0.001 C
HETATM   14  C19 UNL     1       7.221  94.660  45.570  1.00  0.00     0.021 C
HETATM   15  C20 UNL     1       6.163  93.013  44.097  1.00  0.00     0.021 C
HETATM   16  C21 UNL     1       5.750  95.371  43.723  1.00  0.00     0.021 C
ENDBRANCH   9  13
BRANCH  10  17
HETATM   17  O7  UNL     1       9.236  96.371  43.927  1.00  0.00    -0.357 OA
ATOM     18  H7  UNL     1       9.928  96.514  44.561  1.00  0.00     0.217 HD
ENDBRANCH  10  17
ENDBRANCH   6   7
BRANCH   1  19
HETATM   19  C7  UNL     1       9.372  94.218  38.490  1.00  0.00     0.200 C
HETATM   20  O2  UNL     1      10.405  94.908  38.184  1.00  0.00    -0.286 OA
BRANCH  19  21
HETATM   21  C6  UNL     1       8.080  94.714  38.100  1.00  0.00     0.071 A
HETATM   22  C3  UNL     1       7.442  95.831  38.647  1.00  0.00     0.049 A
HETATM   23  N1  UNL     1       6.266  95.998  37.994  1.00  0.00    -0.264 N
HETATM   24  O1  UNL     1       6.146  95.081  37.107  1.00  0.00    -0.242 OA
ATOM     25  H1  UNL     1       5.585  96.736  38.180  1.00  0.00     0.194 HD
HETATM   26  C4  UNL     1       7.219  94.274  37.125  1.00  0.00     0.088 A
HETATM   27  C5  UNL     1       7.389  93.117  36.208  1.00  0.00     0.080 C
BRANCH  22  28
HETATM   28  C2  UNL     1       7.980  96.686  39.727  1.00  0.00     0.056 C
HETATM   29  C1  UNL     1       6.981  97.211  40.699  1.00  0.00     0.011 C
ENDBRANCH  22  28
ENDBRANCH  19  21
ENDBRANCH   1  19
BRANCH   5  30
HETATM   30  O5  UNL     1       9.737  91.210  42.371  1.00  0.00    -0.360 OA
ATOM     31  H5  UNL     1       9.048  91.628  42.874  1.00  0.00     0.217 HD
ENDBRANCH   5  30
BRANCH   2  32
HETATM   32  O3  UNL     1      10.185  92.136  36.980  1.00  0.00    -0.352 OA
HETATM   33  C10 UNL     1      11.496  92.259  36.464  1.00  0.00     0.210 C
ENDBRANCH   2  32
BRANCH   3  34
HETATM   34  O4  UNL     1      10.704  89.681  37.886  1.00  0.00    -0.353 OA
HETATM   35  C12 UNL     1      11.660  88.707  37.974  1.00  0.00     0.210 C
ENDBRANCH   3  34
TORSDOF 9
ENDMDL