MODEL 3
REMARK VINA RESULT: -8.512930084      3.192      5.310
REMARK  10 active torsions:
REMARK  status: ('A' for Active; 'I' for Inactive)
REMARK    1  A    between atoms: C2_2  and  C3_3
REMARK    2  A    between atoms: C3_3  and  C4_4
REMARK    3  A    between atoms: C11_13  and  O3_14
REMARK    4  A    between atoms: C13_17  and  C14_18
REMARK    5  A    between atoms: C14_18  and  C15_19
REMARK    6  A    between atoms: C15_19  and  C16_20
REMARK    7  A    between atoms: C16_20  and  O4_21
REMARK    8  A    between atoms: O4_21  and  C17_22
REMARK    9  A    between atoms: C17_22  and  O6_24
REMARK   10  A    between atoms: C22_30  and  O8_31
ROOT
HETATM    1  C3  UNL     1       7.976  96.444  38.765  1.00  0.00     0.077 C
HETATM    2  C6  UNL     1       7.799  95.913  40.116  1.00  0.00     0.273 C
HETATM    3  O1  UNL     1       6.690  96.254  40.681  1.00  0.00    -0.264 OA
HETATM    4  O2  UNL     1       8.565  95.117  40.924  1.00  0.00    -0.305 OA
HETATM    5  C7  UNL     1       9.284  93.941  41.054  1.00  0.00     0.094 C
HETATM    6  C8  UNL     1      10.650  94.305  41.647  1.00  0.00     0.052 C
HETATM    7  C9  UNL     1       8.579  93.090  42.129  1.00  0.00     0.052 C
HETATM    8  C10 UNL     1       9.384  93.105  39.850  1.00  0.00     0.022 A
HETATM    9  C11 UNL     1      10.118  91.999  40.212  1.00  0.00     0.076 A
HETATM   10  C12 UNL     1      10.419  90.967  39.325  1.00  0.00     0.044 A
HETATM   11  C13 UNL     1       9.986  91.013  38.026  1.00  0.00    -0.054 A
HETATM   12  C19 UNL     1       9.252  92.111  37.653  1.00  0.00     0.022 A
HETATM   13  C20 UNL     1       8.947  93.139  38.522  1.00  0.00     0.011 A
HETATM   14  C21 UNL     1       8.191  94.058  37.721  1.00  0.00     0.097 A
HETATM   15  O7  UNL     1       7.723  93.545  36.583  1.00  0.00    -0.287 OA
HETATM   16  C22 UNL     1       7.053  94.404  35.897  1.00  0.00     0.184 A
HETATM   17  C23 UNL     1       7.054  95.597  36.606  1.00  0.00     0.075 A
HETATM   18  C24 UNL     1       7.777  95.359  37.754  1.00  0.00    -0.000 A
ENDROOT
BRANCH  11  19
HETATM   19  C14 UNL     1      10.256  89.965  37.012  1.00  0.00     0.041 C
BRANCH  19  20
HETATM   20  C15 UNL     1      11.689  89.481  37.089  1.00  0.00     0.031 C
BRANCH  20  21
HETATM   21  C16 UNL     1      11.631  88.002  37.372  1.00  0.00     0.181 C
BRANCH  21  22
HETATM   22  O4  UNL     1      12.651  87.513  38.170  1.00  0.00    -0.298 OA
BRANCH  22  23
HETATM   23  C17 UNL     1      13.719  86.806  37.683  1.00  0.00     0.406 C
HETATM   24  O5  UNL     1      14.884  87.254  37.779  1.00  0.00    -0.230 OA
BRANCH  23  25
HETATM   25  O6  UNL     1      13.527  85.559  37.065  1.00  0.00    -0.303 OA
HETATM   26  C18 UNL     1      14.348  85.238  35.962  1.00  0.00     0.215 C
ENDBRANCH  23  25
ENDBRANCH  22  23
ENDBRANCH  21  22
ENDBRANCH  20  21
ENDBRANCH  19  20
ENDBRANCH  11  19
BRANCH   9  27
HETATM   27  O3  UNL     1      10.609  91.839  41.491  1.00  0.00    -0.360 OA
ATOM     28  H3  UNL     1      10.462  91.043  41.988  1.00  0.00     0.217 HD
ENDBRANCH   9  27
BRANCH  16  29
HETATM   29  O8  UNL     1       6.448  94.155  34.670  1.00  0.00    -0.341 OA
ATOM     30  H8  UNL     1       5.812  94.720  34.248  1.00  0.00     0.220 HD
ENDBRANCH  16  29
BRANCH   1  31
HETATM   31  C2  UNL     1       9.161  97.300  38.518  1.00  0.00     0.020 C
HETATM   32  C1  UNL     1      10.505  96.679  38.593  1.00  0.00     0.006 C
ENDBRANCH   1  31
BRANCH   1  33
HETATM   33  C4  UNL     1       6.762  97.396  38.573  1.00  0.00     0.020 C
HETATM   34  C5  UNL     1       7.208  98.831  38.513  1.00  0.00     0.006 C
ENDBRANCH   1  33
TORSDOF 10
ENDMDL