MODEL 3
REMARK VINA RESULT: -8.193694644      2.739      6.727
REMARK  9 active torsions:
REMARK  status: ('A' for Active; 'I' for Inactive)
REMARK    1  A    between atoms: C2_2  and  O1_3
REMARK    2  A    between atoms: O1_3  and  C3_4
REMARK    3  A    between atoms: C3_4  and  C4_6
REMARK    4  A    between atoms: C5_7  and  O3_8
REMARK    5  A    between atoms: C11_15  and  O4_16
REMARK    6  A    between atoms: C12_18  and  N1_19
REMARK    7  A    between atoms: N1_19  and  C13_21
REMARK    8  A    between atoms: C18_26  and  O5_27
REMARK    9  A    between atoms: O5_27  and  C19_28
ROOT
HETATM    1  C4  UNL     1      13.138  88.455  40.956  1.00  0.00     0.148 A
HETATM    2  C5  UNL     1      13.074  87.989  39.675  1.00  0.00     0.101 A
HETATM    3  C6  UNL     1      12.106  88.459  38.788  1.00  0.00     0.041 A
HETATM    4  C7  UNL     1      12.059  87.972  37.490  1.00  0.00    -0.037 A
HETATM    5  C8  UNL     1      12.988  86.962  36.974  1.00  0.00     0.050 C
HETATM    6  C9  UNL     1      11.034  88.530  36.699  1.00  0.00    -0.019 A
HETATM    7  C10 UNL     1      10.995  87.997  35.301  1.00  0.00     0.052 C
HETATM    8  C11 UNL     1      10.154  89.464  37.137  1.00  0.00     0.101 A
HETATM    9  C12 UNL     1      10.249  89.912  38.438  1.00  0.00     0.102 A
HETATM   10  C22 UNL     1      11.226  89.403  39.253  1.00  0.00     0.122 A
HETATM   11  O6  UNL     1      11.299  89.853  40.512  1.00  0.00    -0.271 OA
HETATM   12  C23 UNL     1      12.196  89.418  41.339  1.00  0.00     0.307 A
HETATM   13  O7  UNL     1      12.228  89.871  42.517  1.00  0.00    -0.259 OA
ENDROOT
BRANCH   9  14
HETATM   14  N1  UNL     1       9.318  90.890  38.882  1.00  0.00    -0.350 N
ATOM     15  H1  UNL     1       8.390  90.594  39.185  1.00  0.00     0.166 HD
BRANCH  14  16
HETATM   16  C13 UNL     1       9.650  92.269  38.914  1.00  0.00     0.057 A
HETATM   17  C14 UNL     1      10.032  92.926  37.781  1.00  0.00     0.032 A
HETATM   18  C15 UNL     1      10.352  94.275  37.832  1.00  0.00     0.012 A
HETATM   19  C16 UNL     1      10.297  94.986  39.011  1.00  0.00    -0.027 A
HETATM   20  C17 UNL     1      10.650  96.415  38.991  1.00  0.00     0.051 C
HETATM   21  C18 UNL     1       9.907  94.317  40.168  1.00  0.00     0.098 A
HETATM   22  C21 UNL     1       9.589  92.960  40.096  1.00  0.00     0.094 A
HETATM   23 CL1  UNL     1       9.109  92.176  41.576  1.00  0.00    -0.079 Cl
BRANCH  21  24
HETATM   24  O5  UNL     1       9.860  95.045  41.327  1.00  0.00    -0.349 OA
BRANCH  24  25
HETATM   25  C19 UNL     1      10.975  95.061  42.230  1.00  0.00     0.171 C
HETATM   26  C20 UNL     1      10.493  95.168  43.655  1.00  0.00     0.034 C
ENDBRANCH  24  25
ENDBRANCH  21  24
ENDBRANCH  14  16
ENDBRANCH   9  14
BRANCH   8  27
HETATM   27  O4  UNL     1       9.144  89.993  36.310  1.00  0.00    -0.358 OA
ATOM     28  H4  UNL     1       9.330  90.359  35.453  1.00  0.00     0.217 HD
ENDBRANCH   8  27
BRANCH   2  29
HETATM   29  O3  UNL     1      13.929  87.066  39.207  1.00  0.00    -0.358 OA
ATOM     30  H3  UNL     1      13.994  86.199  39.590  1.00  0.00     0.217 HD
ENDBRANCH   2  29
BRANCH   1  31
HETATM   31  C3  UNL     1      14.099  88.030  41.941  1.00  0.00     0.302 C
HETATM   32  O2  UNL     1      15.358  87.999  41.641  1.00  0.00    -0.259 OA
BRANCH  31  33
HETATM   33  O1  UNL     1      13.852  87.626  43.233  1.00  0.00    -0.318 OA
BRANCH  33  34
HETATM   34  C2  UNL     1      14.784  87.659  44.278  1.00  0.00     0.174 C
HETATM   35  C1  UNL     1      14.132  87.662  45.645  1.00  0.00     0.034 C
ENDBRANCH  33  34
ENDBRANCH  31  33
ENDBRANCH   1  31
TORSDOF 9
ENDMDL