MODEL 5
REMARK VINA RESULT: -7.813597522      4.669      8.980
REMARK  9 active torsions:
REMARK  status: ('A' for Active; 'I' for Inactive)
REMARK    1  A    between atoms: O1_2  and  C2_3
REMARK    2  A    between atoms: C4_5  and  C5_6
REMARK    3  A    between atoms: C11_13  and  O3_14
REMARK    4  A    between atoms: C12_16  and  C13_17
REMARK    5  A    between atoms: C15_19  and  C16_20
REMARK    6  A    between atoms: C20_24  and  O4_25
REMARK    7  A    between atoms: C22_29  and  N1_30
REMARK    8  A    between atoms: N1_30  and  C23_32
REMARK    9  A    between atoms: C24_34  and  O7_35
ROOT
HETATM    1  C5  UNL     1      13.554  89.410  40.432  1.00  0.00     0.169 C
HETATM    2  C6  UNL     1      14.760  88.891  41.123  1.00  0.00     0.121 C
HETATM    3  C7  UNL     1      14.446  87.789  42.073  1.00  0.00     0.167 C
HETATM    4  O2  UNL     1      15.003  86.688  42.094  1.00  0.00    -0.292 OA
HETATM    5  C8  UNL     1      13.373  88.073  43.053  1.00  0.00     0.077 A
HETATM    6  C9  UNL     1      12.408  88.940  42.591  1.00  0.00     0.089 A
HETATM    7  C10 UNL     1      11.378  89.250  43.441  1.00  0.00     0.075 A
HETATM    8  C11 UNL     1      11.352  88.678  44.723  1.00  0.00     0.082 A
HETATM    9  C12 UNL     1      12.292  87.832  45.193  1.00  0.00     0.037 A
HETATM   10  C20 UNL     1      13.361  87.516  44.294  1.00  0.00     0.095 A
HETATM   11  O5  UNL     1      12.486  89.464  41.334  1.00  0.00    -0.340 OA
ENDROOT
BRANCH   1  12
HETATM   12  C4  UNL     1      13.111  88.674  39.246  1.00  0.00    -0.024 A
HETATM   13  C3  UNL     1      12.147  89.318  38.459  1.00  0.00     0.049 A
HETATM   14  C2  UNL     1      11.657  88.716  37.320  1.00  0.00     0.104 A
HETATM   15  C24 UNL     1      12.148  87.471  36.991  1.00  0.00     0.128 A
HETATM   16  C22 UNL     1      13.097  86.843  37.771  1.00  0.00     0.071 A
HETATM   17  C21 UNL     1      13.602  87.430  38.919  1.00  0.00     0.042 A
BRANCH  14  18
HETATM   18  O1  UNL     1      10.705  89.280  36.483  1.00  0.00    -0.353 OA
HETATM   19  C1  UNL     1      10.800  90.683  36.225  1.00  0.00     0.210 C
ENDBRANCH  14  18
BRANCH  15  20
HETATM   20  O7  UNL     1      11.678  86.832  35.850  1.00  0.00    -0.351 OA
HETATM   21  C25 UNL     1      10.384  86.256  35.912  1.00  0.00     0.210 C
ENDBRANCH  15  20
BRANCH  16  22
HETATM   22  N1  UNL     1      13.610  85.555  37.438  1.00  0.00    -0.332 N
ATOM     23  H1  UNL     1      13.350  84.723  37.970  1.00  0.00     0.168 HD
BRANCH  22  24
HETATM   24  C23 UNL     1      14.405  85.490  36.451  1.00  0.00     0.353 C
HETATM   25  O6  UNL     1      15.193  85.206  35.514  1.00  0.00    -0.283 OA
ENDBRANCH  22  24
ENDBRANCH  16  22
ENDBRANCH   1  12
BRANCH  10  26
HETATM   26  O4  UNL     1      14.327  86.673  44.720  1.00  0.00    -0.359 OA
ATOM     27  H4  UNL     1      14.423  86.427  45.633  1.00  0.00     0.217 HD
ENDBRANCH  10  26
BRANCH   8  28
HETATM   28  O3  UNL     1      10.247  89.054  45.482  1.00  0.00    -0.360 OA
ATOM     29  H3  UNL     1       9.983  88.403  46.121  1.00  0.00     0.217 HD
ENDBRANCH   8  28
BRANCH   9  30
HETATM   30  C13 UNL     1      12.395  87.330  46.535  1.00  0.00    -0.046 C
HETATM   31  C14 UNL     1      11.679  85.960  46.759  1.00  0.00     0.049 C
HETATM   32  C15 UNL     1      12.936  87.785  47.601  1.00  0.00     0.008 C
BRANCH  32  33
HETATM   33  C16 UNL     1      13.668  88.999  47.815  1.00  0.00     0.002 C
HETATM   34  C17 UNL     1      14.994  88.950  48.111  1.00  0.00    -0.088 C
HETATM   35  C18 UNL     1      15.775  90.191  48.337  1.00  0.00     0.043 C
HETATM   36  C19 UNL     1      15.603  87.601  48.193  1.00  0.00     0.043 C
ENDBRANCH  32  33
ENDBRANCH   9  30
TORSDOF 9
ENDMDL