MODEL 5
REMARK VINA RESULT: -8.366409349      1.754      2.775
REMARK  9 active torsions:
REMARK  status: ('A' for Active; 'I' for Inactive)
REMARK    1  A    between atoms: O1_2  and  C2_3
REMARK    2  A    between atoms: C6_7  and  O2_8
REMARK    3  A    between atoms: C8_11  and  O3_12
REMARK    4  A    between atoms: C11_15  and  O4_16
REMARK    5  A    between atoms: O4_16  and  C12_17
REMARK    6  A    between atoms: C12_17  and  C13_19
REMARK    7  A    between atoms: C19_26  and  O6_27
REMARK    8  A    between atoms: C21_29  and  C22_30
REMARK    9  A    between atoms: C22_30  and  C23_31
ROOT
HETATM    1  C2  UNL     1      13.122  88.699  40.601  1.00  0.00     0.078 A
HETATM    2  C3  UNL     1      13.664  87.773  39.751  1.00  0.00     0.050 A
HETATM    3  C4  UNL     1      13.092  87.487  38.527  1.00  0.00    -0.015 A
HETATM    4  C5  UNL     1      13.663  86.533  37.692  1.00  0.00     0.049 A
HETATM    5  C6  UNL     1      13.108  86.221  36.472  1.00  0.00     0.069 A
HETATM    6  C7  UNL     1      11.968  86.862  36.067  1.00  0.00     0.074 A
HETATM    7  C8  UNL     1      11.401  87.821  36.913  1.00  0.00     0.084 A
HETATM    8  C10 UNL     1      11.945  88.144  38.134  1.00  0.00     0.042 A
HETATM    9  C11 UNL     1      11.370  89.097  38.983  1.00  0.00     0.102 A
HETATM   10  C21 UNL     1      11.958  89.363  40.198  1.00  0.00     0.014 A
ENDROOT
BRANCH   9  11
HETATM   11  O4  UNL     1      10.218  89.762  38.587  1.00  0.00    -0.273 OA
BRANCH  11  12
HETATM   12  C12 UNL     1      10.321  90.976  37.956  1.00  0.00     0.301 C
HETATM   13  O5  UNL     1      11.506  91.389  37.684  1.00  0.00    -0.259 OA
BRANCH  12  14
HETATM   14  C13 UNL     1       9.244  91.836  37.564  1.00  0.00     0.073 A
HETATM   15  C14 UNL     1       8.803  91.917  36.251  1.00  0.00     0.022 A
HETATM   16  C15 UNL     1       7.761  92.726  35.852  1.00  0.00     0.028 A
HETATM   17  C16 UNL     1       7.123  93.500  36.819  1.00  0.00     0.055 A
HETATM   18  N1  UNL     1       6.055  94.342  36.457  1.00  0.00    -0.102 NA
HETATM   19  C17 UNL     1       7.533  93.447  38.126  1.00  0.00    -0.003 A
HETATM   20  C18 UNL     1       6.880  94.256  39.185  1.00  0.00     0.053 C
HETATM   21  C19 UNL     1       8.590  92.613  38.478  1.00  0.00     0.092 A
BRANCH  21  22
HETATM   22  O6  UNL     1       8.965  92.596  39.801  1.00  0.00    -0.354 OA
HETATM   23  C20 UNL     1       9.863  93.536  40.377  1.00  0.00     0.210 C
ENDBRANCH  21  22
ENDBRANCH  12  14
ENDBRANCH  11  12
ENDBRANCH   9  11
BRANCH  10  24
HETATM   24  C22 UNL     1      11.411  90.321  41.195  1.00  0.00     0.072 C
BRANCH  24  25
HETATM   25  C23 UNL     1      10.529  89.677  42.187  1.00  0.00    -0.020 C
HETATM   26  C24 UNL     1      10.029  90.160  43.285  1.00  0.00    -0.091 C
HETATM   27  C25 UNL     1       9.154  89.341  44.163  1.00  0.00     0.042 C
HETATM   28  C26 UNL     1      10.276  91.554  43.701  1.00  0.00     0.042 C
ENDBRANCH  24  25
ENDBRANCH  10  24
BRANCH   7  29
HETATM   29  O3  UNL     1      10.266  88.421  36.455  1.00  0.00    -0.355 OA
HETATM   30  C9  UNL     1       9.887  88.409  35.110  1.00  0.00     0.210 C
ENDBRANCH   7  29
BRANCH   1  31
HETATM   31  O1  UNL     1      13.710  88.984  41.846  1.00  0.00    -0.355 OA
HETATM   32  C1  UNL     1      14.166  87.963  42.694  1.00  0.00     0.210 C
ENDBRANCH   1  31
BRANCH   5  33
HETATM   33  O2  UNL     1      13.665  85.267  35.621  1.00  0.00    -0.361 OA
ATOM     34  H2  UNL     1      14.593  85.249  35.415  1.00  0.00     0.217 HD
ENDBRANCH   5  33
TORSDOF 9
ENDMDL