MODEL 4
REMARK VINA RESULT: -7.706456292      3.222      5.249
REMARK  8 active torsions:
REMARK  status: ('A' for Active; 'I' for Inactive)
REMARK    1  A    between atoms: O1_2  and  C2_3
REMARK    2  A    between atoms: C5_6  and  O2_7
REMARK    3  A    between atoms: O2_7  and  C6_8
REMARK    4  A    between atoms: C7_9  and  O3_10
REMARK    5  A    between atoms: C8_12  and  C9_13
REMARK    6  A    between atoms: C9_13  and  C10_14
REMARK    7  A    between atoms: C14_18  and  O4_19
REMARK    8  A    between atoms: C24_33  and  O7_34
ROOT
HETATM    1  C6  UNL     1      10.541  90.438  41.021  1.00  0.00     0.131 A
HETATM    2  C7  UNL     1      11.495  89.999  40.072  1.00  0.00     0.110 A
HETATM    3  C8  UNL     1      12.538  89.206  40.465  1.00  0.00     0.015 A
HETATM    4  C14 UNL     1      12.696  88.811  41.791  1.00  0.00     0.082 A
HETATM    5  C15 UNL     1      11.759  89.248  42.704  1.00  0.00    -0.005 A
HETATM    6  C16 UNL     1      11.854  88.870  44.154  1.00  0.00     0.053 C
HETATM    7  C17 UNL     1      10.700  90.048  42.317  1.00  0.00     0.089 A
HETATM    8  C18 UNL     1       9.717  90.462  43.292  1.00  0.00     0.103 C
HETATM    9  N1  UNL     1       8.959  90.793  44.069  1.00  0.00    -0.191 NA
ENDROOT
BRANCH   1  10
HETATM   10  O2  UNL     1       9.554  91.210  40.509  1.00  0.00    -0.305 OA
BRANCH  10  11
HETATM   11  C5  UNL     1       9.500  92.423  39.938  1.00  0.00     0.102 A
HETATM   12  C3  UNL     1      10.006  93.565  40.513  1.00  0.00     0.009 A
HETATM   13  C2  UNL     1       9.899  94.757  39.854  1.00  0.00     0.113 A
HETATM   14  C4  UNL     1      10.691  93.568  41.830  1.00  0.00     0.054 C
HETATM   15  C24 UNL     1       9.300  94.868  38.627  1.00  0.00     0.137 A
HETATM   16  C23 UNL     1       8.781  93.728  38.029  1.00  0.00     0.128 A
HETATM   17  C19 UNL     1       8.886  92.525  38.688  1.00  0.00     0.085 A
HETATM   18  O6  UNL     1       8.192  93.838  36.835  1.00  0.00    -0.319 OA
HETATM   19  C20 UNL     1       8.329  91.435  38.027  1.00  0.00     0.189 A
HETATM   20  O5  UNL     1       8.370  90.303  38.556  1.00  0.00    -0.287 OA
HETATM   21  C21 UNL     1       7.721  91.539  36.800  1.00  0.00     0.080 A
HETATM   22  C22 UNL     1       7.680  92.791  36.236  1.00  0.00     0.146 A
BRANCH  13  23
HETATM   23  O1  UNL     1      10.404  95.955  40.403  1.00  0.00    -0.352 OA
HETATM   24  C1  UNL     1      11.503  96.556  39.743  1.00  0.00     0.210 C
ENDBRANCH  13  23
BRANCH  15  25
HETATM   25  O7  UNL     1       9.179  96.065  37.934  1.00  0.00    -0.351 OA
HETATM   26  C25 UNL     1       8.121  96.981  38.127  1.00  0.00     0.210 C
ENDBRANCH  15  25
ENDBRANCH  10  11
ENDBRANCH   1  10
BRANCH   2  27
HETATM   27  O3  UNL     1      11.388  90.368  38.732  1.00  0.00    -0.357 OA
ATOM     28  H3  UNL     1      10.676  90.042  38.194  1.00  0.00     0.217 HD
ENDBRANCH   2  27
BRANCH   4  29
HETATM   29  O4  UNL     1      13.713  88.025  42.250  1.00  0.00    -0.359 OA
ATOM     30  H4  UNL     1      13.903  87.870  43.168  1.00  0.00     0.217 HD
ENDBRANCH   4  29
BRANCH   3  31
HETATM   31  C9  UNL     1      13.578  88.711  39.520  1.00  0.00     0.072 C
BRANCH  31  32
HETATM   32  C10 UNL     1      13.142  87.544  38.724  1.00  0.00    -0.020 C
HETATM   33  C11 UNL     1      13.829  86.937  37.782  1.00  0.00    -0.091 C
HETATM   34  C12 UNL     1      13.262  85.775  37.069  1.00  0.00     0.042 C
HETATM   35  C13 UNL     1      15.170  87.429  37.407  1.00  0.00     0.042 C
ENDBRANCH  31  32
ENDBRANCH   3  31
TORSDOF 8
ENDMDL