MODEL 5
REMARK VINA RESULT: -7.889566141      1.446      1.754
REMARK  10 active torsions:
REMARK  status: ('A' for Active; 'I' for Inactive)
REMARK    1  A    between atoms: C2_2  and  C3_3
REMARK    2  A    between atoms: C3_3  and  O2_5
REMARK    3  A    between atoms: O2_5  and  C4_6
REMARK    4  A    between atoms: C6_8  and  C7_9
REMARK    5  A    between atoms: C7_9  and  C8_10
REMARK    6  A    between atoms: C12_14  and  O3_15
REMARK    7  A    between atoms: C18_24  and  O6_25
REMARK    8  A    between atoms: C20_28  and  C21_29
REMARK    9  A    between atoms: C21_29  and  O7_31
REMARK   10  A    between atoms: O7_31  and  C23_32
ROOT
HETATM    1  C4  UNL     1      10.029  91.592  41.168  1.00  0.00     0.114 A
HETATM    2  C5  UNL     1      10.487  90.759  40.208  1.00  0.00     0.050 A
HETATM    3  C6  UNL     1       9.902  90.774  38.962  1.00  0.00    -0.018 A
HETATM    4  C12 UNL     1       8.865  91.643  38.716  1.00  0.00     0.082 A
HETATM    5  C13 UNL     1       8.376  92.517  39.684  1.00  0.00     0.024 A
HETATM    6  C14 UNL     1       8.965  92.469  40.895  1.00  0.00     0.120 A
HETATM    7  O4  UNL     1       8.565  93.246  41.975  1.00  0.00    -0.304 OA
HETATM    8  C15 UNL     1       7.489  94.093  41.749  1.00  0.00     0.117 A
HETATM    9  C16 UNL     1       6.811  94.950  42.639  1.00  0.00     0.086 A
HETATM   10  C17 UNL     1       7.245  95.101  44.058  1.00  0.00     0.079 C
HETATM   11  O5  UNL     1       5.838  95.506  42.005  1.00  0.00    -0.289 OA
HETATM   12  C18 UNL     1       5.795  95.104  40.752  1.00  0.00     0.193 A
HETATM   13  C19 UNL     1       6.840  94.213  40.551  1.00  0.00     0.048 A
HETATM   14  C20 UNL     1       7.411  93.569  39.338  1.00  0.00     0.094 C
ENDROOT
BRANCH  14  15
HETATM   15  C21 UNL     1       8.088  94.545  38.401  1.00  0.00     0.141 C
HETATM   16  C22 UNL     1       7.212  94.989  37.295  1.00  0.00     0.041 C
BRANCH  15  17
HETATM   17  O7  UNL     1       8.521  95.707  39.084  1.00  0.00    -0.316 OA
BRANCH  17  18
HETATM   18  C23 UNL     1       9.830  96.021  39.276  1.00  0.00     0.255 C
HETATM   19  C24 UNL     1      10.548  96.985  38.371  1.00  0.00     0.126 C
HETATM   20  O8  UNL     1      10.476  95.523  40.206  1.00  0.00    -0.266 OA
ENDBRANCH  17  18
ENDBRANCH  15  17
ENDBRANCH  14  15
BRANCH   4  21
HETATM   21  O3  UNL     1       8.290  91.648  37.492  1.00  0.00    -0.359 OA
ATOM     22  H3  UNL     1       7.757  92.392  37.238  1.00  0.00     0.217 HD
ENDBRANCH   4  21
BRANCH  12  23
HETATM   23  O6  UNL     1       4.849  95.510  39.820  1.00  0.00    -0.340 OA
ATOM     24  H6  UNL     1       4.762  96.395  39.483  1.00  0.00     0.220 HD
ENDBRANCH  12  23
BRANCH   3  25
HETATM   25  C7  UNL     1      10.414  89.864  37.906  1.00  0.00     0.068 C
BRANCH  25  26
HETATM   26  C8  UNL     1      11.664  89.159  38.303  1.00  0.00    -0.020 C
HETATM   27  C9  UNL     1      12.008  88.002  37.727  1.00  0.00    -0.091 C
HETATM   28  C10 UNL     1      13.257  87.328  38.143  1.00  0.00     0.042 C
HETATM   29  C11 UNL     1      11.169  87.373  36.676  1.00  0.00     0.042 C
ENDBRANCH  25  26
ENDBRANCH   3  25
BRANCH   1  30
HETATM   30  O2  UNL     1      10.623  91.571  42.426  1.00  0.00    -0.276 OA
BRANCH  30  31
HETATM   31  C3  UNL     1      10.410  90.456  43.213  1.00  0.00     0.263 C
HETATM   32  O1  UNL     1      11.243  89.531  43.217  1.00  0.00    -0.265 OA
BRANCH  31  33
HETATM   33  C2  UNL     1       9.194  90.365  44.050  1.00  0.00     0.107 C
HETATM   34  C1  UNL     1       8.882  88.919  44.338  1.00  0.00     0.015 C
ENDBRANCH  31  33
ENDBRANCH  30  31
ENDBRANCH   1  30
TORSDOF 10
ENDMDL