MODEL 2
REMARK VINA RESULT: -8.204377738      1.320      1.846
REMARK  8 active torsions:
REMARK  status: ('A' for Active; 'I' for Inactive)
REMARK    1  A    between atoms: O1_2  and  C2_3
REMARK    2  A    between atoms: C4_5  and  C5_6
REMARK    3  A    between atoms: N1_7  and  C6_9
REMARK    4  A    between atoms: C9_12  and  O2_13
REMARK    5  A    between atoms: C11_17  and  O4_18
REMARK    6  A    between atoms: C19_27  and  O5_28
REMARK    7  A    between atoms: C21_30  and  O6_31
REMARK    8  A    between atoms: C23_33  and  O7_34
ROOT
HETATM    1  C6  UNL     1       8.604  93.452  38.984  1.00  0.00     0.052 A
HETATM    2  C7  UNL     1       8.389  94.110  40.175  1.00  0.00    -0.017 A
HETATM    3  C8  UNL     1       7.449  95.112  40.273  1.00  0.00    -0.009 A
HETATM    4  C9  UNL     1       6.730  95.425  39.117  1.00  0.00     0.107 A
HETATM    5  C10 UNL     1       6.941  94.769  37.921  1.00  0.00     0.124 A
HETATM    6  O3  UNL     1       6.365  94.928  36.739  1.00  0.00    -0.284 OA
HETATM    7  C11 UNL     1       6.871  94.089  35.870  1.00  0.00     0.184 A
HETATM    8  C12 UNL     1       7.844  93.333  36.533  1.00  0.00     0.080 A
HETATM    9  C13 UNL     1       7.882  93.775  37.842  1.00  0.00     0.033 A
HETATM   10  C14 UNL     1       7.462  95.603  41.648  1.00  0.00     0.019 C
HETATM   11  C15 UNL     1       7.319  97.090  41.811  1.00  0.00     0.015 C
HETATM   12  C16 UNL     1       8.835  95.233  42.156  1.00  0.00     0.018 C
HETATM   13  C17 UNL     1       9.066  93.897  41.496  1.00  0.00     0.018 C
HETATM   14  C18 UNL     1       8.410  92.830  42.310  1.00  0.00     0.015 C
ENDROOT
BRANCH   1  15
HETATM   15  N1  UNL     1       9.561  92.432  38.883  1.00  0.00    -0.364 N
HETATM   16  C5  UNL     1       9.312  91.221  39.232  1.00  0.00     0.102 C
ATOM     17  H1  UNL     1      10.487  92.660  38.519  1.00  0.00     0.165 HD
BRANCH  16  18
HETATM   18  C4  UNL     1      10.348  90.206  39.104  1.00  0.00     0.018 A
HETATM   19  C3  UNL     1      11.198  89.914  40.165  1.00  0.00     0.055 A
HETATM   20  C2  UNL     1      12.174  88.929  39.986  1.00  0.00     0.105 A
HETATM   21  C23 UNL     1      12.269  88.278  38.773  1.00  0.00     0.138 A
HETATM   22  C21 UNL     1      11.417  88.568  37.703  1.00  0.00     0.138 A
HETATM   23  C19 UNL     1      10.460  89.542  37.899  1.00  0.00     0.116 A
BRANCH  20  24
HETATM   24  O1  UNL     1      13.032  88.612  41.008  1.00  0.00    -0.353 OA
HETATM   25  C1  UNL     1      12.644  88.841  42.348  1.00  0.00     0.210 C
ENDBRANCH  20  24
BRANCH  21  26
HETATM   26  O7  UNL     1      13.261  87.305  38.651  1.00  0.00    -0.351 OA
HETATM   27  C24 UNL     1      14.463  87.659  38.004  1.00  0.00     0.210 C
ENDBRANCH  21  26
BRANCH  22  28
HETATM   28  O6  UNL     1      11.533  87.904  36.507  1.00  0.00    -0.351 OA
HETATM   29  C22 UNL     1      10.787  86.757  36.164  1.00  0.00     0.210 C
ENDBRANCH  22  28
BRANCH  23  30
HETATM   30  O5  UNL     1       9.605  89.854  36.872  1.00  0.00    -0.352 OA
HETATM   31  C20 UNL     1       9.913  90.613  35.743  1.00  0.00     0.210 C
ENDBRANCH  23  30
ENDBRANCH  16  18
ENDBRANCH   1  15
BRANCH   4  32
HETATM   32  O2  UNL     1       5.781  96.408  39.148  1.00  0.00    -0.357 OA
ATOM     33  H2  UNL     1       5.518  96.788  39.979  1.00  0.00     0.217 HD
ENDBRANCH   4  32
BRANCH   7  34
HETATM   34  O4  UNL     1       6.495  93.985  34.536  1.00  0.00    -0.341 OA
ATOM     35  H4  UNL     1       6.934  94.404  33.805  1.00  0.00     0.220 HD
ENDBRANCH   7  34
TORSDOF 8
ENDMDL