MODEL 4
REMARK VINA RESULT: -9.949786677      2.620      3.972
REMARK  10 active torsions:
REMARK  status: ('A' for Active; 'I' for Inactive)
REMARK    1  A    between atoms: C5_5  and  C6_6
REMARK    2  A    between atoms: C6_6  and  C7_7
REMARK       I    between atoms: C7_7  and  N1_9
REMARK    3  A    between atoms: N1_9  and  C8_11
REMARK    4  A    between atoms: C8_11  and  C9_12
REMARK       I    between atoms: C9_12  and  N2_14
REMARK    5  A    between atoms: N2_14  and  C10_15
REMARK    6  A    between atoms: C10_15  and  C11_16
REMARK    7  A    between atoms: C14_19  and  C15_20
REMARK    8  A    between atoms: C15_20  and  N3_21
REMARK    9  A    between atoms: N3_21  and  C16_23
REMARK   10  A    between atoms: C16_23  and  C21_35
ROOT
HETATM    1  C11 UNL     1       6.858  18.767  -1.894  1.00  0.00    -0.007 A
HETATM    2  C12 UNL     1       5.949  19.566  -2.583  1.00  0.00     0.014 A
HETATM    3  C13 UNL     1       4.912  19.014  -3.288  1.00  0.00     0.010 A
HETATM    4  C14 UNL     1       4.747  17.639  -3.330  1.00  0.00    -0.041 A
HETATM    5  C27 UNL     1       5.628  16.847  -2.665  1.00  0.00     0.010 A
HETATM    6  C28 UNL     1       6.691  17.416  -1.943  1.00  0.00     0.014 A
ENDROOT
BRANCH   4   7
HETATM    7  C15 UNL     1       3.572  17.123  -4.062  1.00  0.00     0.158 C
BRANCH   7   8
HETATM    8  N3  UNL     1       2.584  16.496  -3.272  1.00  0.00    -0.384 N
ATOM      9  H3  UNL     1       1.916  17.101  -2.794  1.00  0.00     0.160 HD
BRANCH   8  10
HETATM   10  C16 UNL     1       2.441  15.103  -3.088  1.00  0.00     0.060 C
HETATM   11  C17 UNL     1       2.446  14.468  -1.917  1.00  0.00     0.127 A
HETATM   12  C18 UNL     1       2.261  13.021  -1.839  1.00  0.00     0.267 A
HETATM   13  C20 UNL     1       2.783  15.131  -0.655  1.00  0.00     0.267 A
HETATM   14  O3  UNL     1       1.962  12.291  -2.830  1.00  0.00    -0.267 OA
HETATM   15  N4  UNL     1       2.397  12.287  -0.606  1.00  0.00    -0.275 N
HETATM   16  C19 UNL     1       2.719  12.957   0.587  1.00  0.00     0.329 A
ATOM     17  H4  UNL     1       2.258  11.276  -0.599  1.00  0.00     0.173 HD
HETATM   18  O4  UNL     1       2.837  12.315   1.676  1.00  0.00    -0.246 OA
HETATM   19  N5  UNL     1       2.906  14.348   0.557  1.00  0.00    -0.275 N
ATOM     20  H5  UNL     1       3.140  14.828   1.427  1.00  0.00     0.173 HD
HETATM   21  O5  UNL     1       2.975  16.357  -0.579  1.00  0.00    -0.267 OA
BRANCH  10  22
HETATM   22  C21 UNL     1       2.575  14.315  -4.329  1.00  0.00    -0.009 A
HETATM   23  C22 UNL     1       1.445  14.137  -5.121  1.00  0.00     0.014 A
HETATM   24  C23 UNL     1       1.505  13.419  -6.266  1.00  0.00     0.001 A
HETATM   25  C24 UNL     1       2.683  12.833  -6.695  1.00  0.00     0.000 A
HETATM   26  C25 UNL     1       3.781  13.015  -5.914  1.00  0.00     0.001 A
HETATM   27  C26 UNL     1       3.721  13.756  -4.737  1.00  0.00     0.014 A
ENDBRANCH  10  22
ENDBRANCH   8  10
ENDBRANCH   7   8
ENDBRANCH   4   7
BRANCH   1  28
HETATM   28  C10 UNL     1       7.927  19.408  -1.073  1.00  0.00     0.197 C
BRANCH  28  29
HETATM   29  N2  UNL     1       8.704  18.632  -0.308  1.00  0.00    -0.381 NA
HETATM   30  C9  UNL     1       9.519  17.822   0.491  1.00  0.00     0.308 C
HETATM   31  O2  UNL     1      10.610  18.142   0.991  1.00  0.00    -0.255 OA
BRANCH  30  32
HETATM   32  C8  UNL     1       9.011  16.411   0.760  1.00  0.00     0.242 C
BRANCH  32  33
HETATM   33  N1  UNL     1       9.936  15.397   0.357  1.00  0.00    -0.348 N
HETATM   34  C7  UNL     1       9.504  14.400  -0.576  1.00  0.00     0.243 C
HETATM   35  O1  UNL     1       8.365  14.389  -1.057  1.00  0.00    -0.269 OA
ATOM     36  H1  UNL     1      10.886  15.384   0.727  1.00  0.00     0.163 HD
BRANCH  34  37
HETATM   37  C6  UNL     1      10.466  13.386  -0.948  1.00  0.00     0.103 C
BRANCH  37  38
HETATM   38  C5  UNL     1      10.359  12.092  -0.655  1.00  0.00     0.037 A
HETATM   39  C4  UNL     1      11.162  11.047  -1.024  1.00  0.00     0.032 A
HETATM   40  C3  UNL     1      10.623   9.902  -0.445  1.00  0.00     0.031 A
HETATM   41  C2  UNL     1       9.505  10.242   0.268  1.00  0.00     0.023 A
HETATM   42  C1  UNL     1       8.740   9.392   0.952  1.00  0.00     0.043 C
HETATM   43  N6  UNL     1       9.372  11.560   0.124  1.00  0.00    -0.357 N
ATOM     44  H6  UNL     1       8.621  12.106   0.545  1.00  0.00     0.166 HD
ENDBRANCH  37  38
ENDBRANCH  34  37
ENDBRANCH  32  33
ENDBRANCH  30  32
ENDBRANCH  28  29
ENDBRANCH   1  28
TORSDOF 10
ENDMDL