MODEL 4
REMARK VINA RESULT: -9.048764765      1.790      2.311
REMARK  14 active torsions:
REMARK  status: ('A' for Active; 'I' for Inactive)
REMARK    1  A    between atoms: C3_3  and  N1_4
REMARK    2  A    between atoms: C6_7  and  C7_8
REMARK       I    between atoms: C7_8  and  N2_10
REMARK    3  A    between atoms: N2_10  and  C8_12
REMARK    4  A    between atoms: C8_12  and  C9_13
REMARK    5  A    between atoms: C9_13  and  C10_14
REMARK    6  A    between atoms: C13_21  and  N5_22
REMARK    7  A    between atoms: N5_22  and  C14_24
REMARK    8  A    between atoms: C14_24  and  C15_25
REMARK    9  A    between atoms: C15_25  and  N6_26
REMARK   10  A    between atoms: C18_35  and  C19_36
REMARK   11  A    between atoms: C20_37  and  C21_38
REMARK   12  A    between atoms: N8_42  and  C25_43
REMARK   13  A    between atoms: C25_43  and  C26_44
REMARK   14  A    between atoms: C26_44  and  O3_45
ROOT
HETATM    1  C1  UNL     1       3.431  11.772  -7.419  1.00  0.00     0.014 C
HETATM    2  C2  UNL     1       2.585  12.452  -6.894  1.00  0.00    -0.097 C
HETATM    3  C3  UNL     1       1.533  13.266  -6.240  1.00  0.00     0.220 C
ENDROOT
BRANCH   3   4
HETATM    4  N1  UNL     1       2.171  14.324  -5.484  1.00  0.00    -0.354 N
HETATM    5  C4  UNL     1       2.595  15.464  -6.051  1.00  0.00     0.092 A
HETATM    6  C5  UNL     1       3.198  16.451  -5.305  1.00  0.00     0.036 A
HETATM    7  C6  UNL     1       3.360  16.240  -3.948  1.00  0.00     0.053 A
HETATM    8  C18 UNL     1       2.935  15.081  -3.347  1.00  0.00     0.049 A
HETATM    9  C28 UNL     1       2.339  14.140  -4.165  1.00  0.00     0.113 A
BRANCH   7  10
HETATM   10  C7  UNL     1       3.996  17.256  -3.093  1.00  0.00     0.253 C
HETATM   11  O1  UNL     1       3.327  18.116  -2.471  1.00  0.00    -0.268 OA
HETATM   12  N2  UNL     1       5.406  17.267  -2.968  1.00  0.00    -0.357 N
ATOM     13  H2  UNL     1       5.924  16.556  -3.484  1.00  0.00     0.162 HD
BRANCH  12  14
HETATM   14  C8  UNL     1       6.168  18.187  -2.182  1.00  0.00     0.127 C
BRANCH  14  15
HETATM   15  C9  UNL     1       6.234  17.816  -0.712  1.00  0.00     0.061 C
BRANCH  15  16
HETATM   16  C10 UNL     1       7.565  17.348  -0.289  1.00  0.00    -0.022 A
HETATM   17  C11 UNL     1       8.494  18.114   0.427  1.00  0.00     0.098 A
HETATM   18  N3  UNL     1       9.582  17.369   0.662  1.00  0.00    -0.350 N
HETATM   19  C12 UNL     1       9.425  16.151   0.142  1.00  0.00     0.137 A
ATOM     20  H3  UNL     1      10.410  17.687   1.166  1.00  0.00     0.166 HD
HETATM   21  N4  UNL     1      10.256  15.097   0.137  1.00  0.00    -0.176 N
HETATM   22  C17 UNL     1       8.179  16.123  -0.452  1.00  0.00     0.085 A
HETATM   23  C13 UNL     1       9.850  13.969  -0.473  1.00  0.00     0.682 A
ATOM     24  H4  UNL     1      11.171  15.150   0.584  1.00  0.00     0.186 HD
HETATM   25  N7  UNL     1       8.623  13.920  -1.066  1.00  0.00    -0.155 N
HETATM   26  C16 UNL     1       7.775  14.968  -1.073  1.00  0.00     0.274 A
ATOM     27  H7  UNL     1       8.336  13.055  -1.525  1.00  0.00     0.187 HD
HETATM   28  O2  UNL     1       6.642  14.901  -1.632  1.00  0.00    -0.267 OA
BRANCH  23  29
HETATM   29  N5  UNL     1      10.585  12.927  -0.517  1.00  0.00    -0.224 N
ATOM     30  H5  UNL     1      11.243  12.859  -1.294  1.00  0.00     0.177 HD
BRANCH  29  31
HETATM   31  C14 UNL     1      10.573  11.845   0.415  1.00  0.00     0.165 C
BRANCH  31  32
HETATM   32  C15 UNL     1      10.265  10.542  -0.321  1.00  0.00     0.249 C
BRANCH  32  33
HETATM   33  N6  UNL     1       9.942   9.510   0.647  1.00  0.00    -0.078 N
ATOM     34  H63 UNL     1       9.655   9.899   1.545  1.00  0.00     0.274 HD
ATOM     35  H62 UNL     1       9.075   9.023   0.416  1.00  0.00     0.274 HD
ATOM     36  H61 UNL     1      10.732   8.872   0.736  1.00  0.00     0.274 HD
ENDBRANCH  32  33
ENDBRANCH  31  32
ENDBRANCH  29  31
ENDBRANCH  23  29
ENDBRANCH  15  16
ENDBRANCH  14  15
ENDBRANCH  12  14
ENDBRANCH   7  10
BRANCH   8  37
HETATM   37  C19 UNL     1       3.109  14.873  -1.938  1.00  0.00    -0.059 C
HETATM   38  C20 UNL     1       3.259  14.671  -0.741  1.00  0.00    -0.060 C
BRANCH  38  39
HETATM   39  C21 UNL     1       3.424  14.412   0.663  1.00  0.00     0.033 A
HETATM   40  C22 UNL     1       2.439  14.715   1.591  1.00  0.00     0.023 A
HETATM   41  C23 UNL     1       2.595  14.464   2.935  1.00  0.00     0.019 A
HETATM   42  C24 UNL     1       3.760  13.895   3.392  1.00  0.00     0.090 A
HETATM   43  N8  UNL     1       4.718  13.598   2.501  1.00  0.00    -0.363 N
HETATM   44  C27 UNL     1       4.563  13.843   1.192  1.00  0.00     0.111 A
BRANCH  43  45
HETATM   45  C25 UNL     1       5.961  12.994   2.935  1.00  0.00     0.153 C
BRANCH  45  46
HETATM   46  C26 UNL     1       7.017  13.010   1.852  1.00  0.00     0.184 C
BRANCH  46  47
HETATM   47  O3  UNL     1       8.110  13.753   2.288  1.00  0.00    -0.399 OA
ATOM     48  H3  UNL     1       8.521  14.172   1.542  1.00  0.00     0.209 HD
ENDBRANCH  46  47
ENDBRANCH  45  46
ENDBRANCH  43  45
ENDBRANCH  38  39
ENDBRANCH   8  37
ENDBRANCH   3   4
TORSDOF 14
ENDMDL