MODEL 4
REMARK VINA RESULT: -7.553629413      2.394      6.926
REMARK  9 active torsions:
REMARK  status: ('A' for Active; 'I' for Inactive)
REMARK    1  A    between atoms: C3_3  and  C4_4
REMARK    2  A    between atoms: C7_13  and  C8_14
REMARK    3  A    between atoms: C8_14  and  C9_15
REMARK    4  A    between atoms: C9_15  and  C10_16
REMARK    5  A    between atoms: C10_16  and  N3_17
REMARK    6  A    between atoms: C13_26  and  C14_27
REMARK    7  A    between atoms: C14_27  and  C15_28
REMARK    8  A    between atoms: C19_35  and  C20_36
REMARK    9  A    between atoms: C20_36  and  C21_37
ROOT
HETATM    1  C4  UNL     1       1.439  15.277  -2.067  1.00  0.00     0.201 C
HETATM    2  N1  UNL     1       1.515  15.734  -0.721  1.00  0.00    -0.326 N
ATOM      3  H1  UNL     1       1.855  16.687  -0.597  1.00  0.00     0.165 HD
HETATM    4  C5  UNL     1       1.183  15.046   0.468  1.00  0.00     0.323 C
HETATM    5  O1  UNL     1       0.313  15.553   1.286  1.00  0.00    -0.247 OA
HETATM    6  N2  UNL     1       1.721  13.799   0.894  1.00  0.00    -0.278 N
ATOM      7  H2  UNL     1       1.048  13.065   1.119  1.00  0.00     0.173 HD
HETATM    8  C6  UNL     1       3.081  13.469   1.039  1.00  0.00     0.248 C
HETATM    9  O2  UNL     1       3.509  12.395   0.488  1.00  0.00    -0.271 OA
HETATM   10  C7  UNL     1       4.084  14.291   1.800  1.00  0.00     0.177 C
HETATM   11  N6  UNL     1       5.322  13.670   1.984  1.00  0.00    -0.346 N
ATOM     12  H6  UNL     1       5.587  13.465   2.947  1.00  0.00     0.163 HD
HETATM   13  C12 UNL     1       6.258  13.290   0.970  1.00  0.00     0.241 C
HETATM   14  O3  UNL     1       6.583  12.040   0.957  1.00  0.00    -0.271 OA
HETATM   15  C13 UNL     1       6.876  14.143  -0.036  1.00  0.00     0.177 C
HETATM   16  N7  UNL     1       6.116  14.080  -1.257  1.00  0.00    -0.346 N
ATOM     17  H7  UNL     1       5.797  13.141  -1.495  1.00  0.00     0.163 HD
HETATM   18  C18 UNL     1       5.735  15.041  -2.167  1.00  0.00     0.241 C
HETATM   19  O4  UNL     1       6.313  15.013  -3.321  1.00  0.00    -0.271 OA
HETATM   20  C19 UNL     1       4.745  16.146  -2.071  1.00  0.00     0.177 C
HETATM   21  N8  UNL     1       3.724  15.897  -3.111  1.00  0.00    -0.346 N
ATOM     22  H8  UNL     1       4.079  15.636  -4.032  1.00  0.00     0.163 HD
HETATM   23  C24 UNL     1       2.351  15.974  -2.993  1.00  0.00     0.245 C
HETATM   24  O5  UNL     1       1.765  16.780  -3.819  1.00  0.00    -0.271 OA
ENDROOT
BRANCH  10  25
HETATM   25  C8  UNL     1       3.478  14.878   3.035  1.00  0.00     0.036 C
BRANCH  25  26
HETATM   26  C9  UNL     1       3.813  14.257   4.330  1.00  0.00     0.022 C
BRANCH  26  27
HETATM   27  C10 UNL     1       3.381  12.890   4.652  1.00  0.00     0.122 C
BRANCH  27  28
HETATM   28  N3  UNL     1       2.120  12.785   5.364  1.00  0.00    -0.367 N
HETATM   29  C11 UNL     1       1.123  12.249   4.750  1.00  0.00     0.196 C
HETATM   30  N4  UNL     1       1.232  11.761   3.399  1.00  0.00    -0.067 NA
HETATM   31  N5  UNL     1      -0.104  12.153   5.461  1.00  0.00    -0.067 NA
ATOM     32  H3  UNL     1       2.027  13.125   6.321  1.00  0.00     0.161 HD
ENDBRANCH  27  28
ENDBRANCH  26  27
ENDBRANCH  25  26
ENDBRANCH  10  25
BRANCH  15  33
HETATM   33  C14 UNL     1       7.272  15.510   0.418  1.00  0.00     0.038 C
BRANCH  33  34
HETATM   34  C15 UNL     1       8.632  15.900  -0.188  1.00  0.00    -0.020 C
HETATM   35  C16 UNL     1       8.714  17.396  -0.385  1.00  0.00     0.009 C
HETATM   36  C17 UNL     1       9.730  15.403   0.699  1.00  0.00     0.009 C
ENDBRANCH  33  34
ENDBRANCH  15  33
BRANCH   1  37
HETATM   37  C3  UNL     1       1.566  13.809  -2.254  1.00  0.00     0.003 C
HETATM   38  C2  UNL     1       0.472  13.144  -2.599  1.00  0.00    -0.033 C
HETATM   39  C1  UNL     1       0.519  11.680  -2.804  1.00  0.00     0.036 C
ENDBRANCH   1  37
BRANCH  20  40
HETATM   40  C20 UNL     1       5.513  17.408  -2.431  1.00  0.00     0.038 C
BRANCH  40  41
HETATM   41  C21 UNL     1       4.834  18.243  -3.468  1.00  0.00    -0.020 C
HETATM   42  C22 UNL     1       4.975  19.721  -3.238  1.00  0.00     0.009 C
HETATM   43  C23 UNL     1       5.558  17.940  -4.790  1.00  0.00     0.009 C
ENDBRANCH  40  41
ENDBRANCH  20  40
TORSDOF 9
ENDMDL