MODEL 3
REMARK VINA RESULT: -7.920499276      2.459      6.452
REMARK  11 active torsions:
REMARK  status: ('A' for Active; 'I' for Inactive)
REMARK    1  A    between atoms: C2_2  and  C4_4
REMARK    2  A    between atoms: C4_4  and  C5_5
REMARK    3  A    between atoms: C7_10  and  C8_11
REMARK    4  A    between atoms: C8_11  and  C9_12
REMARK    5  A    between atoms: C12_17  and  O2_18
REMARK    6  A    between atoms: C13_20  and  C14_21
REMARK    7  A    between atoms: C17_26  and  O3_27
REMARK    8  A    between atoms: C19_31  and  C20_32
REMARK    9  A    between atoms: C20_32  and  C21_33
REMARK   10  A    between atoms: C21_33  and  C22_34
REMARK   11  A    between atoms: C22_34  and  N4_35
ROOT
HETATM    1  C5  UNL     1       7.640  16.719  -0.977  1.00  0.00     0.177 C
HETATM    2  N1  UNL     1       7.589  16.521  -2.408  1.00  0.00    -0.346 N
ATOM      3  H1  UNL     1       8.420  16.818  -2.919  1.00  0.00     0.163 HD
HETATM    4  C6  UNL     1       6.561  15.977  -3.197  1.00  0.00     0.241 C
HETATM    5  O1  UNL     1       6.915  15.075  -4.061  1.00  0.00    -0.271 OA
HETATM    6  C7  UNL     1       5.110  16.206  -3.271  1.00  0.00     0.175 C
HETATM    7  N2  UNL     1       4.384  15.017  -3.687  1.00  0.00    -0.359 N
ATOM      8  H2  UNL     1       4.327  14.903  -4.699  1.00  0.00     0.162 HD
HETATM    9  C12 UNL     1       3.759  14.014  -2.978  1.00  0.00     0.135 C
HETATM   10  C13 UNL     1       2.769  14.004  -1.889  1.00  0.00     0.161 C
HETATM   11  N3  UNL     1       3.168  14.600  -0.654  1.00  0.00    -0.356 N
ATOM     12  H3  UNL     1       3.233  15.615  -0.734  1.00  0.00     0.162 HD
HETATM   13  C17 UNL     1       3.490  14.172   0.621  1.00  0.00     0.185 C
HETATM   14  C18 UNL     1       4.577  13.425   1.203  1.00  0.00     0.222 C
HETATM   15  O4  UNL     1       4.377  12.381   1.840  1.00  0.00    -0.286 OA
HETATM   16  C19 UNL     1       6.055  13.848   1.090  1.00  0.00     0.163 C
HETATM   17  N7  UNL     1       6.121  14.794  -0.008  1.00  0.00    -0.347 N
ATOM     18  H7  UNL     1       5.801  14.336  -0.860  1.00  0.00     0.163 HD
HETATM   19  C24 UNL     1       6.459  16.068  -0.294  1.00  0.00     0.241 C
HETATM   20  O5  UNL     1       5.656  17.027   0.048  1.00  0.00    -0.271 OA
ENDROOT
BRANCH  16  21
HETATM   21  C20 UNL     1       6.780  12.592   0.660  1.00  0.00     0.035 C
BRANCH  21  22
HETATM   22  C21 UNL     1       8.179  12.892   0.166  1.00  0.00     0.022 C
BRANCH  22  23
HETATM   23  C22 UNL     1       9.225  12.132   0.946  1.00  0.00     0.122 C
BRANCH  23  24
HETATM   24  N4  UNL     1      10.291  11.646   0.111  1.00  0.00    -0.367 N
HETATM   25  C23 UNL     1      10.338  10.377  -0.153  1.00  0.00     0.196 C
HETATM   26  N5  UNL     1       9.391   9.444   0.340  1.00  0.00    -0.067 NA
HETATM   27  N6  UNL     1      11.422   9.951  -0.990  1.00  0.00    -0.067 NA
ATOM     28  H4  UNL     1      10.993  12.284  -0.265  1.00  0.00     0.161 HD
ENDBRANCH  23  24
ENDBRANCH  22  23
ENDBRANCH  21  22
ENDBRANCH  16  21
BRANCH  13  29
HETATM   29  O3  UNL     1       2.614  14.517   1.539  1.00  0.00    -0.344 OA
ATOM     30  H3  UNL     1       2.952  14.487   2.426  1.00  0.00     0.219 HD
ENDBRANCH  13  29
BRANCH   1  31
HETATM   31  C4  UNL     1       7.682  18.160  -0.586  1.00  0.00     0.038 C
BRANCH  31  32
HETATM   32  C2  UNL     1       8.830  18.709   0.137  1.00  0.00    -0.020 C
HETATM   33  C1  UNL     1       9.636  19.793  -0.512  1.00  0.00     0.009 C
HETATM   34  C3  UNL     1       9.746  17.622   0.709  1.00  0.00     0.009 C
ENDBRANCH  31  32
ENDBRANCH   1  31
BRANCH  10  35
HETATM   35  C14 UNL     1       2.167  12.602  -1.727  1.00  0.00     0.008 C
HETATM   36  C15 UNL     1       1.089  12.671  -0.703  1.00  0.00     0.012 C
HETATM   37  C16 UNL     1       1.563  12.194  -3.034  1.00  0.00     0.012 C
ENDBRANCH  10  35
BRANCH   9  38
HETATM   38  O2  UNL     1       4.114  12.812  -3.344  1.00  0.00    -0.348 OA
ATOM     39  H2  UNL     1       3.418  12.319  -3.761  1.00  0.00     0.219 HD
ENDBRANCH   9  38
BRANCH   6  40
HETATM   40  C8  UNL     1       4.889  17.234  -4.418  1.00  0.00     0.038 C
BRANCH  40  41
HETATM   41  C9  UNL     1       4.267  18.459  -3.753  1.00  0.00    -0.020 C
HETATM   42  C10 UNL     1       5.341  19.414  -3.274  1.00  0.00     0.009 C
HETATM   43  C11 UNL     1       3.491  18.044  -2.504  1.00  0.00     0.009 C
ENDBRANCH  40  41
ENDBRANCH   6  40
TORSDOF 11
ENDMDL