MODEL 4
REMARK VINA RESULT: -9.750923521      2.544      7.391
REMARK  12 active torsions:
REMARK  status: ('A' for Active; 'I' for Inactive)
REMARK    1  A    between atoms: C14_17  and  C15_18
REMARK    2  A    between atoms: C15_18  and  C16_19
REMARK    3  A    between atoms: C15_18  and  N5_26
REMARK    4  A    between atoms: C16_19  and  N2_20
REMARK    5  A    between atoms: N2_20  and  N3_22
REMARK    6  A    between atoms: N3_22  and  N4_23
REMARK    7  A    between atoms: N5_26  and  C17_28
REMARK    8  A    between atoms: C17_28  and  C18_29
REMARK    9  A    between atoms: C17_28  and  C25_36
REMARK   10  A    between atoms: C18_29  and  C19_30
REMARK   11  A    between atoms: C25_36  and  O2_37
REMARK   12  A    between atoms: C25_36  and  C26_39
REMARK       I    between atoms: C26_39  and  N6_41
ROOT
HETATM    1  C15 UNL     1       6.539  15.653  -1.061  1.00  0.00     0.064 C
ENDROOT
BRANCH   1   2
HETATM    2  C14 UNL     1       5.797  16.360  -1.856  1.00  0.00     0.057 A
HETATM    3  C13 UNL     1       4.978  15.825  -2.819  1.00  0.00     0.011 A
HETATM    4  C3  UNL     1       4.379  16.508  -3.844  1.00  0.00     0.095 A
HETATM    5  C12 UNL     1       4.623  14.506  -2.482  1.00  0.00     0.016 C
HETATM    6  N1  UNL     1       4.583  17.819  -3.940  1.00  0.00    -0.350 N
HETATM    7  C4  UNL     1       3.554  16.048  -4.879  1.00  0.00     0.210 C
HETATM    8  C2  UNL     1       5.354  18.402  -3.043  1.00  0.00     0.074 A
ATOM      9  H1  UNL     1       4.155  18.360  -4.691  1.00  0.00     0.166 HD
HETATM   10  C1  UNL     1       5.523  19.730  -3.185  1.00  0.00     0.047 C
HETATM   11  C28 UNL     1       5.979  17.717  -1.987  1.00  0.00     0.211 A
HETATM   12  O4  UNL     1       6.655  18.470  -1.266  1.00  0.00    -0.285 OA
HETATM   13  O1  UNL     1       2.910  16.885  -5.520  1.00  0.00    -0.285 OA
HETATM   14  C5  UNL     1       3.394  14.730  -5.254  1.00  0.00     0.027 A
HETATM   15  C6  UNL     1       2.834  14.652  -6.528  1.00  0.00     0.016 A
HETATM   16  C10 UNL     1       3.692  13.574  -4.584  1.00  0.00    -0.022 A
HETATM   17  C7  UNL     1       2.575  13.435  -7.131  1.00  0.00     0.001 A
HETATM   18  C8  UNL     1       2.888  12.289  -6.428  1.00  0.00     0.001 A
HETATM   19  C9  UNL     1       3.448  12.343  -5.153  1.00  0.00     0.012 A
HETATM   20  C11 UNL     1       4.256  13.482  -3.299  1.00  0.00     0.013 C
ENDBRANCH   1   2
BRANCH   1  21
HETATM   21  C16 UNL     1       7.830  15.086  -1.600  1.00  0.00     0.135 C
BRANCH  21  22
HETATM   22  N2  UNL     1       8.951  15.901  -1.487  1.00  0.00    -0.294 N
ATOM     23  H2  UNL     1       9.609  16.093  -2.242  1.00  0.00     0.183 HD
BRANCH  22  24
HETATM   24  N3  UNL     1       9.047  16.408  -0.218  1.00  0.00    -0.030 NA
BRANCH  24  25
HETATM   25  N4  UNL     1       9.294  17.786  -0.189  1.00  0.00    -0.329 N
ATOM     26  H42 UNL     1       9.251  18.368  -1.026  1.00  0.00     0.174 HD
ATOM     27  H41 UNL     1       9.518  18.136   0.742  1.00  0.00     0.174 HD
ENDBRANCH  24  25
ENDBRANCH  22  24
ENDBRANCH  21  22
ENDBRANCH   1  21
BRANCH   1  28
HETATM   28  N5  UNL     1       6.248  15.163   0.255  1.00  0.00    -0.358 N
ATOM     29  H5  UNL     1       5.844  15.856   0.884  1.00  0.00     0.165 HD
BRANCH  28  30
HETATM   30  C17 UNL     1       6.429  13.871   0.834  1.00  0.00     0.029 C
BRANCH  30  31
HETATM   31  C18 UNL     1       7.689  13.626   1.552  1.00  0.00     0.094 C
BRANCH  31  32
HETATM   32  C19 UNL     1       8.640  12.672   0.988  1.00  0.00    -0.053 A
HETATM   33  C20 UNL     1       9.906  13.075   0.619  1.00  0.00     0.007 A
HETATM   34  C21 UNL     1      10.878  12.224   0.149  1.00  0.00     0.001 A
HETATM   35  C22 UNL     1      10.601  10.881   0.027  1.00  0.00     0.000 A
HETATM   36  C23 UNL     1       9.347  10.438   0.386  1.00  0.00     0.001 A
HETATM   37  C24 UNL     1       8.386  11.295   0.853  1.00  0.00     0.007 A
ENDBRANCH  31  32
ENDBRANCH  30  31
BRANCH  30  38
HETATM   38  C25 UNL     1       5.216  13.351   1.498  1.00  0.00     0.255 C
BRANCH  38  39
HETATM   39  O2  UNL     1       5.107  11.947   1.442  1.00  0.00    -0.380 OA
ATOM     40  H2  UNL     1       4.230  11.630   1.621  1.00  0.00     0.211 HD
ENDBRANCH  38  39
BRANCH  38  41
HETATM   41  C26 UNL     1       3.925  13.857   0.945  1.00  0.00     0.251 C
HETATM   42  O3  UNL     1       3.582  15.051   1.095  1.00  0.00    -0.270 OA
HETATM   43  N6  UNL     1       3.037  13.010   0.229  1.00  0.00    -0.363 N
HETATM   44  C27 UNL     1       1.783  13.487  -0.313  1.00  0.00     0.149 C
ATOM     45  H6  UNL     1       3.292  12.032   0.091  1.00  0.00     0.162 HD
ENDBRANCH  38  41
ENDBRANCH  30  38
ENDBRANCH  28  30
ENDBRANCH   1  28
TORSDOF 12
ENDMDL