MODEL 5
REMARK VINA RESULT: -9.714114467      2.619      6.758
REMARK  11 active torsions:
REMARK  status: ('A' for Active; 'I' for Inactive)
REMARK    1  A    between atoms: N1_4  and  C3_5
REMARK    2  A    between atoms: C3_5  and  C4_6
REMARK    3  A    between atoms: C9_13  and  C10_14
REMARK    4  A    between atoms: C10_14  and  C11_15
REMARK    5  A    between atoms: C11_15  and  C12_16
REMARK    6  A    between atoms: C12_16  and  N3_17
REMARK    7  A    between atoms: N3_17  and  C13_19
REMARK    8  A    between atoms: C14_22  and  N5_23
REMARK    9  A    between atoms: N5_23  and  C15_25
REMARK   10  A    between atoms: C15_25  and  C16_26
REMARK   11  A    between atoms: C16_26  and  C17_27
ROOT
HETATM    1  C13 UNL     1       5.314  13.003   1.742  1.00  0.00     0.681 A
HETATM    2  N4  UNL     1       4.256  13.338   0.992  1.00  0.00    -0.176 N
ATOM      3  H4  UNL     1       4.297  13.167  -0.013  1.00  0.00     0.186 HD
HETATM    4  C14 UNL     1       3.152  13.884   1.501  1.00  0.00     0.136 A
HETATM    5  C23 UNL     1       3.093  14.121   2.873  1.00  0.00     0.123 A
HETATM    6  C24 UNL     1       2.116  14.665   3.695  1.00  0.00     0.277 A
HETATM    7  O2  UNL     1       1.016  15.072   3.303  1.00  0.00    -0.266 OA
HETATM    8  N6  UNL     1       2.640  14.636   4.945  1.00  0.00    -0.264 N
ATOM      9  H6  UNL     1       2.166  14.969   5.784  1.00  0.00     0.190 HD
HETATM   10  N7  UNL     1       3.852  14.115   4.920  1.00  0.00    -0.281 N
ATOM     11  H7  UNL     1       4.454  13.985   5.733  1.00  0.00     0.188 HD
HETATM   12  C25 UNL     1       4.176  13.778   3.641  1.00  0.00     0.155 A
HETATM   13  N8  UNL     1       5.265  13.226   3.060  1.00  0.00    -0.174 N
ATOM     14  H8  UNL     1       6.066  12.974   3.639  1.00  0.00     0.186 HD
ENDROOT
BRANCH   1  15
HETATM   15  N3  UNL     1       6.371  12.480   1.232  1.00  0.00    -0.226 N
ATOM     16  H3  UNL     1       6.212  11.826   0.465  1.00  0.00     0.177 HD
BRANCH  15  17
HETATM   17  C12 UNL     1       7.725  12.684   1.587  1.00  0.00     0.138 C
BRANCH  17  18
HETATM   18  C11 UNL     1       8.613  12.317   0.422  1.00  0.00     0.026 C
BRANCH  18  19
HETATM   19  C10 UNL     1       8.595  13.332  -0.689  1.00  0.00     0.061 C
BRANCH  19  20
HETATM   20  C9  UNL     1       8.874  14.694  -0.223  1.00  0.00     0.033 A
HETATM   21  C8  UNL     1      10.010  15.165   0.371  1.00  0.00     0.115 A
HETATM   22  N2  UNL     1       9.829  16.465   0.623  1.00  0.00    -0.350 N
HETATM   23  C7  UNL     1       8.596  16.796   0.191  1.00  0.00     0.111 A
ATOM     24  H2  UNL     1      10.502  17.093   1.062  1.00  0.00     0.166 HD
HETATM   25  C6  UNL     1       7.869  17.982   0.186  1.00  0.00     0.050 A
HETATM   26  N9  UNL     1       7.998  15.718  -0.329  1.00  0.00    -0.310 N
HETATM   27  C5  UNL     1       6.594  18.069  -0.325  1.00  0.00     0.013 A
HETATM   28  C4  UNL     1       5.999  16.949  -0.855  1.00  0.00    -0.027 A
HETATM   29  C26 UNL     1       6.735  15.782  -0.842  1.00  0.00     0.107 A
BRANCH  28  30
HETATM   30  C3  UNL     1       4.626  17.007  -1.417  1.00  0.00     0.154 C
BRANCH  30  31
HETATM   31  N1  UNL     1       4.503  17.818  -2.584  1.00  0.00    -0.216 NA
HETATM   32  C2  UNL     1       5.130  17.390  -3.790  1.00  0.00     0.218 C
HETATM   33  C1  UNL     1       3.773  17.208  -4.313  1.00  0.00     0.246 C
HETATM   34  O1  UNL     1       3.166  16.672  -5.285  1.00  0.00    -0.271 OA
HETATM   35  N10 UNL     1       3.291  17.942  -3.203  1.00  0.00    -0.287 N
ATOM     36  H10 UNL     1       2.403  18.383  -2.963  1.00  0.00     0.184 HD
ENDBRANCH  30  31
ENDBRANCH  28  30
ENDBRANCH  19  20
ENDBRANCH  18  19
ENDBRANCH  17  18
ENDBRANCH  15  17
ENDBRANCH   1  15
BRANCH   4  37
HETATM   37  N5  UNL     1       2.117  14.208   0.838  1.00  0.00    -0.375 N
ATOM     38  H5  UNL     1       1.497  14.876   1.296  1.00  0.00     0.161 HD
BRANCH  37  39
HETATM   39  C15 UNL     1       1.699  13.775  -0.445  1.00  0.00     0.126 C
BRANCH  39  40
HETATM   40  C16 UNL     1       1.686  14.816  -1.521  1.00  0.00     0.058 C
BRANCH  40  41
HETATM   41  C17 UNL     1       2.269  14.157  -2.737  1.00  0.00    -0.057 A
HETATM   42  C18 UNL     1       1.453  13.910  -3.844  1.00  0.00     0.007 A
HETATM   43  C19 UNL     1       1.901  13.314  -4.994  1.00  0.00     0.001 A
HETATM   44  C20 UNL     1       3.217  12.934  -5.074  1.00  0.00     0.000 A
HETATM   45  C21 UNL     1       4.037  13.171  -3.984  1.00  0.00     0.001 A
HETATM   46  C22 UNL     1       3.585  13.771  -2.829  1.00  0.00     0.007 A
ENDBRANCH  40  41
ENDBRANCH  39  40
ENDBRANCH  37  39
ENDBRANCH   4  37
TORSDOF 11
ENDMDL