MODEL 2
REMARK VINA RESULT: -9.919590610      2.964      6.699
REMARK  10 active torsions:
REMARK  status: ('A' for Active; 'I' for Inactive)
REMARK    1  A    between atoms: C6_8  and  C7_9
REMARK    2  A    between atoms: C7_9  and  C8_10
REMARK    3  A    between atoms: C9_11  and  C10_12
REMARK    4  A    between atoms: C10_12  and  O1_13
REMARK    5  A    between atoms: C12_21  and  C13_22
REMARK    6  A    between atoms: C13_22  and  C14_23
REMARK    7  A    between atoms: C14_23  and  C15_24
REMARK       I    between atoms: C15_24  and  N4_26
REMARK    8  A    between atoms: N4_26  and  C16_28
REMARK    9  A    between atoms: C16_28  and  C17_29
REMARK       I    between atoms: C17_29  and  N5_31
REMARK   10  A    between atoms: C22_36  and  C23_37
ROOT
HETATM    1  C1  UNL     1       1.026  13.548   1.924  1.00  0.00     0.068 C
HETATM    2  C2  UNL     1       2.437  13.524   1.425  1.00  0.00     0.002 C
HETATM    3  C3  UNL     1       3.305  13.243   2.383  1.00  0.00     0.026 C
HETATM    4  C4  UNL     1       4.751  13.105   2.415  1.00  0.00     0.032 C
HETATM    5  C5  UNL     1       5.763  13.303   1.568  1.00  0.00     0.043 A
HETATM    6  N1  UNL     1       6.979  13.039   2.028  1.00  0.00    -0.358 N
ATOM      7  H1  UNL     1       7.206  12.698   2.961  1.00  0.00     0.166 HD
HETATM    8  C6  UNL     1       7.874  13.304   1.029  1.00  0.00     0.021 A
HETATM    9  C12 UNL     1       7.193  13.754  -0.092  1.00  0.00    -0.022 A
HETATM   10  C20 UNL     1       5.840  13.753   0.244  1.00  0.00    -0.003 A
HETATM   11  C21 UNL     1       4.944  14.135  -0.648  1.00  0.00     0.017 C
HETATM   12  C22 UNL     1       3.526  14.333  -0.889  1.00  0.00     0.140 C
HETATM   13  N7  UNL     1       2.592  13.802   0.039  1.00  0.00    -0.381 N
ATOM     14  H7  UNL     1       1.745  13.524  -0.456  1.00  0.00     0.160 HD
ENDROOT
BRANCH   8  15
HETATM   15  C7  UNL     1       9.308  12.988   1.236  1.00  0.00     0.104 C
BRANCH  15  16
HETATM   16  C8  UNL     1       9.780  11.898   0.339  1.00  0.00     0.043 A
HETATM   17  C9  UNL     1       9.602  10.563   0.291  1.00  0.00     0.061 A
HETATM   18  N2  UNL     1      10.312  10.087  -0.775  1.00  0.00    -0.299 N
HETATM   19  N3  UNL     1      10.910  11.089  -1.369  1.00  0.00    -0.266 N
ATOM     20  H2  UNL     1      10.367   9.110  -1.062  1.00  0.00     0.186 HD
HETATM   21  C11 UNL     1      10.625  12.230  -0.735  1.00  0.00     0.268 A
ATOM     22  H3  UNL     1      11.505  11.010  -2.193  1.00  0.00     0.190 HD
HETATM   23  O2  UNL     1      11.033  13.376  -1.040  1.00  0.00    -0.266 OA
BRANCH  17  24
HETATM   24  C10 UNL     1       8.794   9.713   1.191  1.00  0.00     0.223 C
BRANCH  24  25
HETATM   25  O1  UNL     1       8.762   8.424   0.660  1.00  0.00    -0.395 OA
ATOM     26  H1  UNL     1       8.688   7.809   1.379  1.00  0.00     0.209 HD
ENDBRANCH  24  25
ENDBRANCH  17  24
ENDBRANCH  15  16
ENDBRANCH   8  15
BRANCH   9  27
HETATM   27  C13 UNL     1       7.763  14.260  -1.330  1.00  0.00     0.051 C
BRANCH  27  28
HETATM   28  C14 UNL     1       8.528  15.588  -1.104  1.00  0.00     0.107 C
BRANCH  28  29
HETATM   29  C15 UNL     1       7.709  16.684  -1.728  1.00  0.00     0.218 C
HETATM   30  O3  UNL     1       7.864  17.886  -1.389  1.00  0.00    -0.274 OA
HETATM   31  N4  UNL     1       6.763  16.275  -2.711  1.00  0.00    -0.352 N
ATOM     32  H4  UNL     1       6.672  15.287  -2.949  1.00  0.00     0.162 HD
BRANCH  31  33
HETATM   33  C16 UNL     1       5.941  17.244  -3.363  1.00  0.00     0.225 C
BRANCH  33  34
HETATM   34  C17 UNL     1       4.625  17.442  -2.711  1.00  0.00     0.236 C
HETATM   35  O4  UNL     1       4.487  17.782  -1.493  1.00  0.00    -0.272 OA
HETATM   36  N5  UNL     1       3.440  17.247  -3.469  1.00  0.00    -0.359 N
HETATM   37  C18 UNL     1       2.113  17.432  -2.864  1.00  0.00     0.152 C
HETATM   38  C19 UNL     1       3.528  16.862  -4.850  1.00  0.00     0.152 C
ENDBRANCH  33  34
ENDBRANCH  31  33
ENDBRANCH  28  29
ENDBRANCH  27  28
ENDBRANCH   9  27
BRANCH  12  39
HETATM   39  C23 UNL     1       3.108  13.903  -2.268  1.00  0.00    -0.017 A
HETATM   40  C24 UNL     1       4.098  13.622  -3.161  1.00  0.00     0.012 A
HETATM   41  C25 UNL     1       3.798  13.224  -4.471  1.00  0.00     0.018 A
HETATM   42  C26 UNL     1       2.469  13.137  -4.797  1.00  0.00     0.087 A
HETATM   43  N6  UNL     1       1.496  13.412  -3.923  1.00  0.00    -0.375 N
HETATM   44  C27 UNL     1       1.807  13.792  -2.669  1.00  0.00     0.097 A
ATOM     45  H6  UNL     1       0.519  13.335  -4.206  1.00  0.00     0.164 HD
ENDBRANCH  12  39
TORSDOF 10
ENDMDL