MODEL 4
REMARK VINA RESULT: -8.850760216      2.890      6.949
REMARK  15 active torsions:
REMARK  status: ('A' for Active; 'I' for Inactive)
REMARK    1  A    between atoms: N2_4  and  C3_5
REMARK    2  A    between atoms: N2_4  and  C18_26
REMARK    3  A    between atoms: C3_5  and  C4_6
REMARK    4  A    between atoms: C5_7  and  C6_8
REMARK    5  A    between atoms: C6_8  and  C7_9
REMARK    6  A    between atoms: C9_11  and  C10_12
REMARK    7  A    between atoms: C11_13  and  C12_14
REMARK    8  A    between atoms: C12_14  and  O1_17
REMARK    9  A    between atoms: C15_19  and  O2_20
REMARK   10  A    between atoms: C17_23  and  O3_24
REMARK   11  A    between atoms: C18_26  and  C19_27
REMARK   12  A    between atoms: C19_27  and  N3_28
REMARK       I    between atoms: N3_28  and  C20_30
REMARK   13  A    between atoms: C20_30  and  C21_32
REMARK   14  A    between atoms: C21_32  and  N4_33
REMARK   15  A    between atoms: C24_36  and  C25_37
ROOT
HETATM    1  C1  UNL     1      10.486  10.385  -0.322  1.00  0.00     0.135 C
HETATM    2  N1  UNL     1      10.377  11.798  -0.540  1.00  0.00    -0.184 NA
HETATM    3  C2  UNL     1      10.646  12.555   0.699  1.00  0.00     0.373 C
HETATM    4  N2  UNL     1       9.490  13.338   0.452  1.00  0.00     0.043 N
HETATM    5  N7  UNL     1       9.051  12.306  -0.396  1.00  0.00     0.050 NA
ENDROOT
BRANCH   4   6
HETATM    6  C3  UNL     1       9.915  14.525  -0.334  1.00  0.00     0.290 C
BRANCH   6   7
HETATM    7  C4  UNL     1       9.136  15.733  -0.010  1.00  0.00    -0.001 C
HETATM    8  C5  UNL     1       8.806  16.575  -0.967  1.00  0.00    -0.024 C
BRANCH   8   9
HETATM    9  C6  UNL     1       8.029  17.797  -0.694  1.00  0.00     0.068 C
BRANCH   9  10
HETATM   10  C7  UNL     1       6.890  17.917  -1.599  1.00  0.00    -0.020 A
HETATM   11  C8  UNL     1       6.288  16.731  -2.013  1.00  0.00     0.033 A
HETATM   12  C9  UNL     1       5.207  16.736  -2.867  1.00  0.00     0.051 A
HETATM   13  C15 UNL     1       4.752  17.965  -3.289  1.00  0.00     0.087 A
HETATM   14  C16 UNL     1       5.335  19.150  -2.889  1.00  0.00     0.075 A
HETATM   15  C17 UNL     1       6.414  19.135  -2.037  1.00  0.00     0.075 A
BRANCH  12  16
HETATM   16  C10 UNL     1       4.602  15.488  -3.278  1.00  0.00    -0.061 C
HETATM   17  C11 UNL     1       4.089  14.456  -3.637  1.00  0.00    -0.064 C
BRANCH  17  18
HETATM   18  C12 UNL     1       3.438  13.207  -4.082  1.00  0.00     0.114 C
HETATM   19  C13 UNL     1       1.971  13.196  -3.742  1.00  0.00     0.060 C
HETATM   20  C14 UNL     1       3.616  13.102  -5.565  1.00  0.00     0.060 C
BRANCH  18  21
HETATM   21  O1  UNL     1       4.049  12.151  -3.414  1.00  0.00    -0.378 OA
ATOM     22  H1  UNL     1       3.495  11.915  -2.679  1.00  0.00     0.211 HD
ENDBRANCH  18  21
ENDBRANCH  17  18
ENDBRANCH  12  16
BRANCH  13  23
HETATM   23  O2  UNL     1       3.664  17.999  -4.149  1.00  0.00    -0.359 OA
ATOM     24  H2  UNL     1       3.690  18.608  -4.879  1.00  0.00     0.217 HD
ENDBRANCH  13  23
BRANCH  15  25
HETATM   25  O3  UNL     1       7.034  20.301  -1.607  1.00  0.00    -0.360 OA
ATOM     26  H3  UNL     1       6.884  21.109  -2.083  1.00  0.00     0.217 HD
ENDBRANCH  15  25
ENDBRANCH   9  10
ENDBRANCH   8   9
ENDBRANCH   6   7
ENDBRANCH   4   6
BRANCH   4  27
HETATM   27  C18 UNL     1       8.621  13.775   1.455  1.00  0.00     0.283 C
BRANCH  27  28
HETATM   28  C19 UNL     1       7.426  13.047   1.856  1.00  0.00     0.152 C
BRANCH  28  29
HETATM   29  N3  UNL     1       6.148  13.706   1.777  1.00  0.00    -0.358 N
HETATM   30  C20 UNL     1       5.516  14.011   0.537  1.00  0.00     0.235 C
HETATM   31  O4  UNL     1       6.073  13.705  -0.545  1.00  0.00    -0.272 OA
ATOM     32  H3  UNL     1       5.677  13.965   2.644  1.00  0.00     0.162 HD
BRANCH  30  33
HETATM   33  C21 UNL     1       4.201  14.688   0.514  1.00  0.00     0.230 C
BRANCH  33  34
HETATM   34  N4  UNL     1       3.129  13.868   1.015  1.00  0.00    -0.358 N
HETATM   35  C22 UNL     1       2.581  14.100   2.220  1.00  0.00     0.092 A
HETATM   36  C23 UNL     1       1.551  13.319   2.715  1.00  0.00     0.032 A
HETATM   37  C24 UNL     1       1.047  12.264   1.977  1.00  0.00     0.007 A
HETATM   38  C26 UNL     1       1.615  12.039   0.748  1.00  0.00     0.032 A
HETATM   39  C27 UNL     1       2.641  12.845   0.299  1.00  0.00     0.092 A
BRANCH  37  40
HETATM   40  C25 UNL     1      -0.042  11.439   2.501  1.00  0.00     0.120 C
HETATM   41  N5  UNL     1      -1.134  11.939   2.941  1.00  0.00    -0.387 N
ATOM     42  H52 UNL     1      -1.246  12.952   2.925  1.00  0.00     0.157 HD
ATOM     43  H51 UNL     1      -1.894  11.363   3.306  1.00  0.00     0.157 HD
HETATM   44  N6  UNL     1       0.114  10.027   2.523  1.00  0.00    -0.082 NA
ENDBRANCH  37  40
ENDBRANCH  33  34
ENDBRANCH  30  33
ENDBRANCH  28  29
ENDBRANCH  27  28
ENDBRANCH   4  27
TORSDOF 15
ENDMDL