MODEL 4
REMARK VINA RESULT: -10.577678004      3.617      8.255
REMARK  10 active torsions:
REMARK  status: ('A' for Active; 'I' for Inactive)
REMARK    1  A    between atoms: C5_7  and  C6_8
REMARK    2  A    between atoms: C6_8  and  C7_9
REMARK    3  A    between atoms: C7_9  and  C8_10
REMARK       I    between atoms: N2_13  and  C11_15
REMARK    4  A    between atoms: N4_17  and  C12_19
REMARK    5  A    between atoms: C12_19  and  C13_20
REMARK    6  A    between atoms: C13_20  and  C14_21
REMARK    7  A    between atoms: C14_21  and  C15_22
REMARK    8  A    between atoms: C17_26  and  C18_27
REMARK    9  A    between atoms: C19_32  and  C20_33
REMARK   10  A    between atoms: N8_34  and  N9_36
ROOT
HETATM    1  C8  UNL     1       4.321  14.536   0.070  1.00  0.00     0.015 A
HETATM    2  C9  UNL     1       5.006  15.523  -0.490  1.00  0.00     0.055 A
HETATM    3  C10 UNL     1       6.421  15.528  -0.674  1.00  0.00     0.052 A
HETATM    4  N2  UNL     1       7.077  16.497  -1.227  1.00  0.00    -0.330 N
ATOM      5  H2  UNL     1       8.090  16.430  -1.325  1.00  0.00     0.168 HD
HETATM    6  C11 UNL     1       6.388  17.667  -1.704  1.00  0.00     0.188 C
HETATM    7  N3  UNL     1       6.235  18.737  -0.796  1.00  0.00    -0.064 NA
HETATM    8  N4  UNL     1       5.948  17.702  -2.884  1.00  0.00    -0.364 N
ATOM      9  H4  UNL     1       6.114  16.867  -3.446  1.00  0.00     0.162 HD
HETATM   10  C16 UNL     1       7.223  14.361  -0.217  1.00  0.00     0.062 A
HETATM   11  C17 UNL     1       8.508  14.379  -0.364  1.00  0.00     0.069 C
HETATM   12  C21 UNL     1       6.476  13.274   0.401  1.00  0.00     0.258 A
HETATM   13  O2  UNL     1       7.038  12.233   0.830  1.00  0.00    -0.267 OA
HETATM   14  N12 UNL     1       5.057  13.409   0.517  1.00  0.00    -0.326 N
ATOM     15  H12 UNL     1       4.539  12.644   0.950  1.00  0.00     0.169 HD
ENDROOT
BRANCH  11  16
HETATM   16  C18 UNL     1       9.507  13.392  -0.018  1.00  0.00     0.122 A
HETATM   17  N6  UNL     1      10.661  13.466   0.665  1.00  0.00    -0.284 N
HETATM   18  N7  UNL     1      11.273  12.300   0.738  1.00  0.00    -0.283 N
ATOM     19  H6  UNL     1      11.021  14.325   1.080  1.00  0.00     0.188 HD
HETATM   20  C19 UNL     1      10.515  11.395   0.084  1.00  0.00     0.138 A
ATOM     21  H7  UNL     1      12.160  12.116   1.205  1.00  0.00     0.188 HD
HETATM   22  N11 UNL     1       9.451  12.060  -0.370  1.00  0.00    -0.325 N
ATOM     23  H11 UNL     1       8.694  11.637  -0.907  1.00  0.00     0.169 HD
BRANCH  20  24
HETATM   24  C20 UNL     1      10.793   9.968  -0.097  1.00  0.00     0.158 C
HETATM   25  N8  UNL     1      10.036   9.125   0.498  1.00  0.00    -0.294 N
ATOM     26  H8  UNL     1      10.247   8.136   0.361  1.00  0.00     0.187 HD
BRANCH  25  27
HETATM   27  N9  UNL     1       8.960   9.430   1.307  1.00  0.00    -0.250 N
HETATM   28  N10 UNL     1       7.915   8.705   1.293  1.00  0.00    -0.331 N
ATOM     29 2H10 UNL     1       7.888   7.896   0.672  1.00  0.00     0.178 HD
ATOM     30 1H10 UNL     1       7.120   8.930   1.891  1.00  0.00     0.178 HD
ATOM     31  H9  UNL     1       9.003  10.242   1.922  1.00  0.00     0.207 HD
ENDBRANCH  25  27
ENDBRANCH  20  24
ENDBRANCH  11  16
BRANCH   1  32
HETATM   32  C7  UNL     1       2.836  14.614   0.224  1.00  0.00     0.062 C
BRANCH  32  33
HETATM   33  C6  UNL     1       2.219  13.406  -0.448  1.00  0.00     0.047 C
BRANCH  33  34
HETATM   34  C5  UNL     1       1.651  13.710  -1.763  1.00  0.00    -0.027 A
HETATM   35  C2  UNL     1       0.373  14.158  -2.014  1.00  0.00     0.012 A
HETATM   36  C1  UNL     1      -0.730  14.438  -1.026  1.00  0.00     0.068 C
HETATM   37  N1  UNL     1       0.249  14.314  -3.350  1.00  0.00    -0.362 N
HETATM   38  C3  UNL     1       1.379  13.994  -3.988  1.00  0.00     0.020 A
ATOM     39  H1  UNL     1      -0.600  14.637  -3.814  1.00  0.00     0.165 HD
HETATM   40  C4  UNL     1       2.262  13.614  -2.996  1.00  0.00    -0.024 A
HETATM   41  C25 UNL     1       1.764  13.985  -5.418  1.00  0.00     0.084 C
HETATM   42  C22 UNL     1       3.643  13.199  -3.441  1.00  0.00     0.068 C
HETATM   43  C23 UNL     1       4.050  14.017  -4.620  1.00  0.00    -0.026 C
HETATM   44  C24 UNL     1       3.175  14.383  -5.541  1.00  0.00    -0.024 C
ENDBRANCH  33  34
ENDBRANCH  32  33
ENDBRANCH   1  32
BRANCH   8  45
HETATM   45  C12 UNL     1       5.250  18.758  -3.529  1.00  0.00     0.122 C
BRANCH  45  46
HETATM   46  C13 UNL     1       3.771  18.796  -3.335  1.00  0.00     0.028 C
BRANCH  46  47
HETATM   47  C14 UNL     1       3.138  17.414  -3.371  1.00  0.00     0.101 C
BRANCH  47  48
HETATM   48  C15 UNL     1       1.890  17.432  -2.576  1.00  0.00     0.231 C
HETATM   49  N5  UNL     1       0.632  17.538  -3.224  1.00  0.00    -0.062 NA
HETATM   50  O1  UNL     1       1.956  17.355  -1.332  1.00  0.00    -0.277 OA
ENDBRANCH  47  48
ENDBRANCH  46  47
ENDBRANCH  45  46
ENDBRANCH   8  45
TORSDOF 10
ENDMDL