MODEL 1
REMARK VINA RESULT: -9.486189636      0.000      0.000
REMARK  11 active torsions:
REMARK  status: ('A' for Active; 'I' for Inactive)
REMARK    1  A    between atoms: C5_5  and  C6_6
REMARK    2  A    between atoms: C6_6  and  C7_7
REMARK    3  A    between atoms: C9_12  and  C10_13
REMARK    4  A    between atoms: C10_13  and  C11_14
REMARK    5  A    between atoms: C12_15  and  C13_16
REMARK    6  A    between atoms: C13_16  and  C14_17
REMARK    7  A    between atoms: C14_17  and  C15_18
REMARK    8  A    between atoms: C15_18  and  N2_19
REMARK    9  A    between atoms: C22_26  and  C23_27
REMARK   10  A    between atoms: C23_27  and  C24_28
REMARK   11  A    between atoms: C26_32  and  N4_33
ROOT
HETATM    1  C11 UNL     1       4.625  15.987  -2.447  1.00  0.00    -0.021 A
HETATM    2  C12 UNL     1       4.307  15.313  -3.637  1.00  0.00    -0.047 A
HETATM    3  C19 UNL     1       4.239  16.090  -4.783  1.00  0.00     0.008 A
HETATM    4  C20 UNL     1       4.463  17.432  -4.794  1.00  0.00     0.001 A
HETATM    5  C21 UNL     1       4.769  18.063  -3.627  1.00  0.00     0.008 A
HETATM    6  C22 UNL     1       4.851  17.327  -2.421  1.00  0.00    -0.043 A
ENDROOT
BRANCH   1   7
HETATM    7  C10 UNL     1       4.737  15.162  -1.243  1.00  0.00     0.048 C
BRANCH   7   8
HETATM    8  C9  UNL     1       5.791  14.575  -0.765  1.00  0.00     0.104 A
HETATM    9  C8  UNL     1       5.606  13.734   0.321  1.00  0.00     0.273 A
HETATM   10  N1  UNL     1       6.649  13.081   0.855  1.00  0.00    -0.317 N
HETATM   11  O1  UNL     1       4.475  13.551   0.838  1.00  0.00    -0.266 OA
HETATM   12  C7  UNL     1       7.911  13.188   0.395  1.00  0.00     0.106 A
ATOM     13  H1  UNL     1       6.477  12.470   1.653  1.00  0.00     0.169 HD
HETATM   14  C28 UNL     1       8.091  14.023  -0.680  1.00  0.00     0.273 A
HETATM   15  N6  UNL     1       7.039  14.694  -1.234  1.00  0.00    -0.317 N
HETATM   16  O3  UNL     1       9.250  14.163  -1.149  1.00  0.00    -0.266 OA
ATOM     17  H6  UNL     1       7.209  15.306  -2.032  1.00  0.00     0.169 HD
BRANCH  12  18
HETATM   18  C6  UNL     1       8.876  12.508   0.974  1.00  0.00     0.064 C
BRANCH  18  19
HETATM   19  C5  UNL     1       9.562  11.356   0.393  1.00  0.00     0.034 A
HETATM   20  C4  UNL     1       9.413  10.013   0.657  1.00  0.00     0.031 A
HETATM   21  C3  UNL     1      10.298   9.293  -0.136  1.00  0.00     0.027 A
HETATM   22  C2  UNL     1      10.987  10.218  -0.889  1.00  0.00     0.005 A
HETATM   23  C1  UNL     1      12.057   9.885  -1.896  1.00  0.00     0.068 C
HETATM   24  N7  UNL     1      10.537  11.425  -0.561  1.00  0.00    -0.360 N
ATOM     25  H7  UNL     1      10.878  12.295  -0.971  1.00  0.00     0.166 HD
ENDBRANCH  18  19
ENDBRANCH  12  18
ENDBRANCH   7   8
ENDBRANCH   1   7
BRANCH   2  26
HETATM   26  C13 UNL     1       4.082  13.850  -3.707  1.00  0.00     0.041 C
BRANCH  26  27
HETATM   27  C14 UNL     1       3.363  13.493  -4.971  1.00  0.00     0.032 C
BRANCH  27  28
HETATM   28  C15 UNL     1       1.936  13.046  -4.711  1.00  0.00     0.236 C
BRANCH  28  29
HETATM   29  N2  UNL     1       1.046  13.928  -5.454  1.00  0.00    -0.079 N
HETATM   30  C16 UNL     1      -0.167  13.220  -5.850  1.00  0.00     0.271 C
HETATM   31  C17 UNL     1       0.626  15.048  -4.647  1.00  0.00     0.271 C
HETATM   32  C18 UNL     1       1.732  14.476  -6.630  1.00  0.00     0.271 C
ENDBRANCH  28  29
ENDBRANCH  27  28
ENDBRANCH  26  27
ENDBRANCH   2  26
BRANCH   6  33
HETATM   33  C23 UNL     1       5.069  18.203  -1.248  1.00  0.00     0.085 C
BRANCH  33  34
HETATM   34  C24 UNL     1       6.443  18.639  -0.981  1.00  0.00     0.030 A
HETATM   35  C25 UNL     1       7.174  17.847  -0.067  1.00  0.00     0.119 A
HETATM   36  N3  UNL     1       8.445  18.155   0.219  1.00  0.00    -0.201 N
HETATM   37  C26 UNL     1       9.089  19.197  -0.320  1.00  0.00     0.678 A
ATOM     38  H3  UNL     1       8.948  17.566   0.883  1.00  0.00     0.183 HD
HETATM   39  N5  UNL     1       8.425  19.964  -1.185  1.00  0.00    -0.156 N
HETATM   40  C27 UNL     1       7.113  19.682  -1.509  1.00  0.00     0.267 A
ATOM     41  H5  UNL     1       8.890  20.765  -1.612  1.00  0.00     0.187 HD
HETATM   42  O2  UNL     1       6.584  20.472  -2.328  1.00  0.00    -0.267 OA
BRANCH  37  43
HETATM   43  N4  UNL     1      10.319  19.422   0.019  1.00  0.00    -0.234 N
ATOM     44  H42 UNL     1      10.645  19.375   0.984  1.00  0.00     0.174 HD
ATOM     45  H41 UNL     1      10.998  19.653  -0.706  1.00  0.00     0.174 HD
ENDBRANCH  37  43
ENDBRANCH  33  34
ENDBRANCH   6  33
TORSDOF 11
ENDMDL