MODEL 1
REMARK VINA RESULT: -7.419187331      0.000      0.000
REMARK  5 active torsions:
REMARK  status: ('A' for Active; 'I' for Inactive)
REMARK    1  A    between atoms: C3_5  and  S1_6
REMARK    2  A    between atoms: S1_6  and  C4_7
REMARK    3  A    between atoms: C4_7  and  C6_9
REMARK    4  A    between atoms: C6_9  and  N4_14
REMARK    5  A    between atoms: N4_14  and  C8_16
ROOT
HETATM    1  C6  UNL     1      55.211   9.388   4.081  1.00  0.00     0.106 C
HETATM    2  N2  UNL     1      54.424   9.046   5.030  1.00  0.00    -0.282 N
ATOM      3  H2  UNL     1      54.771   9.160   5.982  1.00  0.00     0.179 HD
HETATM    4  C7  UNL     1      53.145   8.535   4.882  1.00  0.00     0.183 C
HETATM    5  N3  UNL     1      52.070   8.120   4.777  1.00  0.00    -0.172 NA
ENDROOT
BRANCH   1   6
HETATM    6  C4  UNL     1      56.543   9.915   4.431  1.00  0.00     0.118 C
HETATM    7  C5  UNL     1      56.492  10.814   5.663  1.00  0.00     0.030 C
BRANCH   6   8
HETATM    8  S1  UNL     1      57.868   8.731   4.468  1.00  0.00    -0.093 SA
BRANCH   8   9
HETATM    9  C3  UNL     1      59.445   9.505   4.062  1.00  0.00     0.113 A
HETATM   10  N1  UNL     1      60.204  10.269   4.831  1.00  0.00    -0.348 N
HETATM   11  C2  UNL     1      61.312  10.742   4.375  1.00  0.00     0.019 A
ATOM     12  H1  UNL     1      59.911  10.483   5.785  1.00  0.00     0.167 HD
HETATM   13  C1  UNL     1      62.235  11.624   5.198  1.00  0.00     0.069 C
HETATM   14  C11 UNL     1      61.665  10.427   3.087  1.00  0.00     0.003 A
HETATM   15  S3  UNL     1      60.343   9.447   2.607  1.00  0.00    -0.068 SA
HETATM   16  C12 UNL     1      62.889  10.843   2.316  1.00  0.00     0.058 C
ENDBRANCH   8   9
ENDBRANCH   6   8
ENDBRANCH   1   6
BRANCH   1  17
HETATM   17  N4  UNL     1      54.796   9.260   2.750  1.00  0.00    -0.325 N
ATOM     18  H4  UNL     1      54.069   9.894   2.415  1.00  0.00     0.169 HD
BRANCH  17  19
HETATM   19  C8  UNL     1      55.278   8.380   1.900  1.00  0.00     0.151 A
HETATM   20  N5  UNL     1      55.515   8.574   0.601  1.00  0.00    -0.344 N
HETATM   21  C9  UNL     1      55.997   7.587  -0.096  1.00  0.00     0.121 A
ATOM     22  H5  UNL     1      55.322   9.476   0.164  1.00  0.00     0.167 HD
HETATM   23  C10 UNL     1      56.237   6.402   0.544  1.00  0.00     0.093 A
HETATM   24 CL1  UNL     1      56.887   4.914  -0.168  1.00  0.00    -0.075 Cl
HETATM   25  S2  UNL     1      55.753   6.761   2.138  1.00  0.00    -0.040 SA
ENDBRANCH  17  19
ENDBRANCH   1  17
TORSDOF 5
ENDMDL