MODEL 3
REMARK VINA RESULT: -7.544029186      0.116      1.536
REMARK  4 active torsions:
REMARK  status: ('A' for Active; 'I' for Inactive)
REMARK    1  A    between atoms: O1_1  and  N1_3
REMARK    2  A    between atoms: C1_5  and  C2_6
REMARK    3  A    between atoms: C3_9  and  S1_10
REMARK    4  A    between atoms: S1_10  and  C4_11
ROOT
HETATM    1  C2  UNL     1      53.308   9.703   5.795  1.00  0.00     0.176 A
HETATM    2  N2  UNL     1      54.306   9.086   5.142  1.00  0.00    -0.317 N
ATOM      3  H2  UNL     1      54.184   8.424   4.375  1.00  0.00     0.169 HD
HETATM    4  C3  UNL     1      55.500   9.475   5.654  1.00  0.00     0.161 A
HETATM    5  N3  UNL     1      55.202  10.342   6.636  1.00  0.00    -0.278 N
ATOM      6  H3  UNL     1      55.882  10.822   7.227  1.00  0.00     0.189 HD
HETATM    7  N4  UNL     1      53.876  10.477   6.717  1.00  0.00    -0.280 N
ATOM      8  H4  UNL     1      53.379  11.074   7.378  1.00  0.00     0.188 HD
ENDROOT
BRANCH   4   9
HETATM    9  S1  UNL     1      57.086   8.912   5.089  1.00  0.00    -0.082 SA
BRANCH   9  10
HETATM   10  C4  UNL     1      57.280   9.006   3.298  1.00  0.00     0.017 C
HETATM   11  C5  UNL     1      56.398  10.120   2.787  1.00  0.00     0.025 C
HETATM   12  C6  UNL     1      56.608  10.311   1.308  1.00  0.00    -0.012 C
HETATM   13  C7  UNL     1      58.060  10.599   1.040  1.00  0.00     0.009 C
HETATM   14  C11 UNL     1      56.143   9.055   0.611  1.00  0.00     0.009 C
HETATM   15  C8  UNL     1      58.909   9.427   1.485  1.00  0.00    -0.012 C
HETATM   16  C9  UNL     1      58.418   8.192   0.747  1.00  0.00     0.009 C
HETATM   17  C13 UNL     1      58.729   9.181   2.968  1.00  0.00     0.025 C
HETATM   18  C10 UNL     1      56.982   7.907   1.127  1.00  0.00    -0.012 C
HETATM   19  C12 UNL     1      56.804   7.737   2.617  1.00  0.00     0.025 C
ENDBRANCH   9  10
ENDBRANCH   4   9
BRANCH   1  20
HETATM   20  C1  UNL     1      51.882   9.543   5.528  1.00  0.00     0.221 A
HETATM   21  O2  UNL     1      51.341   9.285   4.356  1.00  0.00    -0.185 OA
HETATM   22  N1  UNL     1      50.032   9.203   4.458  1.00  0.00    -0.090 N
HETATM   23  C14 UNL     1      49.726   9.416   5.742  1.00  0.00     0.233 A
HETATM   24  N5  UNL     1      50.862   9.625   6.400  1.00  0.00    -0.305 N
HETATM   25 CL1  UNL     1      48.077   9.409   6.391  1.00  0.00    -0.041 Cl
ATOM     26  H5  UNL     1      50.946   9.816   7.398  1.00  0.00     0.170 HD
BRANCH  22  27
HETATM   27  O1  UNL     1      49.157   8.946   3.432  1.00  0.00    -0.260 OA
ATOM     28  H1  UNL     1      48.875   9.566   2.770  1.00  0.00     0.247 HD
ENDBRANCH  22  27
ENDBRANCH   1  20
TORSDOF 4
ENDMDL