MODEL 1
REMARK VINA RESULT: -7.190308364      0.000      0.000
REMARK  5 active torsions:
REMARK  status: ('A' for Active; 'I' for Inactive)
REMARK    1  A    between atoms: C2_2  and  O1_3
REMARK    2  A    between atoms: O1_3  and  C3_4
REMARK    3  A    between atoms: C3_4  and  C4_6
REMARK    4  A    between atoms: C5_7  and  C6_8
REMARK    5  A    between atoms: C6_8  and  S1_10
ROOT
HETATM    1  C4  UNL     1      57.957   8.866   2.470  1.00  0.00     0.107 C
HETATM    2  C5  UNL     1      56.887   9.300   3.427  1.00  0.00     0.118 C
HETATM    3  C7  UNL     1      57.390  10.086   4.568  1.00  0.00    -0.004 A
HETATM    4  C8  UNL     1      56.656  10.784   5.526  1.00  0.00     0.117 A
HETATM    5  N1  UNL     1      57.560  11.319   6.358  1.00  0.00    -0.309 N
ATOM      6  H1  UNL     1      57.331  11.893   7.169  1.00  0.00     0.186 HD
HETATM    7  N2  UNL     1      58.784  11.004   5.987  1.00  0.00    -0.300 N
HETATM    8  C9  UNL     1      59.966  11.423   6.678  1.00  0.00     0.177 C
HETATM    9  C10 UNL     1      58.723  10.255   4.902  1.00  0.00     0.041 A
HETATM   10  C11 UNL     1      59.688   9.572   3.963  1.00  0.00     0.043 C
HETATM   11  C12 UNL     1      61.103   9.930   4.192  1.00  0.00     0.011 C
HETATM   12  C13 UNL     1      61.938   9.584   2.961  1.00  0.00     0.001 C
HETATM   13  C14 UNL     1      61.391  10.417   1.842  1.00  0.00     0.000 C
HETATM   14  C15 UNL     1      60.046   9.861   1.454  1.00  0.00     0.006 C
HETATM   15  C16 UNL     1      59.124   9.830   2.594  1.00  0.00     0.010 C
ENDROOT
BRANCH   1  16
HETATM   16  C3  UNL     1      57.468   8.634   1.122  1.00  0.00     0.264 C
HETATM   17  O2  UNL     1      56.890   9.514   0.472  1.00  0.00    -0.265 OA
BRANCH  16  18
HETATM   18  O1  UNL     1      57.621   7.398   0.482  1.00  0.00    -0.322 OA
BRANCH  18  19
HETATM   19  C2  UNL     1      56.578   6.428   0.525  1.00  0.00     0.174 C
HETATM   20  C1  UNL     1      57.026   5.081   0.040  1.00  0.00     0.034 C
ENDBRANCH  18  19
ENDBRANCH  16  18
ENDBRANCH   1  16
BRANCH   2  21
HETATM   21  C6  UNL     1      56.076   8.136   3.882  1.00  0.00     0.210 C
HETATM   22  O3  UNL     1      56.634   7.134   4.247  1.00  0.00    -0.283 OA
BRANCH  21  23
HETATM   23  S1  UNL     1      54.303   8.292   3.862  1.00  0.00     0.019 SA
HETATM   24 CL1  UNL     1      53.648   8.038   1.875  1.00  0.00    -0.036 Cl
ENDBRANCH  21  23
ENDBRANCH   2  21
TORSDOF 5
ENDMDL