MODEL 2
REMARK VINA RESULT: -7.844645720      3.740      7.970
REMARK  4 active torsions:
REMARK  status: ('A' for Active; 'I' for Inactive)
REMARK    1  A    between atoms: C3_5  and  C4_6
REMARK    2  A    between atoms: C4_6  and  N2_7
REMARK    3  A    between atoms: C8_13  and  N4_14
REMARK    4  A    between atoms: N4_14  and  C9_16
ROOT
HETATM    1  N2  UNL     1      58.520   9.528   1.883  1.00  0.00    -0.371 N
HETATM    2  C5  UNL     1      58.164  10.612   0.991  1.00  0.00     0.130 C
HETATM    3  C6  UNL     1      56.872  10.141   0.346  1.00  0.00     0.080 C
HETATM    4  C7  UNL     1      56.280   9.272   1.424  1.00  0.00     0.056 A
HETATM    5  N3  UNL     1      55.044   8.809   1.652  1.00  0.00    -0.193 N
ATOM      6  H3  UNL     1      54.297   9.053   1.003  1.00  0.00     0.184 HD
HETATM    7  C8  UNL     1      54.758   8.030   2.712  1.00  0.00     0.678 A
HETATM    8  N5  UNL     1      55.729   7.690   3.587  1.00  0.00    -0.200 N
ATOM      9  H5  UNL     1      55.513   7.100   4.391  1.00  0.00     0.183 HD
HETATM   10  C15 UNL     1      56.982   8.135   3.394  1.00  0.00     0.137 A
HETATM   11  C16 UNL     1      57.292   8.945   2.296  1.00  0.00     0.070 A
ENDROOT
BRANCH   1  12
HETATM   12  C4  UNL     1      59.821   9.099   2.292  1.00  0.00     0.201 C
BRANCH  12  13
HETATM   13  C3  UNL     1      60.422   9.936   3.334  1.00  0.00     0.121 A
HETATM   14  N1  UNL     1      59.848  10.381   4.455  1.00  0.00    -0.326 N
HETATM   15  C2  UNL     1      60.754  11.130   5.154  1.00  0.00     0.144 A
ATOM     16  H1  UNL     1      58.887  10.193   4.743  1.00  0.00     0.169 HD
HETATM   17  C1  UNL     1      60.514  11.805   6.456  1.00  0.00     0.100 C
HETATM   18  O1  UNL     1      61.841  11.107   4.425  1.00  0.00    -0.223 OA
HETATM   19  N6  UNL     1      61.674  10.405   3.337  1.00  0.00    -0.245 N
ATOM     20  H6  UNL     1      62.375  10.242   2.615  1.00  0.00     0.196 HD
ENDBRANCH  12  13
ENDBRANCH   1  12
BRANCH   7  21
HETATM   21  N4  UNL     1      53.569   7.583   2.934  1.00  0.00    -0.221 N
ATOM     22  H4  UNL     1      53.443   6.597   3.163  1.00  0.00     0.178 HD
BRANCH  21  23
HETATM   23  C9  UNL     1      52.405   8.446   2.866  1.00  0.00     0.099 C
HETATM   24  C10 UNL     1      51.110   7.679   2.948  1.00  0.00     0.027 C
HETATM   25  C11 UNL     1      50.509   7.698   4.329  1.00  0.00     0.022 C
HETATM   26  C12 UNL     1      50.223   9.094   4.815  1.00  0.00     0.082 C
HETATM   27 CL1  UNL     1      50.314   9.073   6.593  1.00  0.00    -0.125 Cl
HETATM   28  C13 UNL     1      51.175  10.114   4.253  1.00  0.00     0.022 C
HETATM   29  C14 UNL     1      52.516   9.470   3.971  1.00  0.00     0.027 C
ENDBRANCH  21  23
ENDBRANCH   7  21
TORSDOF 4
ENDMDL