MODEL 2
REMARK VINA RESULT: -6.823673228      1.182      1.846
REMARK  5 active torsions:
REMARK  status: ('A' for Active; 'I' for Inactive)
REMARK    1  A    between atoms: C2_2  and  O1_3
REMARK    2  A    between atoms: O1_3  and  C3_4
REMARK    3  A    between atoms: C3_4  and  C4_6
REMARK    4  A    between atoms: C8_14  and  C9_15
REMARK    5  A    between atoms: N3_19  and  C12_20
ROOT
HETATM    1  C4  UNL     1      57.392   8.280   1.767  1.00  0.00     0.201 C
HETATM    2  C5  UNL     1      56.122   7.890   1.066  1.00  0.00     0.019 C
HETATM    3  N1  UNL     1      56.127   6.979   0.171  1.00  0.00    -0.403 N
ATOM      4  H11 UNL     1      55.264   6.714  -0.305  1.00  0.00     0.155 HD
ATOM      5  H12 UNL     1      56.999   6.509  -0.072  1.00  0.00     0.155 HD
HETATM    6  C6  UNL     1      54.840   8.580   1.423  1.00  0.00     0.148 C
HETATM    7  C7  UNL     1      53.695   7.909   0.854  1.00  0.00     0.070 C
HETATM    8  N2  UNL     1      52.784   7.379   0.378  1.00  0.00    -0.197 NA
HETATM    9  C8  UNL     1      54.764   8.723   2.901  1.00  0.00     0.050 C
HETATM   10  C17 UNL     1      55.737   7.762   3.604  1.00  0.00     0.090 C
HETATM   11  C18 UNL     1      57.101   8.203   3.221  1.00  0.00     0.146 C
HETATM   12  O3  UNL     1      57.890   8.471   4.098  1.00  0.00    -0.297 OA
ENDROOT
BRANCH   9  13
HETATM   13  C9  UNL     1      53.419   8.601   3.487  1.00  0.00    -0.032 A
HETATM   14  C10 UNL     1      52.487   9.605   3.535  1.00  0.00     0.070 A
HETATM   15  C11 UNL     1      51.374   9.090   4.167  1.00  0.00     0.191 A
HETATM   16  F1  UNL     1      50.244   9.792   4.398  1.00  0.00    -0.186 F
HETATM   17  N3  UNL     1      51.598   7.809   4.504  1.00  0.00    -0.325 N
HETATM   18  C16 UNL     1      52.865   7.502   4.085  1.00  0.00     0.102 A
BRANCH  17  19
HETATM   19  C12 UNL     1      50.646   6.973   5.179  1.00  0.00     0.028 C
HETATM   20  C13 UNL     1      50.252   7.550   6.512  1.00  0.00     0.038 C
HETATM   21  C14 UNL     1      49.377   6.757   4.379  1.00  0.00     0.038 C
HETATM   22  C15 UNL     1      51.286   5.601   5.364  1.00  0.00     0.038 C
ENDBRANCH  17  19
ENDBRANCH   9  13
BRANCH   1  23
HETATM   23  C3  UNL     1      57.842   9.623   1.353  1.00  0.00     0.275 C
HETATM   24  O2  UNL     1      57.135  10.362   0.625  1.00  0.00    -0.264 OA
BRANCH  23  25
HETATM   25  O1  UNL     1      59.070  10.121   1.756  1.00  0.00    -0.321 OA
BRANCH  25  26
HETATM   26  C2  UNL     1      60.267   9.334   1.706  1.00  0.00     0.174 C
HETATM   27  C1  UNL     1      61.142   9.870   2.845  1.00  0.00     0.034 C
ENDBRANCH  25  26
ENDBRANCH  23  25
ENDBRANCH   1  23
TORSDOF 5
ENDMDL