MODEL 2
REMARK VINA RESULT: -6.893788562      1.175      1.327
REMARK  5 active torsions:
REMARK  status: ('A' for Active; 'I' for Inactive)
REMARK    1  A    between atoms: C1_2  and  O2_4
REMARK    2  A    between atoms: O2_4  and  C2_5
REMARK    3  A    between atoms: C10_13  and  O3_14
REMARK    4  A    between atoms: O3_14  and  C11_15
REMARK    5  A    between atoms: C11_15  and  C12_17
ROOT
HETATM    1  C2  UNL     1      54.839   8.964   3.107  1.00  0.00     0.172 C
HETATM    2  C3  UNL     1      54.394   7.928   2.056  1.00  0.00     0.019 C
HETATM    3  C4  UNL     1      55.046   6.603   2.235  1.00  0.00     0.012 C
HETATM    4  C5  UNL     1      56.544   6.829   2.176  1.00  0.00    -0.011 C
HETATM    5  C6  UNL     1      56.983   7.335   0.841  1.00  0.00     0.009 C
HETATM    6  C7  UNL     1      56.273   8.664   0.627  1.00  0.00    -0.011 C
HETATM    7  C8  UNL     1      54.780   8.513   0.718  1.00  0.00     0.012 C
HETATM    8  C9  UNL     1      56.739   9.588   1.706  1.00  0.00     0.046 C
HETATM    9  C10 UNL     1      56.305   9.110   3.110  1.00  0.00     0.099 C
HETATM   10  C16 UNL     1      56.902   7.720   3.324  1.00  0.00     0.046 C
ENDROOT
BRANCH   9  11
HETATM   11  O3  UNL     1      56.815  10.031   3.970  1.00  0.00    -0.303 OA
BRANCH  11  12
HETATM   12  C11 UNL     1      57.820   9.940   4.845  1.00  0.00     0.301 C
HETATM   13  O4  UNL     1      57.598   9.638   6.019  1.00  0.00    -0.259 OA
BRANCH  12  14
HETATM   14  C12 UNL     1      59.243  10.192   4.467  1.00  0.00     0.081 A
HETATM   15  C13 UNL     1      60.227  10.765   5.233  1.00  0.00     0.027 A
HETATM   16  C14 UNL     1      61.435  10.886   4.673  1.00  0.00     0.033 A
HETATM   17  C15 UNL     1      61.591  10.435   3.392  1.00  0.00     0.075 A
HETATM   18 CL1  UNL     1      63.056  10.459   2.395  1.00  0.00    -0.076 Cl
HETATM   19  S1  UNL     1      60.041   9.848   3.001  1.00  0.00    -0.072 SA
ENDBRANCH  12  14
ENDBRANCH  11  12
ENDBRANCH   9  11
BRANCH   1  20
HETATM   20  O2  UNL     1      54.248   8.722   4.325  1.00  0.00    -0.297 OA
BRANCH  20  21
HETATM   21  C1  UNL     1      53.347   9.665   4.872  1.00  0.00     0.373 C
HETATM   22  N1  UNL     1      52.216  10.105   4.139  1.00  0.00    -0.032 NA
HETATM   23  O1  UNL     1      53.623  10.072   6.026  1.00  0.00    -0.242 OA
ENDBRANCH  20  21
ENDBRANCH   1  20
TORSDOF 5
ENDMDL