MODEL 1
REMARK VINA RESULT: -7.201001178      0.000      0.000
REMARK  4 active torsions:
REMARK  status: ('A' for Active; 'I' for Inactive)
REMARK    1  A    between atoms: N2_11  and  O2_13
REMARK    2  A    between atoms: O2_13  and  C7_14
REMARK    3  A    between atoms: C7_14  and  C8_15
REMARK    4  A    between atoms: C8_15  and  O3_18
ROOT
HETATM    1  C1  UNL     1      60.105  12.278   7.565  1.00  0.00     0.080 C
HETATM    2  C2  UNL     1      60.646  11.699   6.297  1.00  0.00     0.091 A
HETATM    3  O1  UNL     1      61.830  11.945   5.799  1.00  0.00    -0.241 OA
HETATM    4  N1  UNL     1      62.014  11.295   4.687  1.00  0.00    -0.263 N
ATOM      5  H1  UNL     1      62.864  11.332   4.122  1.00  0.00     0.194 HD
HETATM    6  C3  UNL     1      60.912  10.561   4.389  1.00  0.00     0.066 A
HETATM    7  C4  UNL     1      60.033  10.820   5.424  1.00  0.00     0.058 A
HETATM    8  S1  UNL     1      58.391  10.188   5.677  1.00  0.00    -0.120 SA
HETATM    9  C5  UNL     1      58.134   8.760   4.559  1.00  0.00     0.134 C
HETATM   10  C6  UNL     1      58.333   9.195   3.164  1.00  0.00     0.021 C
HETATM   11  N2  UNL     1      57.381   8.883   2.364  1.00  0.00    -0.274 N
ATOM     12  H2  UNL     1      57.477   9.164   1.389  1.00  0.00     0.193 HD
HETATM   13  C11 UNL     1      59.438   9.923   2.545  1.00  0.00     0.077 C
HETATM   14  C12 UNL     1      60.772   9.691   3.184  1.00  0.00     0.116 C
HETATM   15 BR1  UNL     1      62.114  10.306   1.903  1.00  0.00    -0.084 Br
ENDROOT
BRANCH  11  16
HETATM   16  O2  UNL     1      56.259   8.210   2.709  1.00  0.00    -0.278 OA
BRANCH  16  17
HETATM   17  C7  UNL     1      55.787   7.161   1.904  1.00  0.00     0.238 C
BRANCH  17  18
HETATM   18  C8  UNL     1      55.128   7.666   0.640  1.00  0.00     0.074 C
HETATM   19  C9  UNL     1      53.634   7.526   0.811  1.00  0.00     0.047 C
HETATM   20  C10 UNL     1      55.516   6.817  -0.557  1.00  0.00     0.047 C
BRANCH  18  21
HETATM   21  O3  UNL     1      55.424   8.982   0.368  1.00  0.00    -0.388 OA
ATOM     22  H3  UNL     1      55.333   9.201  -0.551  1.00  0.00     0.210 HD
ENDBRANCH  18  21
ENDBRANCH  17  18
ENDBRANCH  16  17
ENDBRANCH  11  16
TORSDOF 4
ENDMDL