MODEL 3
REMARK VINA RESULT: -7.601808098      3.648      7.666
REMARK  4 active torsions:
REMARK  status: ('A' for Active; 'I' for Inactive)
REMARK    1  A    between atoms: C2_2  and  C5_5
REMARK    2  A    between atoms: C6_10  and  C7_11
REMARK    3  A    between atoms: N3_14  and  C10_15
REMARK    4  A    between atoms: C10_15  and  C11_16
ROOT
HETATM    1  C7  UNL     1      55.632   8.100   2.930  1.00  0.00     0.067 C
HETATM    2  C8  UNL     1      55.877   8.784   4.216  1.00  0.00     0.043 C
HETATM    3  C9  UNL     1      57.212   9.480   4.357  1.00  0.00     0.275 C
HETATM    4  N3  UNL     1      57.802   9.813   3.111  1.00  0.00     0.112 N
HETATM    5  C14 UNL     1      56.827  10.110   2.074  1.00  0.00     0.319 C
HETATM    6 CL1  UNL     1      57.607  10.821   0.670  1.00  0.00    -0.092 Cl
HETATM    7  C15 UNL     1      56.198   8.818   1.702  1.00  0.00     0.065 C
ENDROOT
BRANCH   1   8
HETATM    8  C6  UNL     1      54.184   7.956   2.637  1.00  0.00     0.144 A
HETATM    9  N2  UNL     1      53.542   7.436   1.617  1.00  0.00    -0.281 N
HETATM   10  N1  UNL     1      52.212   7.536   1.846  1.00  0.00    -0.281 N
ATOM     11  H2  UNL     1      53.974   7.025   0.790  1.00  0.00     0.189 HD
HETATM   12  C5  UNL     1      52.071   8.137   3.032  1.00  0.00     0.147 A
ATOM     13  H1  UNL     1      51.462   7.216   1.232  1.00  0.00     0.189 HD
HETATM   14  O2  UNL     1      53.283   8.394   3.517  1.00  0.00    -0.281 OA
BRANCH  12  15
HETATM   15  C2  UNL     1      50.865   8.510   3.812  1.00  0.00     0.016 C
HETATM   16  C1  UNL     1      50.979   9.961   4.195  1.00  0.00     0.023 C
HETATM   17  C3  UNL     1      50.946   7.692   5.111  1.00  0.00     0.023 C
HETATM   18  C4  UNL     1      49.611   8.186   3.057  1.00  0.00     0.023 C
ENDBRANCH  12  15
ENDBRANCH   1   8
BRANCH   4  19
HETATM   19  C10 UNL     1      58.872   9.004   2.652  1.00  0.00     0.331 C
BRANCH  19  20
HETATM   20  C11 UNL     1      60.219   9.681   2.827  1.00  0.00     0.047 A
HETATM   21  C12 UNL     1      61.168   9.590   1.844  1.00  0.00     0.082 A
HETATM   22  S1  UNL     1      62.474  10.439   2.548  1.00  0.00    -0.039 SA
HETATM   23  C13 UNL     1      61.737  10.854   4.031  1.00  0.00     0.288 A
HETATM   24  O1  UNL     1      62.208  11.512   5.020  1.00  0.00    -0.260 OA
HETATM   25  N4  UNL     1      60.527  10.325   3.920  1.00  0.00    -0.319 N
ATOM     26  H4  UNL     1      59.848  10.420   4.675  1.00  0.00     0.169 HD
ENDBRANCH  19  20
ENDBRANCH   4  19
TORSDOF 4
ENDMDL