MODEL 1
REMARK VINA RESULT: -8.703509317      0.000      0.000
REMARK  3 active torsions:
REMARK  status: ('A' for Active; 'I' for Inactive)
REMARK    1  A    between atoms: C3_7  and  S1_8
REMARK    2  A    between atoms: S1_8  and  C4_9
REMARK    3  A    between atoms: C4_9  and  C5_10
ROOT
HETATM    1  C5  UNL     1      57.670   8.332   0.958  1.00  0.00     0.093 A
HETATM    2  N3  UNL     1      57.718   8.733   2.264  1.00  0.00    -0.342 N
ATOM      3  H3  UNL     1      56.946   8.651   2.926  1.00  0.00     0.167 HD
HETATM    4  C6  UNL     1      58.920   9.252   2.556  1.00  0.00     0.085 A
HETATM    5  C7  UNL     1      59.473   9.790   3.715  1.00  0.00    -0.012 A
HETATM    6  C8  UNL     1      58.665   9.868   4.957  1.00  0.00     0.052 C
HETATM    7  C9  UNL     1      60.775  10.231   3.635  1.00  0.00     0.041 A
HETATM    8 BR1  UNL     1      61.605  10.987   5.196  1.00  0.00    -0.048 Br
HETATM    9  C10 UNL     1      61.510  10.154   2.472  1.00  0.00     0.025 A
HETATM   10  C11 UNL     1      62.916  10.625   2.372  1.00  0.00     0.069 C
HETATM   11  N4  UNL     1      60.921   9.622   1.377  1.00  0.00    -0.343 N
ATOM     12  H4  UNL     1      61.456   9.560   0.510  1.00  0.00     0.167 HD
HETATM   13  C12 UNL     1      59.656   9.173   1.391  1.00  0.00     0.134 A
HETATM   14  N5  UNL     1      58.875   8.615   0.443  1.00  0.00    -0.330 N
ATOM     15  H5  UNL     1      59.159   8.435  -0.520  1.00  0.00     0.168 HD
ENDROOT
BRANCH   1  16
HETATM   16  C4  UNL     1      56.469   7.713   0.309  1.00  0.00     0.159 C
BRANCH  16  17
HETATM   17  S1  UNL     1      55.423   6.904   1.512  1.00  0.00    -0.077 SA
BRANCH  17  18
HETATM   18  C3  UNL     1      54.660   8.036   2.665  1.00  0.00     0.203 A
HETATM   19  N2  UNL     1      53.550   8.778   2.440  1.00  0.00    -0.272 N
HETATM   20  N1  UNL     1      53.296   9.488   3.525  1.00  0.00    -0.281 N
ATOM     21  H2  UNL     1      53.003   8.788   1.579  1.00  0.00     0.189 HD
HETATM   22  C2  UNL     1      54.234   9.193   4.410  1.00  0.00     0.137 A
ATOM     23  H1  UNL     1      52.523  10.140   3.656  1.00  0.00     0.189 HD
HETATM   24  C1  UNL     1      54.451   9.691   5.809  1.00  0.00     0.099 C
HETATM   25  O1  UNL     1      55.057   8.312   3.882  1.00  0.00    -0.273 OA
ENDBRANCH  17  18
ENDBRANCH  16  17
ENDBRANCH   1  16
TORSDOF 3
ENDMDL