MODEL 2
REMARK VINA RESULT: -7.208528805      0.136      1.184
REMARK  11 active torsions:
REMARK  status: ('A' for Active; 'I' for Inactive)
REMARK    1  A    between atoms: C1_2  and  N1_3
REMARK    2  A    between atoms: N1_3  and  N2_5
REMARK    3  A    between atoms: N2_5  and  S1_7
REMARK    4  A    between atoms: S1_7  and  O4_10
REMARK    5  A    between atoms: O4_10  and  C2_11
REMARK    6  A    between atoms: C3_13  and  O6_14
REMARK    7  A    between atoms: O6_14  and  S2_15
REMARK    8  A    between atoms: C4_19  and  O10_20
REMARK    9  A    between atoms: O10_20  and  S3_21
REMARK   10  A    between atoms: C5_25  and  O14_26
REMARK   11  A    between atoms: O14_26  and  S4_27
ROOT
HETATM    1  C2  UNL     1      -6.200   2.344   1.165  1.00  0.00     0.317 C
HETATM    2  O5  UNL     1      -6.032   1.074   1.753  1.00  0.00    -0.324 OA
HETATM    3  C3  UNL     1      -5.753   1.230   3.091  1.00  0.00     0.318 C
HETATM    4  C4  UNL     1      -5.254   2.631   3.218  1.00  0.00     0.236 C
HETATM    5  C5  UNL     1      -6.326   3.303   2.292  1.00  0.00     0.236 C
ENDROOT
BRANCH   1   6
HETATM    6  O4  UNL     1      -7.349   2.292   0.432  1.00  0.00    -0.223 OA
BRANCH   6   7
HETATM    7  S1  UNL     1      -7.256   2.925  -1.104  1.00  0.00     0.378 S
HETATM    8  O2  UNL     1      -5.891   2.703  -1.676  1.00  0.00    -0.174 OA
HETATM    9  O3  UNL     1      -8.201   2.075  -1.949  1.00  0.00    -0.174 OA
BRANCH   7  10
HETATM   10  N2  UNL     1      -7.718   4.581  -1.192  1.00  0.00    -0.202 N
ATOM     11  H2  UNL     1      -7.414   5.256  -1.894  1.00  0.00     0.202 HD
BRANCH  10  12
HETATM   12  N1  UNL     1      -8.589   4.834  -0.124  1.00  0.00    -0.266 N
ATOM     13  H1  UNL     1      -8.223   5.207   0.752  1.00  0.00     0.190 HD
BRANCH  12  14
HETATM   14  C1  UNL     1      -9.982   4.571  -0.256  1.00  0.00     0.369 C
HETATM   15  O1  UNL     1     -10.474   4.536  -1.402  1.00  0.00    -0.282 OA
ENDBRANCH  12  14
ENDBRANCH  10  12
ENDBRANCH   7  10
ENDBRANCH   6   7
ENDBRANCH   1   6
BRANCH   5  16
HETATM   16  O14 UNL     1      -5.991   4.607   2.049  1.00  0.00    -0.244 OA
BRANCH  16  17
HETATM   17  S4  UNL     1      -7.126   5.573   2.851  1.00  0.00     0.252 S
HETATM   18  O15 UNL     1      -8.432   4.825   2.996  1.00  0.00    -0.572 OA
HETATM   19  O16 UNL     1      -6.635   5.869   4.243  1.00  0.00    -0.572 OA
HETATM   20  O17 UNL     1      -7.433   6.977   2.000  1.00  0.00    -0.572 OA
ENDBRANCH  16  17
ENDBRANCH   5  16
BRANCH   3  21
HETATM   21  O6  UNL     1      -4.854   0.265   3.550  1.00  0.00    -0.221 OA
BRANCH  21  22
HETATM   22  S2  UNL     1      -5.767  -1.081   3.973  1.00  0.00     0.254 S
HETATM   23  O7  UNL     1      -5.323  -2.196   3.033  1.00  0.00    -0.572 OA
HETATM   24  O8  UNL     1      -5.576  -1.469   5.406  1.00  0.00    -0.572 OA
HETATM   25  O9  UNL     1      -7.375  -0.767   3.610  1.00  0.00    -0.572 OA
ENDBRANCH  21  22
ENDBRANCH   3  21
BRANCH   4  26
HETATM   26  O10 UNL     1      -4.021   2.746   2.592  1.00  0.00    -0.244 OA
BRANCH  26  27
HETATM   27  S3  UNL     1      -2.872   3.459   3.599  1.00  0.00     0.252 S
HETATM   28  O11 UNL     1      -2.490   2.459   4.672  1.00  0.00    -0.572 OA
HETATM   29  O12 UNL     1      -1.694   3.961   2.828  1.00  0.00    -0.572 OA
HETATM   30  O13 UNL     1      -3.570   4.772   4.384  1.00  0.00    -0.572 OA
ENDBRANCH  26  27
ENDBRANCH   4  26
TORSDOF 11
ENDMDL