MODEL 2
REMARK VINA RESULT: -5.975472919      1.965      2.741
REMARK  16 active torsions:
REMARK  status: ('A' for Active; 'I' for Inactive)
REMARK    1  A    between atoms: N1_1  and  N2_4
REMARK    2  A    between atoms: N2_4  and  S1_6
REMARK    3  A    between atoms: S1_6  and  O3_9
REMARK    4  A    between atoms: O3_9  and  C1_10
REMARK    5  A    between atoms: N3_13  and  C3_14
REMARK    6  A    between atoms: C3_14  and  C4_15
REMARK    7  A    between atoms: N4_17  and  C6_18
REMARK    8  A    between atoms: C6_18  and  C7_19
REMARK    9  A    between atoms: C7_19  and  N5_20
REMARK   10  A    between atoms: N5_20  and  C8_22
REMARK   11  A    between atoms: C11_29  and  N8_30
REMARK   12  A    between atoms: N8_30  and  C12_32
REMARK   13  A    between atoms: C12_32  and  C13_33
REMARK   14  A    between atoms: C13_33  and  O5_34
REMARK   15  A    between atoms: C14_41  and  C15_42
REMARK   16  A    between atoms: C15_42  and  O7_43
ROOT
HETATM    1  C4  UNL     1      -6.190   3.798   0.867  1.00  0.00     0.064 A
HETATM    2  C5  UNL     1      -7.278   4.382   0.212  1.00  0.00     0.140 A
HETATM    3  N4  UNL     1      -7.518   3.674  -0.928  1.00  0.00    -0.286 N
HETATM    4  N9  UNL     1      -6.621   2.723  -0.952  1.00  0.00    -0.241 N
ATOM      5  H9  UNL     1      -6.548   2.027  -1.693  1.00  0.00     0.208 HD
HETATM    6  N10 UNL     1      -5.828   2.771   0.090  1.00  0.00    -0.287 N
ATOM      7  H10 UNL     1      -5.058   2.129   0.278  1.00  0.00     0.188 HD
ENDROOT
BRANCH   1   8
HETATM    8  C3  UNL     1      -5.584   4.239   2.140  1.00  0.00     0.219 C
BRANCH   8   9
HETATM    9  N3  UNL     1      -5.086   3.135   2.938  1.00  0.00    -0.217 N
HETATM   10  C2  UNL     1      -5.800   2.426   3.953  1.00  0.00     0.277 C
HETATM   11  C1  UNL     1      -4.875   1.266   4.271  1.00  0.00     0.271 C
HETATM   12  O4  UNL     1      -6.903   2.692   4.451  1.00  0.00    -0.268 OA
HETATM   13  C14 UNL     1      -3.583   2.009   4.008  1.00  0.00     0.215 C
HETATM   14  O6  UNL     1      -3.838   2.627   2.810  1.00  0.00    -0.264 OA
BRANCH  11  15
HETATM   15  O3  UNL     1      -5.182   0.322   3.342  1.00  0.00    -0.240 OA
BRANCH  15  16
HETATM   16  S1  UNL     1      -5.787  -1.100   3.878  1.00  0.00     0.375 S
HETATM   17  O1  UNL     1      -5.342  -1.476   5.262  1.00  0.00    -0.174 OA
HETATM   18  O2  UNL     1      -5.230  -2.202   2.979  1.00  0.00    -0.174 OA
BRANCH  16  19
HETATM   19  N2  UNL     1      -7.515  -1.223   3.730  1.00  0.00    -0.211 N
ATOM     20  H2  UNL     1      -7.995  -1.951   3.200  1.00  0.00     0.201 HD
BRANCH  19  21
HETATM   21  N1  UNL     1      -8.160  -0.205   4.421  1.00  0.00    -0.334 N
ATOM     22  H12 UNL     1      -7.741   0.294   5.206  1.00  0.00     0.177 HD
ATOM     23  H11 UNL     1      -9.092  -0.029   4.046  1.00  0.00     0.177 HD
ENDBRANCH  19  21
ENDBRANCH  16  19
ENDBRANCH  15  16
ENDBRANCH  11  15
BRANCH  13  24
HETATM   24  C15 UNL     1      -3.461   3.105   5.071  1.00  0.00     0.201 C
BRANCH  24  25
HETATM   25  O7  UNL     1      -2.137   3.189   5.460  1.00  0.00    -0.398 OA
ATOM     26  H7  UNL     1      -2.060   3.872   6.116  1.00  0.00     0.209 HD
ENDBRANCH  24  25
ENDBRANCH  13  24
ENDBRANCH   8   9
ENDBRANCH   1   8
BRANCH   3  27
HETATM   27  C6  UNL     1      -8.545   3.907  -1.921  1.00  0.00     0.169 C
BRANCH  27  28
HETATM   28  C7  UNL     1      -9.418   2.669  -2.005  1.00  0.00     0.143 C
BRANCH  28  29
HETATM   29  N5  UNL     1     -10.734   2.898  -1.538  1.00  0.00    -0.372 N
ATOM     30  H5  UNL     1     -11.451   2.277  -1.915  1.00  0.00     0.161 HD
BRANCH  29  31
HETATM   31  C8  UNL     1     -11.139   3.770  -0.715  1.00  0.00     0.145 A
HETATM   32  N6  UNL     1     -11.586   4.983  -1.085  1.00  0.00    -0.348 N
HETATM   33  C9  UNL     1     -12.016   5.916  -0.200  1.00  0.00     0.107 A
ATOM     34  H6  UNL     1     -11.603   5.212  -2.078  1.00  0.00     0.167 HD
HETATM   35  C10 UNL     1     -11.992   5.610   1.123  1.00  0.00     0.107 A
HETATM   36  N7  UNL     1     -11.558   4.422   1.543  1.00  0.00    -0.348 N
HETATM   37  C11 UNL     1     -11.128   3.487   0.656  1.00  0.00     0.145 A
ATOM     38  H7  UNL     1     -11.549   4.213   2.541  1.00  0.00     0.167 HD
BRANCH  37  39
HETATM   39  N8  UNL     1     -10.731   2.382   1.122  1.00  0.00    -0.371 N
ATOM     40  H8  UNL     1     -11.380   1.610   0.971  1.00  0.00     0.161 HD
BRANCH  39  41
HETATM   41  C12 UNL     1      -9.559   2.018   1.813  1.00  0.00     0.147 C
BRANCH  41  42
HETATM   42  C13 UNL     1      -8.927   0.833   1.079  1.00  0.00     0.183 C
BRANCH  42  43
HETATM   43  O5  UNL     1      -7.584   0.721   1.411  1.00  0.00    -0.399 OA
ATOM     44  H5  UNL     1      -7.359  -0.186   1.576  1.00  0.00     0.209 HD
ENDBRANCH  42  43
ENDBRANCH  41  42
ENDBRANCH  39  41
ENDBRANCH  37  39
ENDBRANCH  29  31
ENDBRANCH  28  29
ENDBRANCH  27  28
ENDBRANCH   3  27
TORSDOF 16
ENDMDL