MODEL 2
REMARK VINA RESULT: -6.522933483      2.521      6.280
REMARK  13 active torsions:
REMARK  status: ('A' for Active; 'I' for Inactive)
REMARK    1  A    between atoms: N1_1  and  C1_4
REMARK    2  A    between atoms: N3_9  and  C3_10
REMARK    3  A    between atoms: C4_12  and  C5_13
REMARK    4  A    between atoms: C5_13  and  O3_14
REMARK    5  A    between atoms: O3_14  and  S1_15
REMARK    6  A    between atoms: S1_15  and  N4_16
REMARK    7  A    between atoms: C6_21  and  O6_22
REMARK    8  A    between atoms: O6_22  and  C7_23
REMARK    9  A    between atoms: C7_23  and  C8_24
REMARK   10  A    between atoms: C8_24  and  N5_25
REMARK   11  A    between atoms: N5_25  and  C9_27
REMARK   12  A    between atoms: C10_29  and  O8_30
REMARK   13  A    between atoms: O8_30  and  S2_31
ROOT
HETATM    1  C3  UNL     1      -5.643   2.715   1.358  1.00  0.00     0.271 C
HETATM    2  O2  UNL     1      -5.434   1.547   2.035  1.00  0.00    -0.353 OA
HETATM    3  C4  UNL     1      -4.568   1.835   3.059  1.00  0.00     0.181 C
HETATM    4  C6  UNL     1      -4.625   3.301   3.366  1.00  0.00     0.187 C
HETATM    5  C10 UNL     1      -5.705   3.775   2.428  1.00  0.00     0.226 C
ENDROOT
BRANCH   1   6
HETATM    6  N3  UNL     1      -6.792   2.711   0.500  1.00  0.00    -0.220 N
HETATM    7  C2  UNL     1      -6.923   3.725  -0.369  1.00  0.00     0.347 A
HETATM    8  N2  UNL     1      -7.987   3.759  -1.193  1.00  0.00    -0.141 N
HETATM    9  O1  UNL     1      -6.052   4.663  -0.429  1.00  0.00    -0.246 OA
HETATM   10  C1  UNL     1      -8.946   2.814  -1.193  1.00  0.00     0.683 A
ATOM     11  H2  UNL     1      -8.071   4.537  -1.847  1.00  0.00     0.189 HD
HETATM   12  N6  UNL     1      -8.775   1.806  -0.300  1.00  0.00    -0.141 N
HETATM   13  C11 UNL     1      -7.724   1.752   0.531  1.00  0.00     0.347 A
ATOM     14  H6  UNL     1      -9.473   1.064  -0.258  1.00  0.00     0.189 HD
HETATM   15  O12 UNL     1      -7.619   0.784   1.345  1.00  0.00    -0.246 OA
BRANCH  10  16
HETATM   16  N1  UNL     1      -9.970   2.841  -1.982  1.00  0.00    -0.234 N
ATOM     17  H12 UNL     1     -10.199   3.677  -2.518  1.00  0.00     0.174 HD
ATOM     18  H11 UNL     1     -10.597   2.048  -2.113  1.00  0.00     0.174 HD
ENDBRANCH  10  16
ENDBRANCH   1   6
BRANCH   5  19
HETATM   19  O8  UNL     1      -6.906   4.005   2.969  1.00  0.00    -0.244 OA
BRANCH  19  20
HETATM   20  S2  UNL     1      -7.327   5.477   3.481  1.00  0.00     0.252 S
HETATM   21  O9  UNL     1      -6.898   6.496   2.449  1.00  0.00    -0.572 OA
HETATM   22  O10 UNL     1      -8.791   5.701   3.696  1.00  0.00    -0.572 OA
HETATM   23  O11 UNL     1      -6.553   5.961   4.913  1.00  0.00    -0.572 OA
ENDBRANCH  19  20
ENDBRANCH   5  19
BRANCH   3  24
HETATM   24  C5  UNL     1      -4.857   0.975   4.296  1.00  0.00     0.226 C
BRANCH  24  25
HETATM   25  O3  UNL     1      -4.313  -0.272   4.120  1.00  0.00    -0.257 OA
BRANCH  25  26
HETATM   26  S1  UNL     1      -5.488  -1.453   4.029  1.00  0.00     0.355 S
HETATM   27  O4  UNL     1      -5.113  -2.402   2.933  1.00  0.00    -0.176 OA
HETATM   28  O5  UNL     1      -5.530  -2.151   5.368  1.00  0.00    -0.176 OA
BRANCH  26  29
HETATM   29  N4  UNL     1      -7.027  -0.708   3.707  1.00  0.00    -0.306 N
ATOM     30  H42 UNL     1      -7.325   0.191   4.084  1.00  0.00     0.171 HD
ATOM     31  H41 UNL     1      -7.570  -1.312   3.089  1.00  0.00     0.171 HD
ENDBRANCH  26  29
ENDBRANCH  25  26
ENDBRANCH  24  25
ENDBRANCH   3  24
BRANCH   4  32
HETATM   32  O6  UNL     1      -3.380   3.857   3.008  1.00  0.00    -0.379 OA
BRANCH  32  33
HETATM   33  C7  UNL     1      -2.471   3.794   4.076  1.00  0.00     0.188 C
BRANCH  33  34
HETATM   34  C8  UNL     1      -1.106   3.543   3.480  1.00  0.00     0.148 C
BRANCH  34  35
HETATM   35  N5  UNL     1      -0.669   4.547   2.561  1.00  0.00    -0.366 N
ATOM     36  H5  UNL     1      -1.238   4.731   1.735  1.00  0.00     0.161 HD
BRANCH  35  37
HETATM   37  C9  UNL     1       0.527   5.304   2.746  1.00  0.00     0.348 C
HETATM   38  O7  UNL     1       0.695   6.437   2.272  1.00  0.00    -0.284 OA
ENDBRANCH  35  37
ENDBRANCH  34  35
ENDBRANCH  33  34
ENDBRANCH  32  33
ENDBRANCH   4  32
TORSDOF 13
ENDMDL