MODEL 2
REMARK VINA RESULT: -6.886473905      0.987      1.407
REMARK  13 active torsions:
REMARK  status: ('A' for Active; 'I' for Inactive)
REMARK    1  A    between atoms: C2_2  and  N1_3
REMARK       I    between atoms: N1_3  and  C3_5
REMARK    2  A    between atoms: C3_5  and  C4_7
REMARK    3  A    between atoms: C4_7  and  N2_8
REMARK    4  A    between atoms: N3_11  and  C6_12
REMARK    5  A    between atoms: C6_12  and  C7_13
REMARK    6  A    between atoms: N5_18  and  C9_19
REMARK    7  A    between atoms: C9_19  and  C10_20
REMARK    8  A    between atoms: C9_19  and  C13_27
REMARK    9  A    between atoms: C10_20  and  O6_22
REMARK   10  A    between atoms: O6_22  and  C11_23
REMARK   11  A    between atoms: C11_23  and  C12_24
REMARK   12  A    between atoms: C12_24  and  O7_25
REMARK   13  A    between atoms: C14_30  and  N7_31
ROOT
HETATM    1  C9  UNL     1      -5.613   3.992   2.140  1.00  0.00     0.267 C
ENDROOT
BRANCH   1   2
HETATM    2  N5  UNL     1      -6.525   2.919   1.871  1.00  0.00    -0.229 N
HETATM    3  C8  UNL     1      -7.092   2.152   2.807  1.00  0.00     0.338 A
HETATM    4  N3  UNL     1      -7.947   1.132   2.565  1.00  0.00    -0.242 N
HETATM    5  O4  UNL     1      -6.832   2.368   4.009  1.00  0.00    -0.246 OA
HETATM    6  C5  UNL     1      -8.238   0.885   1.283  1.00  0.00     0.337 A
HETATM    7  N2  UNL     1      -7.710   1.608   0.287  1.00  0.00    -0.242 N
HETATM    8  O2  UNL     1      -9.042  -0.062   1.049  1.00  0.00    -0.246 OA
HETATM    9  C16 UNL     1      -6.853   2.624   0.604  1.00  0.00     0.338 A
HETATM   10  O9  UNL     1      -6.393   3.257  -0.361  1.00  0.00    -0.246 OA
BRANCH   4  11
HETATM   11  C6  UNL     1      -8.530   0.377   3.658  1.00  0.00     0.238 C
BRANCH  11  12
HETATM   12  C7  UNL     1      -7.611  -0.633   4.187  1.00  0.00     0.249 C
HETATM   13  N4  UNL     1      -7.439  -0.743   5.603  1.00  0.00    -0.061 NA
HETATM   14  O3  UNL     1      -6.978  -1.400   3.450  1.00  0.00    -0.275 OA
ENDBRANCH  11  12
ENDBRANCH   4  11
BRANCH   7  15
HETATM   15  C4  UNL     1      -7.965   1.337  -1.121  1.00  0.00     0.241 C
BRANCH  15  16
HETATM   16  C3  UNL     1      -9.148   2.140  -1.570  1.00  0.00     0.236 C
HETATM   17  N1  UNL     1     -10.399   2.107  -0.914  1.00  0.00    -0.360 N
ATOM     18  H1  UNL     1     -10.544   1.532  -0.084  1.00  0.00     0.162 HD
HETATM   19  O1  UNL     1      -9.048   2.895  -2.591  1.00  0.00    -0.272 OA
BRANCH  17  20
HETATM   20  C2  UNL     1     -11.489   2.933  -1.467  1.00  0.00     0.118 C
HETATM   21  C1  UNL     1     -12.435   3.259  -0.365  1.00  0.00     0.026 C
ENDBRANCH  17  20
ENDBRANCH  15  16
ENDBRANCH   7  15
ENDBRANCH   1   2
BRANCH   1  22
HETATM   22  C10 UNL     1      -6.170   5.127   2.922  1.00  0.00     0.290 C
HETATM   23  O5  UNL     1      -5.398   5.826   3.693  1.00  0.00    -0.262 OA
BRANCH  22  24
HETATM   24  O6  UNL     1      -7.490   5.537   2.917  1.00  0.00    -0.317 OA
BRANCH  24  25
HETATM   25  C11 UNL     1      -8.063   6.085   1.721  1.00  0.00     0.204 C
BRANCH  25  26
HETATM   26  C12 UNL     1      -9.215   5.262   1.248  1.00  0.00     0.191 C
BRANCH  26  27
HETATM   27  O7  UNL     1      -9.030   5.001  -0.118  1.00  0.00    -0.399 OA
ATOM     28  H7  UNL     1      -8.933   5.833  -0.567  1.00  0.00     0.209 HD
ENDBRANCH  26  27
ENDBRANCH  25  26
ENDBRANCH  24  25
ENDBRANCH  22  24
ENDBRANCH   1  22
BRANCH   1  29
HETATM   29  C13 UNL     1      -4.285   3.589   2.647  1.00  0.00     0.135 A
HETATM   30  N6  UNL     1      -4.130   2.805   3.754  1.00  0.00    -0.178 N
HETATM   31  C14 UNL     1      -2.939   2.426   4.231  1.00  0.00     0.681 A
ATOM     32  H6  UNL     1      -4.967   2.491   4.244  1.00  0.00     0.185 HD
HETATM   33  N8  UNL     1      -1.825   2.820   3.614  1.00  0.00    -0.141 N
HETATM   34  C15 UNL     1      -1.961   3.602   2.507  1.00  0.00     0.340 A
ATOM     35  H8  UNL     1      -0.904   2.546   3.958  1.00  0.00     0.189 HD
HETATM   36  O8  UNL     1      -0.918   3.965   1.934  1.00  0.00    -0.246 OA
HETATM   37  N9  UNL     1      -3.156   3.976   2.036  1.00  0.00    -0.295 N
ATOM     38  H9  UNL     1      -3.209   4.564   1.203  1.00  0.00     0.172 HD
BRANCH  31  39
HETATM   39  N7  UNL     1      -2.870   1.691   5.288  1.00  0.00    -0.234 N
ATOM     40  H72 UNL     1      -3.507   1.853   6.067  1.00  0.00     0.174 HD
ATOM     41  H71 UNL     1      -2.181   0.940   5.345  1.00  0.00     0.174 HD
ENDBRANCH  31  39
ENDBRANCH   1  29
TORSDOF 13
ENDMDL