MODEL 5
REMARK VINA RESULT: -6.267027214      3.343      5.661
REMARK  14 active torsions:
REMARK  status: ('A' for Active; 'I' for Inactive)
REMARK    1  A    between atoms: N1_1  and  C1_5
REMARK    2  A    between atoms: C1_5  and  C2_6
REMARK    3  A    between atoms: C2_6  and  N2_7
REMARK       I    between atoms: N2_7  and  C3_9
REMARK    4  A    between atoms: C3_9  and  C4_11
REMARK    5  A    between atoms: C4_11  and  N3_12
REMARK    6  A    between atoms: N6_21  and  C9_22
REMARK    7  A    between atoms: C9_22  and  C10_23
REMARK       I    between atoms: C10_23  and  N7_25
REMARK    8  A    between atoms: N7_25  and  C11_27
REMARK    9  A    between atoms: C11_27  and  N8_28
REMARK       I    between atoms: N8_28  and  C12_29
REMARK   10  A    between atoms: N8_28  and  C14_34
REMARK   11  A    between atoms: C12_29  and  C13_31
REMARK   12  A    between atoms: C13_31  and  O4_32
REMARK   13  A    between atoms: N10_40  and  N11_41
REMARK   14  A    between atoms: N12_44  and  N13_45
ROOT
HETATM    1  N3  UNL     1      -0.165   2.909   6.193  1.00  0.00    -0.317 N
HETATM    2  C5  UNL     1       0.806   3.519   5.471  1.00  0.00     0.186 A
HETATM    3  N4  UNL     1       0.316   3.764   4.244  1.00  0.00    -0.333 N
ATOM      4  H4  UNL     1       0.823   4.216   3.483  1.00  0.00     0.168 HD
HETATM    5  C6  UNL     1      -0.944   3.320   4.182  1.00  0.00     0.191 A
HETATM    6  C7  UNL     1      -1.238   2.788   5.402  1.00  0.00     0.158 A
HETATM    7  N5  UNL     1      -2.544   2.257   5.567  1.00  0.00    -0.334 N
ATOM      8  H5  UNL     1      -2.789   1.854   6.472  1.00  0.00     0.168 HD
HETATM    9  C8  UNL     1      -3.431   2.256   4.651  1.00  0.00     0.210 A
HETATM   10  N6  UNL     1      -3.199   2.804   3.315  1.00  0.00    -0.235 N
HETATM   11  N12 UNL     1      -1.941   3.329   3.121  1.00  0.00    -0.175 N
ENDROOT
BRANCH  10  12
HETATM   12  C9  UNL     1      -4.256   2.821   2.405  1.00  0.00     0.193 C
BRANCH  12  13
HETATM   13  C10 UNL     1      -5.055   3.986   2.101  1.00  0.00     0.260 C
HETATM   14  O2  UNL     1      -5.268   5.034   2.744  1.00  0.00    -0.267 OA
HETATM   15  N7  UNL     1      -5.747   3.959   0.823  1.00  0.00    -0.340 N
ATOM     16  H7  UNL     1      -5.641   3.140   0.225  1.00  0.00     0.164 HD
BRANCH  15  17
HETATM   17  C11 UNL     1      -6.570   5.034   0.372  1.00  0.00     0.260 C
BRANCH  17  18
HETATM   18  N8  UNL     1      -7.971   4.755   0.529  1.00  0.00    -0.282 N
HETATM   19  C12 UNL     1      -8.749   5.572   1.391  1.00  0.00     0.250 C
HETATM   20  O3  UNL     1      -9.963   5.302   1.532  1.00  0.00    -0.271 OA
BRANCH  19  21
HETATM   21  C13 UNL     1      -8.174   6.710   2.111  1.00  0.00     0.267 C
BRANCH  21  22
HETATM   22  O4  UNL     1      -8.277   7.902   1.413  1.00  0.00    -0.392 OA
ATOM     23  H4  UNL     1      -7.586   8.518   1.626  1.00  0.00     0.210 HD
ENDBRANCH  21  22
ENDBRANCH  19  21
BRANCH  18  24
HETATM   24  C14 UNL     1      -8.560   3.657  -0.174  1.00  0.00     0.153 A
HETATM   25  C15 UNL     1      -8.894   3.598  -1.519  1.00  0.00     0.143 A
HETATM   26  N9  UNL     1      -9.428   2.394  -1.775  1.00  0.00    -0.314 N
HETATM   27  C16 UNL     1      -9.434   1.694  -0.601  1.00  0.00     0.346 A
ATOM     28  H9  UNL     1      -9.767   2.062  -2.678  1.00  0.00     0.170 HD
HETATM   29  O5  UNL     1      -9.855   0.523  -0.420  1.00  0.00    -0.245 OA
HETATM   30  N10 UNL     1      -8.908   2.466   0.356  1.00  0.00    -0.194 N
BRANCH  30  31
HETATM   31  N11 UNL     1      -8.720   2.142   1.723  1.00  0.00    -0.333 N
ATOM     32 2H11 UNL     1      -8.732   2.777   2.521  1.00  0.00     0.177 HD
ATOM     33 1H11 UNL     1      -8.545   1.192   2.051  1.00  0.00     0.177 HD
ENDBRANCH  30  31
ENDBRANCH  18  24
ENDBRANCH  17  18
ENDBRANCH  15  17
ENDBRANCH  12  13
ENDBRANCH  10  12
BRANCH  11  34
HETATM   34  N13 UNL     1      -1.531   3.957   1.940  1.00  0.00    -0.322 N
ATOM     35 2H13 UNL     1      -1.210   3.455   1.110  1.00  0.00     0.179 HD
ATOM     36 1H13 UNL     1      -1.615   4.973   1.946  1.00  0.00     0.179 HD
ENDBRANCH  11  34
BRANCH   1  37
HETATM   37  C4  UNL     1      -0.036   2.462   7.558  1.00  0.00     0.234 C
BRANCH  37  38
HETATM   38  C3  UNL     1       0.829   1.223   7.511  1.00  0.00     0.235 C
HETATM   39  N2  UNL     1       0.624   0.192   6.587  1.00  0.00    -0.358 N
ATOM     40  H2  UNL     1      -0.140   0.281   5.917  1.00  0.00     0.162 HD
HETATM   41  O1  UNL     1       1.764   1.158   8.361  1.00  0.00    -0.272 OA
BRANCH  39  42
HETATM   42  C2  UNL     1       1.441  -0.982   6.544  1.00  0.00     0.150 C
BRANCH  42  43
HETATM   43  C1  UNL     1       0.692  -2.175   7.054  1.00  0.00     0.249 C
BRANCH  43  44
HETATM   44  N1  UNL     1      -0.696  -2.095   6.588  1.00  0.00    -0.078 N
ATOM     45  H13 UNL     1      -1.312  -2.736   7.088  1.00  0.00     0.274 HD
ATOM     46  H12 UNL     1      -1.148  -1.223   6.861  1.00  0.00     0.274 HD
ATOM     47  H11 UNL     1      -0.712  -2.245   5.579  1.00  0.00     0.274 HD
ENDBRANCH  43  44
ENDBRANCH  42  43
ENDBRANCH  39  42
ENDBRANCH  37  38
ENDBRANCH   1  37
TORSDOF 14
ENDMDL