MODEL 2
REMARK VINA RESULT: -6.748224820      4.049      6.974
REMARK  12 active torsions:
REMARK  status: ('A' for Active; 'I' for Inactive)
REMARK    1  A    between atoms: N1_1  and  N2_4
REMARK    2  A    between atoms: N2_4  and  C1_5
REMARK    3  A    between atoms: N3_10  and  C3_11
REMARK    4  A    between atoms: N7_18  and  O3_19
REMARK    5  A    between atoms: O3_19  and  C5_20
REMARK    6  A    between atoms: C5_20  and  C6_21
REMARK    7  A    between atoms: C6_21  and  N8_22
REMARK    8  A    between atoms: N8_22  and  C7_24
REMARK    9  A    between atoms: C7_24  and  C8_25
REMARK   10  A    between atoms: C8_25  and  O4_26
REMARK   11  A    between atoms: O4_26  and  S2_27
REMARK   12  A    between atoms: C10_33  and  C11_34
ROOT
HETATM    1  C3  UNL     1      -7.168   3.700   1.425  1.00  0.00     0.204 A
HETATM    2  N4  UNL     1      -5.877   3.340   1.673  1.00  0.00    -0.278 N
ATOM      3  H4  UNL     1      -5.483   2.526   1.202  1.00  0.00     0.189 HD
HETATM    4  N5  UNL     1      -5.132   4.027   2.512  1.00  0.00    -0.270 N
ATOM      5  H5  UNL     1      -4.169   3.732   2.674  1.00  0.00     0.189 HD
HETATM    6  C4  UNL     1      -5.601   5.108   3.162  1.00  0.00     0.237 A
HETATM    7  N6  UNL     1      -4.696   5.754   4.038  1.00  0.00    -0.060 NA
HETATM    8  N7  UNL     1      -6.844   5.516   2.971  1.00  0.00    -0.150 N
HETATM    9  C9  UNL     1      -7.627   4.805   2.097  1.00  0.00     0.320 A
HETATM   10  O8  UNL     1      -8.803   5.214   1.933  1.00  0.00    -0.261 OA
ENDROOT
BRANCH   1  11
HETATM   11  N3  UNL     1      -7.966   2.960   0.523  1.00  0.00    -0.238 N
HETATM   12  S1  UNL     1      -7.856   2.887  -1.178  1.00  0.00     0.236 S
HETATM   13  C2  UNL     1      -9.296   1.840  -1.505  1.00  0.00     0.189 C
HETATM   14  O1  UNL     1      -6.605   2.193  -1.654  1.00  0.00    -0.205 OA
HETATM   15  O2  UNL     1      -8.053   4.217  -1.857  1.00  0.00    -0.205 OA
HETATM   16  C1  UNL     1     -10.047   2.011  -0.202  1.00  0.00     0.149 C
HETATM   17  C10 UNL     1      -9.050   2.086   0.892  1.00  0.00     0.226 C
BRANCH  16  18
HETATM   18  N2  UNL     1     -11.010   3.067  -0.225  1.00  0.00    -0.140 NA
BRANCH  18  19
HETATM   19  N1  UNL     1     -11.252   3.462   1.092  1.00  0.00    -0.348 N
ATOM     20  H12 UNL     1     -11.382   2.828   1.881  1.00  0.00     0.172 HD
ATOM     21  H11 UNL     1     -11.276   4.481   1.119  1.00  0.00     0.172 HD
ENDBRANCH  18  19
ENDBRANCH  16  18
BRANCH  17  22
HETATM   22  C11 UNL     1      -8.566   0.702   1.177  1.00  0.00     0.199 C
HETATM   23  O9  UNL     1      -9.376  -0.253   1.199  1.00  0.00    -0.646 OA
HETATM   24  O10 UNL     1      -7.212   0.530   1.411  1.00  0.00    -0.646 OA
ENDBRANCH  17  22
ENDBRANCH   1  11
BRANCH   8  25
HETATM   25  O3  UNL     1      -7.382   6.599   3.602  1.00  0.00    -0.266 OA
BRANCH  25  26
HETATM   26  C5  UNL     1      -8.074   6.598   4.817  1.00  0.00     0.221 C
BRANCH  26  27
HETATM   27  C6  UNL     1      -9.392   7.361   4.695  1.00  0.00     0.147 C
BRANCH  27  28
HETATM   28  N8  UNL     1      -9.772   7.567   3.348  1.00  0.00    -0.398 N
ATOM     29  H8  UNL     1     -10.116   6.792   2.781  1.00  0.00     0.158 HD
BRANCH  28  30
HETATM   30  C7  UNL     1      -9.666   8.861   2.804  1.00  0.00     0.083 C
BRANCH  30  31
HETATM   31  C8  UNL     1      -9.459   9.954   3.831  1.00  0.00     0.237 C
BRANCH  31  32
HETATM   32  O4  UNL     1      -8.129  10.372   3.850  1.00  0.00    -0.252 OA
BRANCH  32  33
HETATM   33  S2  UNL     1      -7.763  11.351   5.135  1.00  0.00     0.251 S
HETATM   34  O5  UNL     1      -9.011  11.583   5.949  1.00  0.00    -0.572 OA
HETATM   35  O6  UNL     1      -7.272  12.669   4.555  1.00  0.00    -0.572 OA
HETATM   36  O7  UNL     1      -6.596  10.665   6.116  1.00  0.00    -0.572 OA
ENDBRANCH  32  33
ENDBRANCH  31  32
ENDBRANCH  30  31
ENDBRANCH  28  30
ENDBRANCH  27  28
ENDBRANCH  26  27
ENDBRANCH  25  26
ENDBRANCH   8  25
TORSDOF 12
ENDMDL