MODEL 2
REMARK VINA RESULT: -7.608521011      2.904      4.943
REMARK  10 active torsions:
REMARK  status: ('A' for Active; 'I' for Inactive)
REMARK    1  A    between atoms: C1_2  and  C2_4
REMARK    2  A    between atoms: N6_15  and  C5_16
REMARK    3  A    between atoms: C5_16  and  C6_17
REMARK       I    between atoms: C6_17  and  N7_19
REMARK    4  A    between atoms: N7_19  and  C7_21
REMARK    5  A    between atoms: C7_21  and  C8_22
REMARK    6  A    between atoms: C7_21  and  C10_26
REMARK    7  A    between atoms: C8_22  and  C9_23
REMARK       I    between atoms: C10_26  and  N8_28
REMARK    8  A    between atoms: N8_28  and  C11_30
REMARK    9  A    between atoms: C11_30  and  C12_31
REMARK       I    between atoms: C12_31  and  N9_33
REMARK   10  A    between atoms: N9_33  and  S1_35
ROOT
HETATM    1  C6  UNL     1      -9.417   2.631  -1.327  1.00  0.00     0.238 C
HETATM    2  O2  UNL     1      -9.142   2.995  -2.516  1.00  0.00    -0.272 OA
HETATM    3  N7  UNL     1     -10.392   3.285  -0.543  1.00  0.00    -0.346 N
ATOM      4  H7  UNL     1     -10.569   2.964   0.409  1.00  0.00     0.163 HD
ENDROOT
BRANCH   1   5
HETATM    5  C5  UNL     1      -8.635   1.477  -0.837  1.00  0.00     0.256 C
BRANCH   5   6
HETATM    6  N6  UNL     1      -7.484   1.999  -0.104  1.00  0.00    -0.232 N
HETATM    7  N5  UNL     1      -6.699   2.930  -0.577  1.00  0.00    -0.237 N
HETATM    8  N4  UNL     1      -5.654   3.410   0.078  1.00  0.00    -0.287 N
ATOM      9  H5  UNL     1      -6.902   3.307  -1.503  1.00  0.00     0.208 HD
HETATM   10  C4  UNL     1      -5.337   2.945   1.320  1.00  0.00     0.066 A
ATOM     11  H4  UNL     1      -5.081   4.137  -0.351  1.00  0.00     0.188 HD
HETATM   12  C3  UNL     1      -6.150   1.968   1.833  1.00  0.00     0.142 A
HETATM   13  C14 UNL     1      -4.175   3.482   2.058  1.00  0.00     0.125 A
HETATM   14  N3  UNL     1      -5.894   1.420   3.124  1.00  0.00    -0.294 N
HETATM   15  C13 UNL     1      -7.236   1.479   1.130  1.00  0.00     0.293 A
HETATM   16  N2  UNL     1      -4.801   1.907   3.834  1.00  0.00    -0.299 N
ATOM     17  H3  UNL     1      -6.493   0.693   3.515  1.00  0.00     0.187 HD
HETATM   18  C2  UNL     1      -4.019   2.832   3.367  1.00  0.00     0.096 A
ATOM     19  H2  UNL     1      -4.606   1.523   4.758  1.00  0.00     0.186 HD
HETATM   20  O10 UNL     1      -8.004   0.581   1.571  1.00  0.00    -0.264 OA
BRANCH  18  21
HETATM   21  C1  UNL     1      -2.918   3.237   4.232  1.00  0.00     0.279 C
HETATM   22  N1  UNL     1      -1.559   3.061   3.800  1.00  0.00    -0.056 NA
HETATM   23  O1  UNL     1      -3.172   3.733   5.343  1.00  0.00    -0.270 OA
ENDBRANCH  18  21
ENDBRANCH   5   6
ENDBRANCH   1   5
BRANCH   3  24
HETATM   24  C7  UNL     1     -11.167   4.435  -1.083  1.00  0.00     0.186 C
BRANCH  24  25
HETATM   25  C8  UNL     1     -12.505   3.960  -1.428  1.00  0.00     0.147 C
BRANCH  25  26
HETATM   26  C9  UNL     1     -13.069   2.832  -0.694  1.00  0.00     0.175 C
HETATM   27  O3  UNL     1     -13.088   2.674   0.553  1.00  0.00    -0.648 OA
HETATM   28  O4  UNL     1     -13.657   1.800  -1.423  1.00  0.00    -0.648 OA
ENDBRANCH  25  26
ENDBRANCH  24  25
BRANCH  24  29
HETATM   29  C10 UNL     1     -11.021   5.540  -0.128  1.00  0.00     0.241 C
HETATM   30  O5  UNL     1     -11.925   6.431  -0.163  1.00  0.00    -0.271 OA
HETATM   31  N8  UNL     1      -9.991   5.685   0.788  1.00  0.00    -0.350 N
ATOM     32  H8  UNL     1      -9.240   4.997   0.844  1.00  0.00     0.163 HD
BRANCH  31  33
HETATM   33  C11 UNL     1     -10.006   6.866   1.686  1.00  0.00     0.226 C
BRANCH  33  34
HETATM   34  C12 UNL     1      -8.769   6.843   2.498  1.00  0.00     0.250 C
HETATM   35  O6  UNL     1      -8.058   7.878   2.667  1.00  0.00    -0.271 OA
HETATM   36  N9  UNL     1      -8.367   5.615   3.112  1.00  0.00    -0.234 N
ATOM     37  H9  UNL     1      -8.927   4.771   2.989  1.00  0.00     0.184 HD
BRANCH  36  38
HETATM   38  S1  UNL     1      -6.931   5.573   4.061  1.00  0.00     0.211 S
HETATM   39  O7  UNL     1      -5.723   5.970   3.255  1.00  0.00    -0.578 OA
HETATM   40  O8  UNL     1      -6.686   4.178   4.595  1.00  0.00    -0.578 OA
HETATM   41  O9  UNL     1      -7.044   6.660   5.365  1.00  0.00    -0.578 OA
ENDBRANCH  36  38
ENDBRANCH  33  34
ENDBRANCH  31  33
ENDBRANCH  24  29
ENDBRANCH   3  24
TORSDOF 10
ENDMDL