MODEL 2
REMARK VINA RESULT: -7.073483095      2.329      6.608
REMARK  14 active torsions:
REMARK  status: ('A' for Active; 'I' for Inactive)
REMARK    1  A    between atoms: C2_2  and  N1_3
REMARK    2  A    between atoms: C2_2  and  C3_7
REMARK       I    between atoms: C3_7  and  N2_9
REMARK    3  A    between atoms: N2_9  and  N3_11
REMARK       I    between atoms: N3_11  and  C5_13
REMARK    4  A    between atoms: C5_13  and  C6_15
REMARK    5  A    between atoms: C6_15  and  O3_16
REMARK    6  A    between atoms: O3_16  and  C7_17
REMARK    7  A    between atoms: C7_17  and  C8_19
REMARK       I    between atoms: N4_21  and  C10_22
REMARK    8  A    between atoms: C10_22  and  C11_24
REMARK    9  A    between atoms: C11_24  and  C12_25
REMARK   10  A    between atoms: C12_25  and  N5_26
REMARK   11  A    between atoms: C12_25  and  C15_41
REMARK   12  A    between atoms: N5_26  and  C13_28
REMARK   13  A    between atoms: C13_28  and  N6_29
REMARK   14  A    between atoms: C13_28  and  C14_33
ROOT
HETATM    1  C8  UNL     1      -6.987   3.924  -0.058  1.00  0.00     0.139 A
HETATM    2  C9  UNL     1      -6.020   3.740   0.908  1.00  0.00     0.154 A
HETATM    3  N4  UNL     1      -6.061   4.747   1.825  1.00  0.00    -0.213 N
HETATM    4  C10 UNL     1      -5.230   4.882   2.992  1.00  0.00     0.263 C
HETATM    5  O5  UNL     1      -5.445   5.867   3.693  1.00  0.00    -0.267 OA
HETATM    6  N12 UNL     1      -7.045   5.522   1.404  1.00  0.00    -0.012 NA
HETATM    7  N13 UNL     1      -7.601   5.051   0.296  1.00  0.00    -0.277 N
ATOM      8  H13 UNL     1      -8.376   5.485  -0.207  1.00  0.00     0.184 HD
ENDROOT
BRANCH   4   9
HETATM    9  C11 UNL     1      -4.257   3.852   3.199  1.00  0.00     0.083 C
BRANCH   9  10
HETATM   10  C12 UNL     1      -3.838   3.369   4.517  1.00  0.00     0.197 C
BRANCH  10  11
HETATM   11  N5  UNL     1      -2.498   3.656   4.898  1.00  0.00    -0.374 N
ATOM     12  H5  UNL     1      -2.300   4.321   5.645  1.00  0.00     0.156 HD
BRANCH  11  13
HETATM   13  C13 UNL     1      -1.441   2.996   4.217  1.00  0.00     0.349 C
BRANCH  13  14
HETATM   14  N6  UNL     1      -0.673   2.287   5.260  1.00  0.00    -0.051 N
ATOM     15  H63 UNL     1      -1.237   2.006   6.063  1.00  0.00     0.277 HD
ATOM     16  H62 UNL     1      -0.378   1.350   4.985  1.00  0.00     0.277 HD
ATOM     17  H61 UNL     1       0.101   2.905   5.501  1.00  0.00     0.277 HD
ENDBRANCH  13  14
BRANCH  13  18
HETATM   18  C14 UNL     1      -0.509   3.918   3.523  1.00  0.00     0.160 A
HETATM   19  N7  UNL     1       0.668   4.429   3.904  1.00  0.00    -0.267 N
HETATM   20  N8  UNL     1       1.155   5.216   2.950  1.00  0.00    -0.005 NA
ATOM     21  H7  UNL     1       1.124   4.243   4.797  1.00  0.00     0.185 HD
HETATM   22  N9  UNL     1       0.292   5.227   1.934  1.00  0.00    -0.225 N
HETATM   23  N10 UNL     1      -0.707   4.443   2.286  1.00  0.00    -0.272 N
ATOM     24  H9  UNL     1       0.386   5.740   1.058  1.00  0.00     0.205 HD
ATOM     25  H10 UNL     1      -1.524   4.254   1.705  1.00  0.00     0.189 HD
ENDBRANCH  13  18
ENDBRANCH  11  13
ENDBRANCH  10  11
BRANCH  10  26
HETATM   26  C15 UNL     1      -4.025   1.901   4.569  1.00  0.00     0.257 C
HETATM   27  N11 UNL     1      -3.797   1.178   5.746  1.00  0.00    -0.060 NA
HETATM   28  O6  UNL     1      -4.390   1.295   3.538  1.00  0.00    -0.274 OA
ENDBRANCH  10  26
ENDBRANCH   9  10
ENDBRANCH   4   9
BRANCH   1  29
HETATM   29  C7  UNL     1      -7.212   3.001  -1.168  1.00  0.00     0.312 C
HETATM   30  O4  UNL     1      -6.283   2.285  -1.649  1.00  0.00    -0.258 OA
BRANCH  29  31
HETATM   31  O3  UNL     1      -8.460   2.873  -1.748  1.00  0.00    -0.307 OA
BRANCH  31  32
HETATM   32  C6  UNL     1      -9.605   2.318  -1.222  1.00  0.00     0.283 C
BRANCH  32  33
HETATM   33  C5  UNL     1      -9.466   1.283  -0.199  1.00  0.00     0.262 C
HETATM   34  N3  UNL     1      -9.830   1.593   1.137  1.00  0.00    -0.261 N
HETATM   35  C4  UNL     1     -10.290   2.923   1.476  1.00  0.00     0.181 C
HETATM   36  O2  UNL     1      -9.039   0.119  -0.433  1.00  0.00    -0.269 OA
BRANCH  34  37
HETATM   37  N2  UNL     1      -9.752   0.646   2.150  1.00  0.00    -0.264 N
HETATM   38  C3  UNL     1      -8.595   0.596   2.974  1.00  0.00     0.266 C
HETATM   39  O1  UNL     1      -7.639   1.412   2.779  1.00  0.00    -0.269 OA
ATOM     40  H2  UNL     1     -10.520  -0.008   2.302  1.00  0.00     0.190 HD
BRANCH  38  41
HETATM   41  C2  UNL     1      -8.502  -0.400   4.046  1.00  0.00     0.272 C
HETATM   42  C1  UNL     1      -8.342   0.325   5.369  1.00  0.00     0.050 C
BRANCH  41  43
HETATM   43  N1  UNL     1      -7.367  -1.274   3.850  1.00  0.00    -0.067 N
ATOM     44  H13 UNL     1      -6.529  -0.934   4.321  1.00  0.00     0.275 HD
ATOM     45  H12 UNL     1      -7.465  -2.157   4.352  1.00  0.00     0.275 HD
ATOM     46  H11 UNL     1      -7.223  -1.410   2.849  1.00  0.00     0.275 HD
ENDBRANCH  41  43
ENDBRANCH  38  41
ENDBRANCH  34  37
ENDBRANCH  32  33
ENDBRANCH  31  32
ENDBRANCH  29  31
ENDBRANCH   1  29
TORSDOF 14
ENDMDL