MODEL 2
REMARK VINA RESULT: -7.470743813      2.165      4.456
REMARK  13 active torsions:
REMARK  status: ('A' for Active; 'I' for Inactive)
REMARK    1  A    between atoms: C2_9  and  N5_10
REMARK    2  A    between atoms: N5_10  and  C3_12
REMARK    3  A    between atoms: C3_12  and  O1_13
REMARK    4  A    between atoms: C3_12  and  C4_15
REMARK    5  A    between atoms: C4_15  and  C5_16
REMARK    6  A    between atoms: C4_15  and  N7_20
REMARK    7  A    between atoms: C5_16  and  C6_17
REMARK       I    between atoms: N7_20  and  C7_22
REMARK    8  A    between atoms: C7_22  and  C8_24
REMARK    9  A    between atoms: C8_24  and  C9_25
REMARK   10  A    between atoms: C9_25  and  C10_26
REMARK   11  A    between atoms: C10_26  and  N8_27
REMARK   12  A    between atoms: C10_26  and  C16_43
REMARK   13  A    between atoms: N8_27  and  C11_29
ROOT
HETATM    1  N7  UNL     1      -5.711   2.710   2.432  1.00  0.00    -0.352 N
ATOM      2  H7  UNL     1      -5.398   3.607   2.058  1.00  0.00     0.163 HD
HETATM    3  C7  UNL     1      -6.097   1.732   1.512  1.00  0.00     0.218 C
HETATM    4  O3  UNL     1      -6.488   0.624   1.927  1.00  0.00    -0.274 OA
ENDROOT
BRANCH   3   5
HETATM    5  C8  UNL     1      -6.047   2.003   0.068  1.00  0.00     0.105 C
BRANCH   5   6
HETATM    6  C9  UNL     1      -7.295   1.795  -0.700  1.00  0.00     0.046 C
BRANCH   6   7
HETATM    7  C10 UNL     1      -8.584   2.215  -0.104  1.00  0.00     0.201 C
BRANCH   7   8
HETATM    8  N8  UNL     1      -8.999   3.497  -0.540  1.00  0.00    -0.209 N
ATOM      9  H8  UNL     1      -8.631   3.723  -1.464  1.00  0.00     0.178 HD
BRANCH   8  10
HETATM   10  C11 UNL     1      -9.706   4.424  -0.077  1.00  0.00     0.719 A
HETATM   11  N9  UNL     1      -9.314   5.287   0.856  1.00  0.00    -0.138 N
HETATM   12  C12 UNL     1     -10.177   6.262   1.288  1.00  0.00     0.354 A
ATOM     13  H9  UNL     1      -8.374   5.224   1.249  1.00  0.00     0.189 HD
HETATM   14  O4  UNL     1      -9.738   7.049   2.179  1.00  0.00    -0.245 OA
HETATM   15  N10 UNL     1     -11.414   6.349   0.773  1.00  0.00    -0.134 N
HETATM   16  C13 UNL     1     -12.307   7.379   1.239  1.00  0.00     0.180 C
HETATM   17  C14 UNL     1     -11.793   5.469  -0.169  1.00  0.00     0.725 A
HETATM   18  N11 UNL     1     -12.964   5.335  -0.842  1.00  0.00    -0.184 N
HETATM   19  N13 UNL     1     -10.979   4.516  -0.606  1.00  0.00     0.091 N
HETATM   20  C15 UNL     1     -12.853   4.287  -1.694  1.00  0.00     0.216 A
ATOM     21  H11 UNL     1     -13.789   5.924  -0.725  1.00  0.00     0.185 HD
HETATM   22  N12 UNL     1     -11.610   3.806  -1.518  1.00  0.00    -0.260 N
ATOM     23  H12 UNL     1     -11.214   3.009  -2.017  1.00  0.00     0.189 HD
ENDBRANCH   8  10
ENDBRANCH   7   8
BRANCH   7  24
HETATM   24  C16 UNL     1      -9.625   1.176  -0.215  1.00  0.00     0.197 C
HETATM   25  O5  UNL     1     -10.627   1.214  -0.959  1.00  0.00    -0.646 OA
HETATM   26  O6  UNL     1      -9.495   0.026   0.579  1.00  0.00    -0.646 OA
ENDBRANCH   7  24
ENDBRANCH   6   7
ENDBRANCH   5   6
ENDBRANCH   3   5
BRANCH   1  27
HETATM   27  C4  UNL     1      -5.719   2.558   3.869  1.00  0.00     0.141 C
BRANCH  27  28
HETATM   28  C3  UNL     1      -4.409   2.094   4.423  1.00  0.00     0.258 C
BRANCH  28  29
HETATM   29  N5  UNL     1      -3.468   3.180   4.554  1.00  0.00    -0.195 N
ATOM     30  H5  UNL     1      -3.550   3.773   5.380  1.00  0.00     0.180 HD
BRANCH  29  31
HETATM   31  C2  UNL     1      -2.528   3.465   3.712  1.00  0.00     0.713 A
HETATM   32  N1  UNL     1      -1.201   3.459   4.058  1.00  0.00    -0.111 N
HETATM   33  C1  UNL     1      -0.674   3.135   5.391  1.00  0.00     0.199 C
HETATM   34  N2  UNL     1      -0.527   3.790   2.980  1.00  0.00    -0.211 N
HETATM   35  N3  UNL     1      -1.359   4.005   1.980  1.00  0.00    -0.213 N
ATOM     36  H2  UNL     1       0.488   3.870   2.925  1.00  0.00     0.210 HD
HETATM   37  N4  UNL     1      -2.595   3.807   2.415  1.00  0.00    -0.115 N
ATOM     38  H3  UNL     1      -1.096   4.277   1.033  1.00  0.00     0.210 HD
ATOM     39  H4  UNL     1      -3.448   3.899   1.862  1.00  0.00     0.207 HD
ENDBRANCH  29  31
ENDBRANCH  28  29
BRANCH  28  40
HETATM   40  O1  UNL     1      -3.815   1.151   3.578  1.00  0.00    -0.374 OA
ATOM     41  H1  UNL     1      -4.462   0.471   3.434  1.00  0.00     0.212 HD
ENDBRANCH  28  40
ENDBRANCH  27  28
BRANCH  27  42
HETATM   42  C5  UNL     1      -6.316   3.742   4.570  1.00  0.00     0.129 C
BRANCH  42  43
HETATM   43  C6  UNL     1      -6.263   5.009   3.854  1.00  0.00     0.233 C
HETATM   44  N6  UNL     1      -5.060   5.756   3.917  1.00  0.00    -0.062 NA
HETATM   45  O2  UNL     1      -7.193   5.513   3.179  1.00  0.00    -0.277 OA
ENDBRANCH  42  43
ENDBRANCH  27  42
ENDBRANCH   1  27
TORSDOF 13
ENDMDL