MODEL 1
REMARK VINA RESULT: -7.185300645      0.000      0.000
REMARK  13 active torsions:
REMARK  status: ('A' for Active; 'I' for Inactive)
REMARK       I    between atoms: C2_2  and  N1_4
REMARK    1  A    between atoms: N1_4  and  N2_6
REMARK    2  A    between atoms: C4_9  and  N3_10
REMARK       I    between atoms: N3_10  and  C5_12
REMARK    3  A    between atoms: C5_12  and  C6_14
REMARK    4  A    between atoms: C6_14  and  N4_15
REMARK    5  A    between atoms: C6_14  and  C7_19
REMARK    6  A    between atoms: C7_19  and  S1_20
REMARK    7  A    between atoms: S1_20  and  N5_23
REMARK       I    between atoms: N5_23  and  C8_25
REMARK    8  A    between atoms: C8_25  and  C9_27
REMARK    9  A    between atoms: C9_27  and  C10_28
REMARK   10  A    between atoms: C10_28  and  O7_29
REMARK   11  A    between atoms: C10_28  and  N7_33
REMARK   12  A    between atoms: C12_38  and  C13_39
REMARK   13  A    between atoms: C13_39  and  N10_40
ROOT
HETATM    1  C10 UNL     1      -5.466   3.870   2.873  1.00  0.00     0.268 C
HETATM    2  C11 UNL     1      -5.845   4.961   3.791  1.00  0.00     0.125 C
HETATM    3  N6  UNL     1      -6.148   5.796   4.500  1.00  0.00    -0.192 NA
ENDROOT
BRANCH   1   4
HETATM    4  C9  UNL     1      -5.763   4.225   1.465  1.00  0.00     0.184 C
BRANCH   4   5
HETATM    5  C8  UNL     1      -6.317   3.138   0.625  1.00  0.00     0.236 C
HETATM    6  N5  UNL     1      -7.444   3.268  -0.183  1.00  0.00    -0.254 N
ATOM      7  H5  UNL     1      -7.938   4.160  -0.212  1.00  0.00     0.181 HD
HETATM    8  O6  UNL     1      -5.705   2.029   0.664  1.00  0.00    -0.272 OA
BRANCH   6   9
HETATM    9  S1  UNL     1      -8.017   1.965  -1.126  1.00  0.00     0.235 S
HETATM   10  O4  UNL     1      -8.806   2.446  -2.338  1.00  0.00    -0.205 OA
HETATM   11  O5  UNL     1      -6.839   1.187  -1.690  1.00  0.00    -0.205 OA
BRANCH   9  12
HETATM   12  C7  UNL     1      -9.072   0.858  -0.254  1.00  0.00     0.206 C
BRANCH  12  13
HETATM   13  C6  UNL     1      -9.144   1.258   1.183  1.00  0.00     0.290 C
BRANCH  13  14
HETATM   14  C5  UNL     1      -8.879   0.149   2.131  1.00  0.00     0.251 C
HETATM   15  N3  UNL     1      -7.862   0.296   3.092  1.00  0.00    -0.329 N
ATOM     16  H3  UNL     1      -7.334   1.168   3.106  1.00  0.00     0.165 HD
HETATM   17  O3  UNL     1      -9.557  -0.894   2.061  1.00  0.00    -0.271 OA
BRANCH  15  18
HETATM   18  C4  UNL     1      -7.525  -0.728   4.067  1.00  0.00     0.306 A
HETATM   19  N2  UNL     1      -6.476  -0.406   5.010  1.00  0.00    -0.222 N
HETATM   20  C3  UNL     1      -6.210  -1.360   3.910  1.00  0.00     0.285 A
HETATM   21  O2  UNL     1      -5.463  -2.131   3.290  1.00  0.00    -0.267 OA
BRANCH  19  22
HETATM   22  N1  UNL     1      -5.885   0.211   6.109  1.00  0.00    -0.263 N
HETATM   23  C2  UNL     1      -4.641   0.872   6.008  1.00  0.00     0.232 C
HETATM   24  C1  UNL     1      -4.074   1.516   7.230  1.00  0.00     0.119 C
HETATM   25  O1  UNL     1      -3.992   0.945   4.941  1.00  0.00    -0.272 OA
ATOM     26  H1  UNL     1      -6.362   0.185   7.010  1.00  0.00     0.190 HD
ENDBRANCH  19  22
ENDBRANCH  15  18
ENDBRANCH  13  14
BRANCH  13  27
HETATM   27  N4  UNL     1     -10.386   1.922   1.465  1.00  0.00    -0.066 N
ATOM     28  H43 UNL     1     -11.145   1.251   1.585  1.00  0.00     0.275 HD
ATOM     29  H42 UNL     1     -10.383   2.330   2.400  1.00  0.00     0.275 HD
ATOM     30  H41 UNL     1     -10.616   2.619   0.757  1.00  0.00     0.275 HD
ENDBRANCH  13  27
ENDBRANCH  12  13
ENDBRANCH   9  12
ENDBRANCH   6   9
ENDBRANCH   4   5
ENDBRANCH   1   4
BRANCH   1  31
HETATM   31  O7  UNL     1      -5.977   2.657   3.292  1.00  0.00    -0.356 OA
ATOM     32  H7  UNL     1      -5.718   2.390   4.167  1.00  0.00     0.213 HD
ENDBRANCH   1  31
BRANCH   1  33
HETATM   33  N7  UNL     1      -4.009   3.755   2.966  1.00  0.00    -0.166 N
HETATM   34  N8  UNL     1      -3.217   3.818   1.913  1.00  0.00    -0.221 N
HETATM   35  N9  UNL     1      -1.985   3.676   2.286  1.00  0.00    -0.271 N
ATOM     36  H8  UNL     1      -3.528   3.957   0.951  1.00  0.00     0.210 HD
HETATM   37  C12 UNL     1      -1.937   3.514   3.617  1.00  0.00     0.139 A
ATOM     38  H9  UNL     1      -1.177   3.685   1.663  1.00  0.00     0.190 HD
HETATM   39  N11 UNL     1      -3.245   3.571   4.018  1.00  0.00    -0.265 N
ATOM     40  H11 UNL     1      -3.574   3.485   4.979  1.00  0.00     0.190 HD
BRANCH  37  41
HETATM   41  C13 UNL     1      -0.727   3.309   4.449  1.00  0.00     0.308 C
BRANCH  41  42
HETATM   42  N10 UNL     1      -1.040   2.299   5.446  1.00  0.00    -0.073 N
ATOM     43 3H10 UNL     1      -1.940   1.846   5.283  1.00  0.00     0.274 HD
ATOM     44 2H10 UNL     1      -0.455   1.467   5.364  1.00  0.00     0.274 HD
ATOM     45 1H10 UNL     1      -0.979   2.738   6.365  1.00  0.00     0.274 HD
ENDBRANCH  41  42
ENDBRANCH  37  41
ENDBRANCH   1  33
TORSDOF 13
ENDMDL