MODEL 4
REMARK VINA RESULT: -8.749068065      1.282      3.212
REMARK  15 active torsions:
REMARK  status: ('A' for Active; 'I' for Inactive)
REMARK    1  A    between atoms: C2_2  and  C3_3
REMARK    2  A    between atoms: C3_3  and  C4_4
REMARK    3  A    between atoms: C4_4  and  O1_5
REMARK    4  A    between atoms: C4_4  and  C7_8
REMARK    5  A    between atoms: O1_5  and  C5_6
REMARK       I    between atoms: C7_8  and  N1_10
REMARK    6  A    between atoms: N1_10  and  C8_12
REMARK    7  A    between atoms: C8_12  and  O3_13
REMARK    8  A    between atoms: C8_12  and  N2_15
REMARK    9  A    between atoms: C13_22  and  C14_23
REMARK   10  A    between atoms: C14_23  and  C15_24
REMARK   11  A    between atoms: C14_23  and  N5_32
REMARK   12  A    between atoms: C15_24  and  C16_25
REMARK   13  A    between atoms: C16_25  and  C17_26
REMARK   14  A    between atoms: C17_26  and  N4_27
REMARK       I    between atoms: N4_27  and  C18_29
REMARK   15  A    between atoms: N5_32  and  C20_34
ROOT
HETATM    1  N2  UNL     1       8.258 -16.717  -3.929  1.00  0.00    -0.235 N
HETATM    2  C9  UNL     1       9.052 -16.376  -5.073  1.00  0.00     0.156 C
HETATM    3  C10 UNL     1       9.454 -14.924  -4.963  1.00  0.00     0.044 C
HETATM    4  C11 UNL     1       8.656 -14.263  -3.819  1.00  0.00     0.156 C
HETATM    5  N3  UNL     1       8.965 -14.934  -2.582  1.00  0.00    -0.236 N
HETATM    6  C12 UNL     1       9.421 -14.677  -1.367  1.00  0.00     0.277 A
HETATM    7  O4  UNL     1       9.712 -13.521  -0.920  1.00  0.00    -0.266 OA
HETATM    8  C13 UNL     1       9.543 -15.876  -0.637  1.00  0.00     0.075 A
HETATM    9  C28 UNL     1       9.116 -16.856  -1.502  1.00  0.00     0.156 A
HETATM   10  N7  UNL     1       8.784 -16.266  -2.644  1.00  0.00    -0.197 N
ENDROOT
BRANCH   8  11
HETATM   11  C14 UNL     1       9.957 -15.930   0.765  1.00  0.00     0.028 C
BRANCH  11  12
HETATM   12  C15 UNL     1      11.457 -16.306   0.791  1.00  0.00     0.060 C
BRANCH  12  13
HETATM   13  C16 UNL     1      12.361 -15.284   0.291  1.00  0.00     0.026 C
BRANCH  13  14
HETATM   14  C17 UNL     1      12.725 -14.132   1.185  1.00  0.00     0.123 C
BRANCH  14  15
HETATM   15  N4  UNL     1      13.409 -14.473   2.387  1.00  0.00    -0.361 N
HETATM   16  C18 UNL     1      13.254 -13.938   3.661  1.00  0.00     0.213 C
HETATM   17  C19 UNL     1      13.968 -14.418   4.857  1.00  0.00     0.117 C
HETATM   18  O5  UNL     1      12.447 -12.964   3.865  1.00  0.00    -0.274 OA
ATOM     19  H4  UNL     1      14.109 -15.210   2.302  1.00  0.00     0.162 HD
ENDBRANCH  14  15
ENDBRANCH  13  14
ENDBRANCH  12  13
ENDBRANCH  11  12
BRANCH  11  20
HETATM   20  N5  UNL     1       9.526 -14.987   1.683  1.00  0.00    -0.349 N
ATOM     21  H5  UNL     1       9.272 -14.061   1.342  1.00  0.00     0.167 HD
BRANCH  20  22
HETATM   22  C20 UNL     1       9.419 -15.252   3.114  1.00  0.00     0.077 C
HETATM   23  N6  UNL     1       9.751 -14.417   4.007  1.00  0.00    -0.370 N
HETATM   24  C21 UNL     1       9.538 -14.939   5.359  1.00  0.00     0.032 C
ATOM     25  H6  UNL     1      10.123 -13.489   3.807  1.00  0.00     0.161 HD
HETATM   26  C22 UNL     1       9.004 -13.919   6.314  1.00  0.00     0.031 C
HETATM   27  C25 UNL     1      10.775 -15.545   5.943  1.00  0.00     0.031 C
HETATM   28  C26 UNL     1       8.485 -16.050   5.114  1.00  0.00     0.038 C
HETATM   29  C23 UNL     1       9.815 -14.096   7.593  1.00  0.00     0.002 C
HETATM   30  C24 UNL     1      11.138 -14.670   7.112  1.00  0.00     0.002 C
HETATM   31  C27 UNL     1       8.900 -16.505   3.759  1.00  0.00     0.078 C
ENDBRANCH  20  22
ENDBRANCH  11  20
ENDBRANCH   8  11
BRANCH   1  32
HETATM   32  C8  UNL     1       7.104 -17.484  -3.807  1.00  0.00     0.242 C
BRANCH  32  33
HETATM   33  N1  UNL     1       5.946 -17.241  -3.097  1.00  0.00    -0.289 N
HETATM   34  C7  UNL     1       5.123 -18.029  -2.305  1.00  0.00     0.253 C
HETATM   35  O2  UNL     1       5.390 -19.243  -2.048  1.00  0.00    -0.270 OA
ATOM     36  H1  UNL     1       5.627 -16.275  -3.170  1.00  0.00     0.172 HD
BRANCH  34  37
HETATM   37  C4  UNL     1       3.853 -17.593  -1.657  1.00  0.00     0.213 C
BRANCH  37  38
HETATM   38  C3  UNL     1       4.240 -16.460  -0.699  1.00  0.00     0.041 C
BRANCH  38  39
HETATM   39  C2  UNL     1       4.905 -16.846   0.552  1.00  0.00    -0.002 C
HETATM   40  C1  UNL     1       6.174 -16.117   0.885  1.00  0.00     0.005 C
ENDBRANCH  38  39
ENDBRANCH  37  38
BRANCH  37  41
HETATM   41  O1  UNL     1       2.816 -17.234  -2.461  1.00  0.00    -0.377 OA
BRANCH  41  42
HETATM   42  C5  UNL     1       2.377 -18.142  -3.377  1.00  0.00     0.164 C
HETATM   43  C6  UNL     1       2.398 -17.563  -4.790  1.00  0.00     0.033 C
ENDBRANCH  41  42
ENDBRANCH  37  41
ENDBRANCH  34  37
ENDBRANCH  32  33
BRANCH  32  44
HETATM   44  O3  UNL     1       7.063 -18.648  -4.441  1.00  0.00    -0.331 OA
ATOM     45  H3  UNL     1       7.332 -19.367  -3.882  1.00  0.00     0.221 HD
ENDBRANCH  32  44
ENDBRANCH   1  32
TORSDOF 15
ENDMDL