MODEL 2
REMARK VINA RESULT: -8.158042155      2.033      3.112
REMARK  15 active torsions:
REMARK  status: ('A' for Active; 'I' for Inactive)
REMARK    1  A    between atoms: O1_2  and  C2_3
REMARK    2  A    between atoms: C2_3  and  C3_5
REMARK    3  A    between atoms: C3_5  and  C4_6
REMARK    4  A    between atoms: C3_5  and  N3_27
REMARK    5  A    between atoms: C4_6  and  C5_7
REMARK       I    between atoms: C5_7  and  N1_9
REMARK    6  A    between atoms: C9_13  and  C10_14
REMARK    7  A    between atoms: C10_14  and  O4_15
REMARK    8  A    between atoms: O4_15  and  C11_16
REMARK       I    between atoms: C11_16  and  N2_18
REMARK    9  A    between atoms: N2_18  and  C12_20
REMARK   10  A    between atoms: C12_20  and  C15_23
REMARK   11  A    between atoms: N3_27  and  C19_29
REMARK   12  A    between atoms: C19_29  and  C20_30
REMARK   13  A    between atoms: C20_30  and  C21_31
REMARK   14  A    between atoms: C21_31  and  N4_32
REMARK   15  A    between atoms: C27_38  and  C28_39
ROOT
HETATM    1  C4  UNL     1       7.953 -14.594   0.651  1.00  0.00     0.138 C
ENDROOT
BRANCH   1   2
HETATM    2  C3  UNL     1       7.300 -15.873   0.036  1.00  0.00     0.189 C
BRANCH   2   3
HETATM    3  C2  UNL     1       6.027 -16.144   0.751  1.00  0.00     0.281 C
HETATM    4  O2  UNL     1       6.009 -16.434   1.986  1.00  0.00    -0.263 OA
BRANCH   3   5
HETATM    5  O1  UNL     1       4.800 -16.097   0.107  1.00  0.00    -0.325 OA
HETATM    6  C1  UNL     1       4.531 -16.866  -1.060  1.00  0.00     0.213 C
ENDBRANCH   3   5
ENDBRANCH   2   3
BRANCH   2   7
HETATM    7  N3  UNL     1       8.259 -16.868   0.102  1.00  0.00    -0.388 N
ATOM      8  H3  UNL     1       8.709 -17.003   1.008  1.00  0.00     0.159 HD
BRANCH   7   9
HETATM    9  C19 UNL     1       8.676 -17.698  -0.917  1.00  0.00     0.058 C
BRANCH   9  10
HETATM   10  C20 UNL     1       8.817 -17.173  -2.310  1.00  0.00     0.074 C
BRANCH  10  11
HETATM   11  C21 UNL     1       7.621 -17.073  -3.141  1.00  0.00     0.278 C
BRANCH  11  12
HETATM   12  N4  UNL     1       7.802 -17.026  -4.554  1.00  0.00     0.103 N
HETATM   13  C22 UNL     1       6.552 -16.851  -5.238  1.00  0.00     0.273 C
HETATM   14  C23 UNL     1       6.625 -17.135  -6.707  1.00  0.00     0.030 C
HETATM   15  C24 UNL     1       7.083 -15.929  -7.459  1.00  0.00     0.002 C
HETATM   16  C25 UNL     1       8.577 -15.833  -7.488  1.00  0.00     0.003 C
HETATM   17  C26 UNL     1       9.255 -16.612  -6.399  1.00  0.00     0.047 C
HETATM   18  C27 UNL     1       8.856 -16.176  -5.007  1.00  0.00     0.322 C
BRANCH  18  19
HETATM   19  C28 UNL     1       8.612 -14.734  -4.895  1.00  0.00     0.207 C
HETATM   20  O6  UNL     1       9.637 -13.985  -4.970  1.00  0.00    -0.646 OA
HETATM   21  O7  UNL     1       7.414 -14.099  -4.717  1.00  0.00    -0.646 OA
ENDBRANCH  18  19
ENDBRANCH  11  12
ENDBRANCH  10  11
ENDBRANCH   9  10
ENDBRANCH   7   9
ENDBRANCH   2   7
ENDBRANCH   1   2
BRANCH   1  22
HETATM   22  C5  UNL     1       9.039 -14.094  -0.210  1.00  0.00     0.222 C
HETATM   23  O3  UNL     1       8.779 -13.900  -1.422  1.00  0.00    -0.273 OA
HETATM   24  N1  UNL     1      10.349 -13.822   0.260  1.00  0.00    -0.345 N
HETATM   25  C6  UNL     1      11.452 -13.345  -0.526  1.00  0.00     0.126 C
HETATM   26  C9  UNL     1      10.877 -13.919   1.622  1.00  0.00     0.111 C
HETATM   27  C7  UNL     1      12.186 -12.398   0.371  1.00  0.00     0.022 C
HETATM   28  C8  UNL     1      11.750 -12.743   1.775  1.00  0.00     0.029 C
BRANCH  26  29
HETATM   29  C10 UNL     1      11.355 -15.230   2.034  1.00  0.00     0.206 C
BRANCH  29  30
HETATM   30  O4  UNL     1      10.652 -16.018   2.888  1.00  0.00    -0.302 OA
BRANCH  30  31
HETATM   31  C11 UNL     1       9.878 -15.791   3.969  1.00  0.00     0.361 C
HETATM   32  O5  UNL     1       8.686 -16.156   3.941  1.00  0.00    -0.238 OA
HETATM   33  N2  UNL     1      10.308 -15.160   5.168  1.00  0.00    -0.328 N
ATOM     34  H2  UNL     1      11.279 -14.851   5.191  1.00  0.00     0.165 HD
BRANCH  33  35
HETATM   35  C12 UNL     1       9.543 -14.908   6.342  1.00  0.00     0.034 C
HETATM   36  C13 UNL     1       8.548 -16.024   6.625  1.00  0.00     0.039 C
HETATM   37  C14 UNL     1       8.632 -13.696   5.989  1.00  0.00     0.039 C
BRANCH  35  38
HETATM   38  C15 UNL     1      10.248 -14.503   7.575  1.00  0.00    -0.027 C
HETATM   39  C16 UNL     1       9.486 -15.024   8.804  1.00  0.00     0.017 C
HETATM   40  C17 UNL     1      11.655 -15.008   7.766  1.00  0.00     0.017 C
HETATM   41  C18 UNL     1      10.355 -12.976   7.691  1.00  0.00     0.017 C
ENDBRANCH  35  38
ENDBRANCH  33  35
ENDBRANCH  30  31
ENDBRANCH  29  30
ENDBRANCH  26  29
ENDBRANCH   1  22
TORSDOF 15
ENDMDL