MODEL 3
REMARK VINA RESULT: -9.552992918      3.150     11.152
REMARK  11 active torsions:
REMARK  status: ('A' for Active; 'I' for Inactive)
REMARK    1  A    between atoms: C2_2  and  C3_3
REMARK    2  A    between atoms: C3_3  and  N1_4
REMARK    3  A    between atoms: C6_10  and  C7_11
REMARK    4  A    between atoms: C7_11  and  S1_12
REMARK    5  A    between atoms: S1_12  and  C8_13
REMARK    6  A    between atoms: C8_13  and  C9_14
REMARK       I    between atoms: C9_14  and  N3_16
REMARK    7  A    between atoms: N3_16  and  C10_18
REMARK    8  A    between atoms: C16_24  and  C17_25
REMARK       I    between atoms: C17_25  and  N4_27
REMARK       I    between atoms: C18_29  and  N6_31
REMARK    9  A    between atoms: N6_31  and  C20_33
REMARK   10  A    between atoms: N8_38  and  C23_39
REMARK   11  A    between atoms: C23_39  and  C24_40
ROOT
HETATM    1  C8  UNL     1       9.776 -15.804  -5.582  1.00  0.00     0.177 C
ENDROOT
BRANCH   1   2
HETATM    2  S1  UNL     1       9.319 -14.911  -4.089  1.00  0.00    -0.152 SA
BRANCH   2   3
HETATM    3  C7  UNL     1       9.161 -16.098  -2.706  1.00  0.00     0.150 C
BRANCH   3   4
HETATM    4  C6  UNL     1       9.733 -15.521  -1.461  1.00  0.00     0.092 A
HETATM    5  N2  UNL     1      10.275 -14.292  -1.363  1.00  0.00    -0.338 N
HETATM    6  C5  UNL     1      10.672 -14.125  -0.084  1.00  0.00     0.147 A
ATOM      7  H2  UNL     1      10.369 -13.612  -2.117  1.00  0.00     0.167 HD
HETATM    8  C4  UNL     1      11.272 -13.077   0.547  1.00  0.00     0.282 A
HETATM    9  C22 UNL     1      10.361 -15.284   0.605  1.00  0.00     0.145 A
HETATM   10  N1  UNL     1      11.561 -13.183   1.865  1.00  0.00    -0.264 N
HETATM   11  O1  UNL     1      11.552 -12.027  -0.079  1.00  0.00    -0.265 OA
HETATM   12  C26 UNL     1      11.242 -14.324   2.490  1.00  0.00     0.333 A
HETATM   13  N8  UNL     1      10.655 -15.378   1.920  1.00  0.00    -0.283 N
HETATM   14  O4  UNL     1      11.519 -14.410   3.733  1.00  0.00    -0.246 OA
HETATM   15  N7  UNL     1       9.778 -16.136  -0.280  1.00  0.00    -0.329 N
ATOM     16  H7  UNL     1       9.437 -17.075  -0.076  1.00  0.00     0.168 HD
BRANCH  10  17
HETATM   17  C3  UNL     1      12.203 -12.071   2.553  1.00  0.00     0.137 C
BRANCH  17  18
HETATM   18  C2  UNL     1      13.705 -12.382   2.542  1.00  0.00     0.016 C
HETATM   19  C1  UNL     1      14.375 -11.863   3.782  1.00  0.00     0.006 C
ENDBRANCH  17  18
ENDBRANCH  10  17
BRANCH  13  20
HETATM   20  C23 UNL     1      10.304 -16.606   2.600  1.00  0.00     0.135 C
BRANCH  20  21
HETATM   21  C24 UNL     1       9.004 -16.533   3.333  1.00  0.00     0.016 C
HETATM   22  C25 UNL     1       7.915 -15.799   2.626  1.00  0.00     0.006 C
ENDBRANCH  20  21
ENDBRANCH  13  20
ENDBRANCH   3   4
ENDBRANCH   2   3
ENDBRANCH   1   2
BRANCH   1  23
HETATM   23  C9  UNL     1       8.560 -16.412  -6.234  1.00  0.00     0.231 C
HETATM   24  O2  UNL     1       8.784 -17.296  -7.059  1.00  0.00    -0.272 OA
HETATM   25  N3  UNL     1       7.291 -15.947  -5.870  1.00  0.00    -0.326 N
ATOM     26  H3  UNL     1       7.253 -15.212  -5.164  1.00  0.00     0.169 HD
BRANCH  25  27
HETATM   27  C10 UNL     1       6.062 -16.400  -6.390  1.00  0.00     0.051 A
HETATM   28  C11 UNL     1       5.402 -15.708  -7.416  1.00  0.00     0.037 A
HETATM   29  C12 UNL     1       4.167 -16.086  -7.894  1.00  0.00    -0.060 A
HETATM   30  C13 UNL     1       3.528 -15.297  -8.991  1.00  0.00     0.048 C
HETATM   31  C14 UNL     1       3.580 -17.182  -7.330  1.00  0.00     0.008 A
HETATM   32  C15 UNL     1       4.204 -17.877  -6.324  1.00  0.00     0.020 A
HETATM   33  C16 UNL     1       5.461 -17.520  -5.816  1.00  0.00     0.059 A
BRANCH  33  34
HETATM   34  C17 UNL     1       6.071 -18.336  -4.790  1.00  0.00     0.260 C
HETATM   35  O3  UNL     1       6.513 -19.478  -4.834  1.00  0.00    -0.267 OA
HETATM   36  N4  UNL     1       6.197 -17.725  -3.466  1.00  0.00    -0.297 N
HETATM   37  C18 UNL     1       5.251 -17.917  -2.613  1.00  0.00     0.192 C
ATOM     38  H4  UNL     1       7.013 -17.162  -3.225  1.00  0.00     0.171 HD
HETATM   39  N5  UNL     1       4.121 -18.709  -2.975  1.00  0.00    -0.063 NA
HETATM   40  N6  UNL     1       5.254 -17.381  -1.310  1.00  0.00    -0.360 N
HETATM   41  C19 UNL     1       4.103 -16.669  -0.783  1.00  0.00     0.152 C
BRANCH  40  42
HETATM   42  C20 UNL     1       6.404 -17.517  -0.446  1.00  0.00     0.120 C
HETATM   43  C21 UNL     1       6.626 -18.902   0.064  1.00  0.00     0.026 C
ENDBRANCH  40  42
ENDBRANCH  33  34
ENDBRANCH  25  27
ENDBRANCH   1  23
TORSDOF 11
ENDMDL