MODEL 2
REMARK VINA RESULT: -8.977533538      2.283      3.842
REMARK  13 active torsions:
REMARK  status: ('A' for Active; 'I' for Inactive)
REMARK    1  A    between atoms: C2_2  and  C3_3
REMARK    2  A    between atoms: C3_3  and  C4_4
REMARK    3  A    between atoms: C4_4  and  C5_5
REMARK    4  A    between atoms: C5_5  and  C6_6
REMARK    5  A    between atoms: C6_6  and  C7_7
REMARK    6  A    between atoms: C7_7  and  N1_8
REMARK    7  A    between atoms: N1_8  and  C8_9
REMARK       I    between atoms: N1_8  and  C16_22
REMARK    8  A    between atoms: C8_9  and  C9_10
REMARK    9  A    between atoms: C9_10  and  C10_11
REMARK   10  A    between atoms: C10_11  and  N2_12
REMARK       I    between atoms: C16_22  and  N4_24
REMARK   11  A    between atoms: N4_24  and  C17_26
REMARK   12  A    between atoms: C18_29  and  N6_30
REMARK   13  A    between atoms: C21_37  and  N8_38
ROOT
HETATM    1  N1  UNL     1       8.668 -14.975  -2.220  1.00  0.00    -0.334 N
HETATM    2  C16 UNL     1       8.915 -14.032  -1.145  1.00  0.00     0.336 C
HETATM    3  O2  UNL     1       7.917 -13.686  -0.465  1.00  0.00    -0.246 OA
HETATM    4  N4  UNL     1      10.214 -13.535  -0.890  1.00  0.00    -0.141 N
ATOM      5  H4  UNL     1      10.671 -12.935  -1.576  1.00  0.00     0.189 HD
ENDROOT
BRANCH   4   6
HETATM    6  C17 UNL     1      10.824 -13.837   0.205  1.00  0.00     0.688 A
HETATM    7  N5  UNL     1      12.155 -14.071   0.290  1.00  0.00    -0.174 N
HETATM    8  C18 UNL     1      12.772 -14.386   1.442  1.00  0.00     0.144 A
ATOM      9  H5  UNL     1      12.715 -14.006  -0.559  1.00  0.00     0.186 HD
HETATM   10  C19 UNL     1      12.033 -14.481   2.617  1.00  0.00     0.104 A
HETATM   11  N7  UNL     1      12.576 -14.786   3.784  1.00  0.00    -0.359 N
HETATM   12  C27 UNL     1      10.678 -14.245   2.553  1.00  0.00     0.082 A
HETATM   13  C20 UNL     1      11.793 -14.861   4.885  1.00  0.00     0.117 A
ATOM     14  H7  UNL     1      13.577 -14.964   3.854  1.00  0.00     0.165 HD
HETATM   15  C21 UNL     1      10.440 -14.638   4.891  1.00  0.00     0.048 A
HETATM   16  C26 UNL     1       9.857 -14.317   3.673  1.00  0.00     0.063 A
HETATM   17  N9  UNL     1      10.141 -13.937   1.366  1.00  0.00    -0.189 N
ATOM     18  H9  UNL     1       9.137 -13.765   1.335  1.00  0.00     0.184 HD
BRANCH   8  19
HETATM   19  N6  UNL     1      14.030 -14.601   1.482  1.00  0.00    -0.383 N
ATOM     20  H62 UNL     1      14.441 -15.260   0.820  1.00  0.00     0.157 HD
ATOM     21  H61 UNL     1      14.627 -14.128   2.160  1.00  0.00     0.157 HD
ENDBRANCH   8  19
BRANCH  15  22
HETATM   22  N8  UNL     1       9.629 -14.716   6.070  1.00  0.00    -0.376 N
HETATM   23  C22 UNL     1       8.695 -15.827   6.256  1.00  0.00     0.149 C
HETATM   24  C23 UNL     1       8.628 -16.063   7.769  1.00  0.00     0.187 C
HETATM   25  O3  UNL     1       9.831 -15.780   8.383  1.00  0.00    -0.388 OA
HETATM   26  C24 UNL     1      10.106 -14.416   8.423  1.00  0.00     0.187 C
HETATM   27  C25 UNL     1       9.658 -13.739   7.123  1.00  0.00     0.149 C
ENDBRANCH  15  22
ENDBRANCH   4   6
BRANCH   1  28
HETATM   28  C7  UNL     1       9.759 -15.411  -3.014  1.00  0.00     0.127 C
BRANCH  28  29
HETATM   29  C6  UNL     1       9.736 -14.648  -4.353  1.00  0.00     0.020 C
BRANCH  29  30
HETATM   30  C5  UNL     1      10.263 -15.642  -5.401  1.00  0.00     0.002 C
BRANCH  30  31
HETATM   31  C4  UNL     1       9.525 -15.495  -6.689  1.00  0.00     0.000 C
BRANCH  31  32
HETATM   32  C3  UNL     1       8.588 -16.648  -6.906  1.00  0.00    -0.000 C
BRANCH  32  33
HETATM   33  C2  UNL     1       7.258 -16.157  -7.384  1.00  0.00    -0.005 C
HETATM   34  C1  UNL     1       6.570 -15.323  -6.284  1.00  0.00     0.005 C
ENDBRANCH  32  33
ENDBRANCH  31  32
ENDBRANCH  30  31
ENDBRANCH  29  30
ENDBRANCH  28  29
ENDBRANCH   1  28
BRANCH   1  35
HETATM   35  C8  UNL     1       7.327 -15.450  -2.374  1.00  0.00     0.129 C
BRANCH  35  36
HETATM   36  C9  UNL     1       7.287 -16.880  -2.754  1.00  0.00     0.050 C
BRANCH  36  37
HETATM   37  C10 UNL     1       6.077 -17.610  -2.336  1.00  0.00     0.276 C
BRANCH  37  38
HETATM   38  N2  UNL     1       6.185 -18.275  -1.054  1.00  0.00     0.116 N
HETATM   39  C11 UNL     1       5.147 -17.865  -0.170  1.00  0.00     0.300 C
HETATM   40  C12 UNL     1       5.228 -16.456   0.317  1.00  0.00     0.198 C
HETATM   41  O1  UNL     1       5.782 -16.389   1.618  1.00  0.00    -0.388 OA
HETATM   42  C13 UNL     1       7.041 -15.768   1.453  1.00  0.00     0.195 C
HETATM   43  C14 UNL     1       8.043 -16.899   1.357  1.00  0.00     0.260 C
HETATM   44  N3  UNL     1       7.408 -18.134   0.936  1.00  0.00    -0.047 N
HETATM   45  C15 UNL     1       7.504 -18.293  -0.519  1.00  0.00     0.502 C
ATOM     46  H32 UNL     1       7.786 -18.942   1.432  1.00  0.00     0.279 HD
ATOM     47  H31 UNL     1       6.443 -18.194   1.261  1.00  0.00     0.279 HD
ENDBRANCH  37  38
ENDBRANCH  36  37
ENDBRANCH  35  36
ENDBRANCH   1  35
TORSDOF 13
ENDMDL