MODEL 2
REMARK VINA RESULT: -7.019757356      5.471     11.129
REMARK  14 active torsions:
REMARK  status: ('A' for Active; 'I' for Inactive)
REMARK    1  A    between atoms: C2_2  and  N1_3
REMARK    2  A    between atoms: N1_3  and  C3_6
REMARK    3  A    between atoms: C3_6  and  C4_7
REMARK    4  A    between atoms: C4_7  and  C5_8
REMARK    5  A    between atoms: C5_8  and  C6_9
REMARK    6  A    between atoms: C6_9  and  C7_10
REMARK    7  A    between atoms: C9_13  and  N2_14
REMARK    8  A    between atoms: C12_21  and  C14_23
REMARK       I    between atoms: C14_23  and  N4_25
REMARK       I    between atoms: N5_28  and  C17_29
REMARK    9  A    between atoms: C17_29  and  C18_31
REMARK   10  A    between atoms: C21_34  and  O3_35
REMARK   11  A    between atoms: O3_35  and  C22_36
REMARK   12  A    between atoms: C24_38  and  C25_39
REMARK   13  A    between atoms: C25_39  and  O5_41
REMARK   14  A    between atoms: O5_41  and  C26_42
ROOT
HETATM    1  C7  UNL     1       7.798 -17.143  -3.397  1.00  0.00     0.042 C
HETATM    2  C8  UNL     1       8.325 -16.627  -4.700  1.00  0.00     0.014 A
HETATM    3  S1  UNL     1       9.345 -15.441  -5.360  1.00  0.00    -0.057 SA
HETATM    4  C9  UNL     1       9.122 -15.790  -7.012  1.00  0.00     0.142 A
HETATM    5  N3  UNL     1       8.269 -16.808  -6.979  1.00  0.00    -0.340 N
ATOM      6  H3  UNL     1       7.948 -17.236  -7.848  1.00  0.00     0.168 HD
HETATM    7  C10 UNL     1       7.844 -17.259  -5.827  1.00  0.00     0.026 A
HETATM    8  C11 UNL     1       6.891 -18.408  -5.512  1.00  0.00     0.078 C
HETATM    9  C12 UNL     1       5.797 -17.893  -4.627  1.00  0.00     0.056 C
HETATM   10  C13 UNL     1       5.260 -19.137  -3.904  1.00  0.00     0.027 C
HETATM   11  C24 UNL     1       6.274 -16.988  -3.512  1.00  0.00     0.112 C
ENDROOT
BRANCH   9  12
HETATM   12  C14 UNL     1       4.789 -17.206  -5.438  1.00  0.00     0.231 C
HETATM   13  O1  UNL     1       5.266 -16.359  -6.294  1.00  0.00    -0.272 OA
HETATM   14  N4  UNL     1       3.402 -17.319  -5.440  1.00  0.00    -0.322 N
HETATM   15  C15 UNL     1       2.670 -18.167  -4.523  1.00  0.00     0.148 C
HETATM   16  C21 UNL     1       2.548 -16.577  -6.386  1.00  0.00     0.243 C
HETATM   17  C16 UNL     1       1.156 -18.139  -4.774  1.00  0.00     0.146 C
HETATM   18  N5  UNL     1       0.732 -16.756  -4.753  1.00  0.00    -0.346 N
HETATM   19  C17 UNL     1      -0.425 -16.272  -4.102  1.00  0.00     0.219 C
HETATM   20  C20 UNL     1       1.577 -15.809  -5.467  1.00  0.00     0.179 C
HETATM   21  O2  UNL     1      -0.669 -15.027  -4.175  1.00  0.00    -0.273 OA
BRANCH  19  22
HETATM   22  C18 UNL     1      -1.340 -17.154  -3.356  1.00  0.00     0.098 C
HETATM   23  C19 UNL     1      -2.468 -17.690  -4.211  1.00  0.00     0.014 C
ENDBRANCH  19  22
BRANCH  16  24
HETATM   24  O3  UNL     1       3.181 -15.656  -7.139  1.00  0.00    -0.365 OA
BRANCH  24  25
HETATM   25  C22 UNL     1       2.638 -15.374  -8.366  1.00  0.00     0.166 C
HETATM   26  C23 UNL     1       3.548 -15.231  -9.517  1.00  0.00     0.033 C
ENDBRANCH  24  25
ENDBRANCH  16  24
ENDBRANCH   9  12
BRANCH  11  27
HETATM   27  C25 UNL     1       5.561 -17.048  -2.264  1.00  0.00     0.265 C
HETATM   28  O4  UNL     1       4.416 -16.463  -2.171  1.00  0.00    -0.265 OA
BRANCH  27  29
HETATM   29  O5  UNL     1       5.946 -17.675  -1.085  1.00  0.00    -0.322 OA
BRANCH  29  30
HETATM   30  C26 UNL     1       5.523 -17.277   0.189  1.00  0.00     0.174 C
HETATM   31  C27 UNL     1       6.346 -16.183   0.796  1.00  0.00     0.034 C
ENDBRANCH  29  30
ENDBRANCH  27  29
ENDBRANCH  11  27
BRANCH   1  32
HETATM   32  C6  UNL     1       8.390 -16.408  -2.266  1.00  0.00     0.011 C
BRANCH  32  33
HETATM   33  C5  UNL     1       9.659 -17.072  -1.809  1.00  0.00     0.002 C
BRANCH  33  34
HETATM   34  C4  UNL     1       9.553 -17.642  -0.409  1.00  0.00     0.027 C
BRANCH  34  35
HETATM   35  C3  UNL     1      10.224 -16.802   0.638  1.00  0.00     0.232 C
BRANCH  35  36
HETATM   36  N1  UNL     1      11.247 -16.029  -0.042  1.00  0.00    -0.075 N
ATOM     37  H12 UNL     1      11.061 -15.983  -1.044  1.00  0.00     0.277 HD
ATOM     38  H11 UNL     1      12.133 -16.534  -0.060  1.00  0.00     0.277 HD
BRANCH  36  39
HETATM   39  C2  UNL     1      11.418 -14.718   0.506  1.00  0.00     0.228 C
HETATM   40  C1  UNL     1      10.465 -13.795  -0.265  1.00  0.00     0.034 C
ENDBRANCH  36  39
ENDBRANCH  35  36
ENDBRANCH  34  35
ENDBRANCH  33  34
ENDBRANCH  32  33
ENDBRANCH   1  32
BRANCH   4  41
HETATM   41  N2  UNL     1       9.649 -15.211  -8.074  1.00  0.00    -0.380 N
ATOM     42  H22 UNL     1      10.601 -15.302  -8.427  1.00  0.00     0.158 HD
ATOM     43  H21 UNL     1       9.224 -14.569  -8.744  1.00  0.00     0.158 HD
ENDBRANCH   4  41
TORSDOF 14
ENDMDL