MODEL 1
REMARK VINA RESULT: -9.062423118      0.000      0.000
REMARK  13 active torsions:
REMARK  status: ('A' for Active; 'I' for Inactive)
REMARK    1  A    between atoms: C3_5  and  N2_6
REMARK       I    between atoms: N2_6  and  C4_8
REMARK    2  A    between atoms: C4_8  and  C5_10
REMARK    3  A    between atoms: C5_10  and  N3_11
REMARK    4  A    between atoms: C9_15  and  C10_16
REMARK    5  A    between atoms: C10_16  and  C11_17
REMARK    6  A    between atoms: C11_17  and  O2_18
REMARK    7  A    between atoms: C12_21  and  C13_22
REMARK    8  A    between atoms: C13_22  and  C14_23
REMARK    9  A    between atoms: C14_23  and  C15_24
REMARK   10  A    between atoms: C15_24  and  C16_25
REMARK   11  A    between atoms: C16_25  and  C17_26
REMARK       I    between atoms: N6_32  and  C19_34
REMARK   12  A    between atoms: C19_34  and  C20_36
REMARK   13  A    between atoms: C20_36  and  C21_37
ROOT
HETATM    1  C1  UNL     1      13.236 -15.235   0.479  1.00  0.00     0.069 C
HETATM    2  C2  UNL     1      11.761 -15.144   0.109  1.00  0.00     0.020 A
HETATM    3  N1  UNL     1      11.030 -16.187  -0.154  1.00  0.00    -0.339 N
ATOM      4  H1  UNL     1      11.431 -17.125  -0.120  1.00  0.00     0.168 HD
HETATM    5  C3  UNL     1       9.747 -16.007  -0.470  1.00  0.00     0.151 A
HETATM    6  S1  UNL     1       9.566 -14.312  -0.394  1.00  0.00    -0.057 SA
HETATM    7  C12 UNL     1      11.166 -13.913   0.045  1.00  0.00     0.008 A
ENDROOT
BRANCH   7   8
HETATM    8  C13 UNL     1      11.761 -12.553   0.293  1.00  0.00     0.048 C
BRANCH   8   9
HETATM    9  C14 UNL     1      11.904 -12.246   1.748  1.00  0.00     0.006 C
BRANCH   9  10
HETATM   10  C15 UNL     1      13.161 -11.519   2.099  1.00  0.00     0.007 C
BRANCH  10  11
HETATM   11  C16 UNL     1      14.207 -12.345   2.777  1.00  0.00     0.066 C
BRANCH  11  12
HETATM   12  C17 UNL     1      13.702 -12.663   4.164  1.00  0.00     0.069 A
HETATM   13  N4  UNL     1      13.217 -11.823   5.069  1.00  0.00    -0.296 N
HETATM   14  N5  UNL     1      12.839 -12.254   6.202  1.00  0.00    -0.279 N
ATOM     15  H4  UNL     1      13.146 -10.829   4.853  1.00  0.00     0.187 HD
HETATM   16  C18 UNL     1      12.942 -13.561   6.458  1.00  0.00     0.167 A
ATOM     17  H5  UNL     1      12.466 -11.615   6.903  1.00  0.00     0.189 HD
HETATM   18  N6  UNL     1      12.614 -14.205   7.555  1.00  0.00    -0.306 N
HETATM   19  S3  UNL     1      13.605 -14.150   4.999  1.00  0.00    -0.038 SA
HETATM   20  C19 UNL     1      12.076 -13.530   8.671  1.00  0.00     0.227 C
ATOM     21  H6  UNL     1      12.752 -15.215   7.601  1.00  0.00     0.171 HD
HETATM   22  O3  UNL     1      12.854 -13.038   9.526  1.00  0.00    -0.273 OA
BRANCH  20  23
HETATM   23  C20 UNL     1      10.615 -13.387   8.860  1.00  0.00     0.142 C
BRANCH  23  24
HETATM   24  C21 UNL     1       9.885 -14.258   7.841  1.00  0.00    -0.043 A
HETATM   25  C22 UNL     1       9.461 -13.791   6.659  1.00  0.00     0.015 A
HETATM   26  C23 UNL     1       8.817 -14.664   5.827  1.00  0.00     0.050 A
HETATM   27  S2  UNL     1       8.820 -16.115   6.720  1.00  0.00    -0.113 SA
HETATM   28  C24 UNL     1       9.635 -15.579   8.117  1.00  0.00     0.057 A
ENDBRANCH  23  24
ENDBRANCH  20  23
ENDBRANCH  11  12
ENDBRANCH  10  11
ENDBRANCH   9  10
ENDBRANCH   8   9
ENDBRANCH   7   8
BRANCH   5  29
HETATM   29  N2  UNL     1       8.854 -16.933  -0.767  1.00  0.00    -0.306 N
HETATM   30  C4  UNL     1       7.925 -16.716  -1.814  1.00  0.00     0.252 C
HETATM   31  O1  UNL     1       6.726 -16.534  -1.520  1.00  0.00    -0.271 OA
ATOM     32  H2  UNL     1       8.832 -17.806  -0.241  1.00  0.00     0.171 HD
BRANCH  30  33
HETATM   33  C5  UNL     1       8.359 -16.708  -3.202  1.00  0.00     0.375 C
BRANCH  33  34
HETATM   34  N3  UNL     1       7.627 -15.821  -4.077  1.00  0.00     0.102 N
HETATM   35  C6  UNL     1       8.229 -14.489  -3.893  1.00  0.00     0.273 C
HETATM   36  C7  UNL     1       9.481 -14.456  -4.713  1.00  0.00     0.032 C
HETATM   37  C8  UNL     1       9.337 -15.601  -5.692  1.00  0.00     0.037 C
HETATM   38  C9  UNL     1       7.935 -16.069  -5.476  1.00  0.00     0.225 C
BRANCH  38  39
HETATM   39  C10 UNL     1       6.980 -15.241  -6.300  1.00  0.00     0.062 C
BRANCH  39  40
HETATM   40  C11 UNL     1       5.899 -16.036  -6.969  1.00  0.00     0.166 C
BRANCH  40  41
HETATM   41  O2  UNL     1       4.727 -15.308  -7.021  1.00  0.00    -0.401 OA
ATOM     42  H2  UNL     1       4.152 -15.651  -7.695  1.00  0.00     0.209 HD
ENDBRANCH  40  41
ENDBRANCH  39  40
ENDBRANCH  38  39
ENDBRANCH  33  34
ENDBRANCH  30  33
ENDBRANCH   5  29
TORSDOF 13
ENDMDL