MODEL 3
REMARK VINA RESULT: -9.319180493      2.195     10.362
REMARK  12 active torsions:
REMARK  status: ('A' for Active; 'I' for Inactive)
REMARK    1  A    between atoms: C2_2  and  C3_3
REMARK    2  A    between atoms: C5_5  and  N1_6
REMARK    3  A    between atoms: N1_6  and  C6_8
REMARK    4  A    between atoms: C7_9  and  C8_10
REMARK    5  A    between atoms: C12_18  and  O3_19
REMARK    6  A    between atoms: O3_19  and  C13_20
REMARK    7  A    between atoms: C13_20  and  C14_21
REMARK    8  A    between atoms: C14_21  and  N3_22
REMARK    9  A    between atoms: C20_28  and  O4_29
REMARK   10  A    between atoms: O4_29  and  C21_30
REMARK   11  A    between atoms: C21_30  and  C22_31
REMARK   12  A    between atoms: C22_31  and  N4_32
REMARK       I    between atoms: C23_34  and  N6_36
ROOT
HETATM    1  C6  UNL     1      10.509 -14.006   2.756  1.00  0.00     0.065 A
HETATM    2  C7  UNL     1      11.873 -13.583   2.585  1.00  0.00     0.083 A
HETATM    3  C9  UNL     1      12.363 -13.437   1.333  1.00  0.00     0.109 A
HETATM    4  N2  UNL     1      11.660 -13.660   0.213  1.00  0.00    -0.364 N
ATOM      5  H2  UNL     1      12.089 -13.530  -0.703  1.00  0.00     0.165 HD
HETATM    6  C10 UNL     1      10.381 -14.056   0.320  1.00  0.00     0.047 A
HETATM    7  C11 UNL     1       9.698 -14.299  -0.870  1.00  0.00     0.070 A
HETATM    8  C12 UNL     1       8.420 -14.723  -0.830  1.00  0.00     0.104 A
HETATM    9  C20 UNL     1       7.802 -14.909   0.441  1.00  0.00     0.103 A
HETATM   10  C26 UNL     1       8.506 -14.657   1.610  1.00  0.00     0.055 A
HETATM   11  C27 UNL     1       9.813 -14.226   1.558  1.00  0.00     0.021 A
ENDROOT
BRANCH   1  12
HETATM   12  N1  UNL     1      10.137 -14.158   3.875  1.00  0.00    -0.341 N
ATOM     13  H1  UNL     1      10.253 -13.233   4.289  1.00  0.00     0.167 HD
BRANCH  12  14
HETATM   14  C5  UNL     1       9.650 -14.888   4.881  1.00  0.00     0.108 A
HETATM   15  C4  UNL     1       9.855 -14.549   6.241  1.00  0.00     0.073 A
HETATM   16  C3  UNL     1       9.404 -15.290   7.292  1.00  0.00     0.013 A
HETATM   17  N8  UNL     1       8.729 -16.395   7.021  1.00  0.00    -0.356 N
HETATM   18  C28 UNL     1       8.485 -16.798   5.737  1.00  0.00     0.182 A
ATOM     19  H8  UNL     1       8.381 -16.964   7.793  1.00  0.00     0.166 HD
HETATM   20  N7  UNL     1       8.937 -16.057   4.714  1.00  0.00    -0.339 N
ATOM     21  H7  UNL     1       8.744 -16.375   3.764  1.00  0.00     0.168 HD
BRANCH  16  22
HETATM   22  C2  UNL     1       9.706 -14.853   8.701  1.00  0.00     0.052 C
HETATM   23  C1  UNL     1      10.657 -13.698   8.710  1.00  0.00     0.011 C
ENDBRANCH  16  22
ENDBRANCH  12  14
ENDBRANCH   1  12
BRANCH   2  24
HETATM   24  C8  UNL     1      12.645 -13.336   3.795  1.00  0.00     0.213 C
HETATM   25  O1  UNL     1      12.912 -12.183   4.204  1.00  0.00    -0.644 OA
HETATM   26  O2  UNL     1      13.119 -14.395   4.543  1.00  0.00    -0.644 OA
ENDBRANCH   2  24
BRANCH   9  27
HETATM   27  O4  UNL     1       6.527 -15.335   0.484  1.00  0.00    -0.347 OA
BRANCH  27  28
HETATM   28  C21 UNL     1       5.779 -16.444   0.520  1.00  0.00     0.195 C
BRANCH  28  29
HETATM   29  C22 UNL     1       6.474 -17.655  -0.117  1.00  0.00     0.149 C
BRANCH  29  30
HETATM   30  N4  UNL     1       6.160 -17.667  -1.507  1.00  0.00    -0.363 N
HETATM   31  C23 UNL     1       5.396 -18.464  -2.125  1.00  0.00     0.185 C
HETATM   32  N5  UNL     1       4.669 -19.538  -1.567  1.00  0.00    -0.064 NA
HETATM   33  N6  UNL     1       5.251 -18.260  -3.539  1.00  0.00    -0.364 N
HETATM   34  C24 UNL     1       3.940 -18.008  -4.063  1.00  0.00     0.151 C
HETATM   35  C25 UNL     1       6.424 -18.309  -4.420  1.00  0.00     0.151 C
ATOM     36  H4  UNL     1       6.606 -16.944  -2.073  1.00  0.00     0.162 HD
ENDBRANCH  29  30
ENDBRANCH  28  29
ENDBRANCH  27  28
ENDBRANCH   9  27
BRANCH   8  37
HETATM   37  O3  UNL     1       7.676 -14.984  -1.918  1.00  0.00    -0.346 OA
BRANCH  37  38
HETATM   38  C13 UNL     1       7.918 -15.329  -3.219  1.00  0.00     0.206 C
BRANCH  38  39
HETATM   39  C14 UNL     1       7.613 -14.227  -4.170  1.00  0.00     0.299 C
BRANCH  39  40
HETATM   40  N3  UNL     1       8.161 -14.509  -5.514  1.00  0.00     0.090 N
HETATM   41  C15 UNL     1       9.458 -15.153  -5.386  1.00  0.00     0.272 C
HETATM   42  C16 UNL     1       9.828 -15.938  -6.611  1.00  0.00     0.030 C
HETATM   43  C17 UNL     1       8.961 -15.624  -7.798  1.00  0.00     0.003 C
HETATM   44  C18 UNL     1       7.492 -15.710  -7.544  1.00  0.00     0.030 C
HETATM   45  C19 UNL     1       7.222 -15.469  -6.090  1.00  0.00     0.272 C
ENDBRANCH  39  40
ENDBRANCH  38  39
ENDBRANCH  37  38
ENDBRANCH   8  37
TORSDOF 12
ENDMDL