MODEL 1
REMARK VINA RESULT: -8.505730032      0.000      0.000
REMARK  13 active torsions:
REMARK  status: ('A' for Active; 'I' for Inactive)
REMARK    1  A    between atoms: C2_2  and  C3_3
REMARK    2  A    between atoms: C3_3  and  C4_4
REMARK    3  A    between atoms: C4_4  and  C5_5
REMARK    4  A    between atoms: C5_5  and  N1_6
REMARK    5  A    between atoms: C5_5  and  C24_35
REMARK       I    between atoms: N1_6  and  C6_8
REMARK    6  A    between atoms: C6_8  and  C7_10
REMARK    7  A    between atoms: C9_12  and  C10_13
REMARK    8  A    between atoms: C11_14  and  C12_15
REMARK    9  A    between atoms: C19_24  and  C20_25
REMARK   10  A    between atoms: C20_25  and  C21_26
REMARK       I    between atoms: C21_26  and  N3_28
REMARK   11  A    between atoms: N3_28  and  S1_30
REMARK       I    between atoms: C24_35  and  N4_37
REMARK   12  A    between atoms: N4_37  and  C25_39
REMARK   13  A    between atoms: C25_39  and  C26_40
ROOT
HETATM    1  C26 UNL     1       4.665 -17.166  -0.611  1.00  0.00     0.143 C
HETATM    2  C27 UNL     1       5.595 -16.392   0.212  1.00  0.00     0.060 C
HETATM    3  N5  UNL     1       6.317 -15.773   0.859  1.00  0.00    -0.197 NA
ENDROOT
BRANCH   1   4
HETATM    4  C25 UNL     1       5.379 -18.285  -1.334  1.00  0.00     0.136 C
BRANCH   4   5
HETATM    5  N4  UNL     1       6.755 -17.918  -1.603  1.00  0.00    -0.358 N
HETATM    6  C24 UNL     1       7.167 -17.313  -2.805  1.00  0.00     0.240 C
HETATM    7  O5  UNL     1       6.339 -17.072  -3.702  1.00  0.00    -0.271 OA
ATOM      8  H4  UNL     1       7.458 -18.109  -0.888  1.00  0.00     0.162 HD
BRANCH   6   9
HETATM    9  C5  UNL     1       8.602 -16.951  -3.017  1.00  0.00     0.177 C
BRANCH   9  10
HETATM   10  C4  UNL     1       8.834 -16.400  -4.382  1.00  0.00     0.035 C
BRANCH  10  11
HETATM   11  C3  UNL     1       9.758 -15.212  -4.402  1.00  0.00     0.002 C
BRANCH  11  12
HETATM   12  C2  UNL     1       9.139 -14.119  -5.256  1.00  0.00    -0.004 C
HETATM   13  C1  UNL     1       7.675 -14.006  -4.827  1.00  0.00     0.005 C
ENDBRANCH  11  12
ENDBRANCH  10  11
ENDBRANCH   9  10
BRANCH   9  14
HETATM   14  N1  UNL     1       9.026 -15.985  -2.016  1.00  0.00    -0.342 N
HETATM   15  C6  UNL     1       9.693 -16.480  -0.865  1.00  0.00     0.269 C
HETATM   16  O1  UNL     1       9.902 -17.694  -0.726  1.00  0.00    -0.266 OA
ATOM     17  H1  UNL     1       8.850 -14.987  -2.137  1.00  0.00     0.163 HD
BRANCH  15  18
HETATM   18  C7  UNL     1      10.127 -15.542   0.150  1.00  0.00     0.102 A
HETATM   19  C8  UNL     1       9.810 -15.777   1.458  1.00  0.00     0.058 A
HETATM   20  C9  UNL     1      10.190 -14.934   2.474  1.00  0.00     0.055 A
HETATM   21  C16 UNL     1      10.926 -13.801   2.161  1.00  0.00     0.110 A
HETATM   22  C17 UNL     1      11.243 -13.569   0.856  1.00  0.00     0.047 A
HETATM   23  O4  UNL     1      11.453 -12.769   2.936  1.00  0.00    -0.342 OA
HETATM   24  N2  UNL     1      10.842 -14.434  -0.120  1.00  0.00    -0.353 N
HETATM   25  C18 UNL     1      12.052 -12.311   0.784  1.00  0.00     0.093 C
ATOM     26  H2  UNL     1      11.093 -14.234  -1.088  1.00  0.00     0.166 HD
HETATM   27  C19 UNL     1      12.405 -12.027   2.213  1.00  0.00     0.143 C
BRANCH  20  28
HETATM   28  C10 UNL     1       9.824 -15.214   3.835  1.00  0.00    -0.063 C
HETATM   29  C11 UNL     1       9.513 -15.473   4.970  1.00  0.00    -0.092 C
BRANCH  29  30
HETATM   30  C12 UNL     1       9.116 -15.805   6.339  1.00  0.00     0.013 C
HETATM   31  C13 UNL     1       8.199 -17.003   6.350  1.00  0.00     0.028 C
HETATM   32  C14 UNL     1       8.366 -14.596   6.889  1.00  0.00     0.028 C
HETATM   33  C15 UNL     1      10.337 -16.115   7.197  1.00  0.00     0.028 C
ENDBRANCH  29  30
ENDBRANCH  20  28
BRANCH  27  34
HETATM   34  C20 UNL     1      13.806 -12.431   2.522  1.00  0.00     0.136 C
BRANCH  34  35
HETATM   35  C21 UNL     1      14.211 -12.062   3.873  1.00  0.00     0.231 C
HETATM   36  O2  UNL     1      15.406 -11.688   4.099  1.00  0.00    -0.273 OA
HETATM   37  N3  UNL     1      13.261 -12.118   4.954  1.00  0.00    -0.287 N
ATOM     38  H3  UNL     1      12.312 -12.424   4.739  1.00  0.00     0.178 HD
BRANCH  37  39
HETATM   39  S1  UNL     1      13.621 -11.705   6.579  1.00  0.00     0.019 S
HETATM   40  C22 UNL     1      13.706 -11.634   8.385  1.00  0.00     0.136 C
HETATM   41  C23 UNL     1      13.179  -9.909   6.374  1.00  0.00     0.136 C
HETATM   42  O3  UNL     1      11.857 -12.777   7.034  1.00  0.00    -0.250 OA
ENDBRANCH  37  39
ENDBRANCH  34  35
ENDBRANCH  27  34
ENDBRANCH  15  18
ENDBRANCH   9  14
ENDBRANCH   6   9
ENDBRANCH   4   5
ENDBRANCH   1   4
TORSDOF 13
ENDMDL