MODEL 5
REMARK VINA RESULT: -8.114284883      2.714      9.282
REMARK  16 active torsions:
REMARK  status: ('A' for Active; 'I' for Inactive)
REMARK    1  A    between atoms: C2_2  and  C3_3
REMARK    2  A    between atoms: C4_4  and  C5_5
REMARK    3  A    between atoms: C5_5  and  C6_6
REMARK    4  A    between atoms: C6_6  and  C7_7
REMARK    5  A    between atoms: C7_7  and  O1_8
REMARK    6  A    between atoms: C7_7  and  N1_10
REMARK    7  A    between atoms: N1_10  and  C8_12
REMARK    8  A    between atoms: C9_15  and  N3_16
REMARK    9  A    between atoms: N3_16  and  C10_17
REMARK   10  A    between atoms: N3_16  and  C16_24
REMARK   11  A    between atoms: C10_17  and  C11_18
REMARK   12  A    between atoms: C11_18  and  N4_19
REMARK   13  A    between atoms: N4_19  and  C12_20
REMARK   14  A    between atoms: N4_19  and  C14_22
REMARK   15  A    between atoms: C21_30  and  N5_31
REMARK   16  A    between atoms: N5_31  and  C22_33
ROOT
HETATM    1  C8  UNL     1       8.883 -14.713  -0.386  1.00  0.00     0.687 A
HETATM    2  N2  UNL     1       9.477 -14.397   0.803  1.00  0.00    -0.176 N
ATOM      3  H2  UNL     1      10.359 -13.884   0.790  1.00  0.00     0.186 HD
HETATM    4  C9  UNL     1       8.946 -14.733   1.982  1.00  0.00     0.127 A
HETATM    5  C20 UNL     1       7.765 -15.419   1.959  1.00  0.00     0.098 A
HETATM    6  C21 UNL     1       7.146 -15.747   0.742  1.00  0.00     0.126 A
HETATM    7  N8  UNL     1       7.708 -15.394  -0.412  1.00  0.00    -0.176 N
ATOM      8  H8  UNL     1       7.265 -15.631  -1.299  1.00  0.00     0.186 HD
ENDROOT
BRANCH   1   9
HETATM    9  N1  UNL     1       9.380 -14.397  -1.519  1.00  0.00    -0.170 N
ATOM     10  H1  UNL     1       9.486 -13.396  -1.688  1.00  0.00     0.186 HD
BRANCH   9  11
HETATM   11  C7  UNL     1       9.796 -15.222  -2.551  1.00  0.00     0.155 C
BRANCH  11  12
HETATM   12  C6  UNL     1       9.857 -14.984  -3.951  1.00  0.00     0.057 C
BRANCH  12  13
HETATM   13  C5  UNL     1       9.752 -15.672  -5.013  1.00  0.00     0.019 C
BRANCH  13  14
HETATM   14  C4  UNL     1       8.895 -15.772  -6.152  1.00  0.00     0.005 A
HETATM   15  C3  UNL     1       7.528 -16.140  -6.140  1.00  0.00     0.039 A
HETATM   16  N10 UNL     1       7.033 -16.096  -7.369  1.00  0.00    -0.300 N
HETATM   17  N9  UNL     1       7.984 -15.725  -8.161  1.00  0.00    -0.309 N
HETATM   18  C27 UNL     1       5.677 -16.407  -7.742  1.00  0.00     0.177 C
HETATM   19  C26 UNL     1       9.142 -15.516  -7.461  1.00  0.00     0.120 A
ATOM     20  H9  UNL     1       7.885 -15.605  -9.170  1.00  0.00     0.186 HD
BRANCH  15  21
HETATM   21  C2  UNL     1       6.812 -16.520  -4.897  1.00  0.00     0.055 C
HETATM   22  C1  UNL     1       6.932 -18.018  -4.680  1.00  0.00     0.011 C
ENDBRANCH  15  21
ENDBRANCH  13  14
ENDBRANCH  12  13
ENDBRANCH  11  12
BRANCH  11  23
HETATM   23  O1  UNL     1      10.197 -16.412  -2.174  1.00  0.00    -0.346 OA
ATOM     24  H1  UNL     1      10.924 -16.415  -1.562  1.00  0.00     0.219 HD
ENDBRANCH  11  23
ENDBRANCH   9  11
ENDBRANCH   1   9
BRANCH   4  25
HETATM   25  N3  UNL     1       9.654 -14.381   3.202  1.00  0.00    -0.338 N
BRANCH  25  26
HETATM   26  C10 UNL     1      10.879 -13.646   2.963  1.00  0.00     0.160 C
BRANCH  26  27
HETATM   27  C11 UNL     1      12.103 -14.073   3.644  1.00  0.00     0.292 C
BRANCH  27  28
HETATM   28  N4  UNL     1      13.321 -14.112   2.813  1.00  0.00     0.089 N
BRANCH  28  29
HETATM   29  C12 UNL     1      12.870 -13.872   1.418  1.00  0.00     0.268 C
HETATM   30  C13 UNL     1      13.137 -14.998   0.494  1.00  0.00     0.037 C
ENDBRANCH  28  29
BRANCH  28  31
HETATM   31  C14 UNL     1      14.043 -12.898   3.238  1.00  0.00     0.268 C
HETATM   32  C15 UNL     1      13.610 -11.646   2.573  1.00  0.00     0.037 C
ENDBRANCH  28  31
ENDBRANCH  27  28
ENDBRANCH  26  27
ENDBRANCH  25  26
BRANCH  25  33
HETATM   33  C16 UNL     1       9.116 -14.775   4.477  1.00  0.00     0.001 C
HETATM   34  C17 UNL     1       9.132 -13.748   5.548  1.00  0.00     0.063 C
HETATM   35  C18 UNL     1       9.007 -14.296   6.898  1.00  0.00     0.080 C
HETATM   36  S1  UNL     1       9.619 -15.992   6.755  1.00  0.00    -0.163 SA
HETATM   37  C19 UNL     1       9.368 -16.139   4.948  1.00  0.00     0.126 C
ENDBRANCH  25  33
ENDBRANCH   4  25
BRANCH   6  38
HETATM   38  N5  UNL     1       5.919 -16.452   0.719  1.00  0.00    -0.327 N
ATOM     39  H5  UNL     1       5.262 -16.291   1.483  1.00  0.00     0.169 HD
BRANCH  38  40
HETATM   40  C22 UNL     1       5.581 -17.275  -0.196  1.00  0.00     0.123 A
HETATM   41  C23 UNL     1       4.565 -17.084  -1.102  1.00  0.00     0.075 A
HETATM   42  C24 UNL     1       4.513 -18.189  -1.926  1.00  0.00     0.025 A
HETATM   43  C25 UNL     1       3.563 -18.412  -3.056  1.00  0.00     0.070 C
HETATM   44  N6  UNL     1       5.478 -19.021  -1.522  1.00  0.00    -0.304 N
HETATM   45  N7  UNL     1       6.112 -18.472  -0.491  1.00  0.00    -0.285 N
ATOM     46  H6  UNL     1       5.692 -19.927  -1.937  1.00  0.00     0.186 HD
ATOM     47  H7  UNL     1       6.893 -18.900   0.006  1.00  0.00     0.188 HD
ENDBRANCH  38  40
ENDBRANCH   6  38
TORSDOF 16
ENDMDL