MODEL 1
REMARK VINA RESULT: -6.130309783      0.000      0.000
REMARK  15 active torsions:
REMARK  status: ('A' for Active; 'I' for Inactive)
REMARK    1  A    between atoms: N1_1  and  C1_5
REMARK    2  A    between atoms: C1_5  and  C2_6
REMARK    3  A    between atoms: C2_6  and  C3_7
REMARK    4  A    between atoms: C3_7  and  C4_8
REMARK    5  A    between atoms: C4_8  and  C5_9
REMARK    6  A    between atoms: C6_12  and  O1_13
REMARK    7  A    between atoms: C8_17  and  C9_18
REMARK    8  A    between atoms: C9_18  and  N3_19
REMARK    9  A    between atoms: C11_26  and  C12_27
REMARK   10  A    between atoms: C12_27  and  O5_28
REMARK   11  A    between atoms: C14_34  and  N5_35
REMARK   12  A    between atoms: N5_35  and  C15_36
REMARK   13  A    between atoms: C16_38  and  N6_39
REMARK   14  A    between atoms: C17_43  and  O8_44
REMARK   15  A    between atoms: C18_48  and  N8_49
ROOT
HETATM    1  C5  UNL     1     -23.812  -5.632  -5.310  1.00  0.00     0.177 C
HETATM    2  N2  UNL     1     -24.338  -6.607  -6.287  1.00  0.00    -0.337 N
ATOM      3  H2  UNL     1     -25.147  -7.149  -5.986  1.00  0.00     0.164 HD
HETATM    4  C6  UNL     1     -23.861  -6.878  -7.571  1.00  0.00     0.258 C
HETATM    5  O2  UNL     1     -23.836  -6.055  -8.672  1.00  0.00    -0.314 OA
HETATM    6  C7  UNL     1     -24.935  -5.395  -9.267  1.00  0.00     0.213 C
HETATM    7  C8  UNL     1     -26.262  -6.077  -9.025  1.00  0.00     0.181 C
HETATM    8  O3  UNL     1     -26.696  -6.770 -10.113  1.00  0.00    -0.310 OA
HETATM    9  C10 UNL     1     -26.316  -7.714 -10.963  1.00  0.00     0.284 C
HETATM   10  O4  UNL     1     -26.159  -7.420 -12.207  1.00  0.00    -0.263 OA
HETATM   11  C11 UNL     1     -26.023  -9.163 -10.699  1.00  0.00     0.207 C
HETATM   12  N4  UNL     1     -26.390  -9.545  -9.375  1.00  0.00    -0.343 N
ATOM     13  H4  UNL     1     -26.007  -8.925  -8.662  1.00  0.00     0.163 HD
HETATM   14  C13 UNL     1     -27.148 -10.567  -8.848  1.00  0.00     0.257 C
HETATM   15  O6  UNL     1     -28.292 -10.275  -8.305  1.00  0.00    -0.270 OA
HETATM   16  C14 UNL     1     -26.878 -12.042  -8.779  1.00  0.00     0.296 C
HETATM   17  C16 UNL     1     -27.496 -12.585  -7.465  1.00  0.00     0.301 C
HETATM   18  C17 UNL     1     -27.406 -11.662  -6.339  1.00  0.00     0.149 C
HETATM   19  N7  UNL     1     -26.411 -10.766  -5.967  1.00  0.00    -0.323 N
ATOM     20  H7  UNL     1     -26.709  -9.790  -5.940  1.00  0.00     0.165 HD
HETATM   21  C18 UNL     1     -25.026 -10.980  -5.613  1.00  0.00     0.484 C
HETATM   22  N9  UNL     1     -24.769 -10.647  -4.214  1.00  0.00    -0.027 N
ATOM     23  H91 UNL     1     -24.302 -11.419  -3.738  1.00  0.00     0.281 HD
ATOM     24  H92 UNL     1     -25.639 -10.622  -3.682  1.00  0.00     0.281 HD
HETATM   25  C19 UNL     1     -24.030  -9.418  -4.043  1.00  0.00     0.256 C
HETATM   26  C20 UNL     1     -24.962  -8.363  -3.501  1.00  0.00     0.150 C
HETATM   27  N10 UNL     1     -24.347  -7.090  -3.244  1.00  0.00    -0.358 N
ATOM     28  H10 UNL     1     -23.799  -7.049  -2.385  1.00  0.00     0.162 HD
HETATM   29  C21 UNL     1     -24.375  -5.896  -3.978  1.00  0.00     0.240 C
HETATM   30  O9  UNL     1     -24.975  -4.891  -3.414  1.00  0.00    -0.271 OA
ENDROOT
BRANCH   1  31
HETATM   31  C4  UNL     1     -22.351  -5.457  -5.446  1.00  0.00     0.035 C
BRANCH  31  32
HETATM   32  C3  UNL     1     -21.820  -4.130  -5.769  1.00  0.00     0.004 C
BRANCH  32  33
HETATM   33  C2  UNL     1     -22.363  -2.924  -5.117  1.00  0.00     0.027 C
BRANCH  33  34
HETATM   34  C1  UNL     1     -22.417  -1.758  -6.143  1.00  0.00     0.229 C
BRANCH  34  35
HETATM   35  N1  UNL     1     -23.111  -2.315  -7.295  1.00  0.00    -0.079 N
ATOM     36  H13 UNL     1     -22.560  -2.315  -8.154  1.00  0.00     0.274 HD
ATOM     37  H12 UNL     1     -23.248  -3.325  -7.250  1.00  0.00     0.274 HD
ATOM     38  H11 UNL     1     -23.977  -1.779  -7.356  1.00  0.00     0.274 HD
ENDBRANCH  34  35
ENDBRANCH  33  34
ENDBRANCH  32  33
ENDBRANCH  31  32
ENDBRANCH   1  31
BRANCH   4  39
HETATM   39  O1  UNL     1     -23.374  -8.074  -7.750  1.00  0.00    -0.327 OA
ATOM     40  H1  UNL     1     -22.699  -8.145  -8.414  1.00  0.00     0.221 HD
ENDBRANCH   4  39
BRANCH   7  41
HETATM   41  C9  UNL     1     -27.228  -4.923  -8.644  1.00  0.00     0.264 C
BRANCH  41  42
HETATM   42  N3  UNL     1     -26.364  -3.820  -8.311  1.00  0.00    -0.077 N
ATOM     43  H33 UNL     1     -25.984  -3.862  -7.365  1.00  0.00     0.274 HD
ATOM     44  H32 UNL     1     -25.467  -3.834  -8.795  1.00  0.00     0.274 HD
ATOM     45  H31 UNL     1     -26.924  -2.988  -8.497  1.00  0.00     0.274 HD
ENDBRANCH  41  42
ENDBRANCH   7  41
BRANCH  21  46
HETATM   46  N8  UNL     1     -24.557 -12.297  -5.832  1.00  0.00    -0.033 N
ATOM     47  H83 UNL     1     -25.324 -12.964  -5.748  1.00  0.00     0.278 HD
ATOM     48  H82 UNL     1     -24.317 -12.428  -6.815  1.00  0.00     0.278 HD
ATOM     49  H81 UNL     1     -23.778 -12.577  -5.237  1.00  0.00     0.278 HD
ENDBRANCH  21  46
BRANCH  11  50
HETATM   50  C12 UNL     1     -24.579  -9.438 -11.061  1.00  0.00     0.199 C
BRANCH  50  51
HETATM   51  O5  UNL     1     -23.847  -8.278 -10.703  1.00  0.00    -0.398 OA
ATOM     52  H5  UNL     1     -23.919  -8.193  -9.760  1.00  0.00     0.209 HD
ENDBRANCH  50  51
ENDBRANCH  11  50
BRANCH  18  53
HETATM   53  O8  UNL     1     -28.439 -11.688  -5.546  1.00  0.00    -0.348 OA
ATOM     54  H8  UNL     1     -28.305 -12.189  -4.750  1.00  0.00     0.219 HD
ENDBRANCH  18  53
BRANCH  17  55
HETATM   55  N6  UNL     1     -26.919 -13.888  -7.263  1.00  0.00    -0.064 N
ATOM     56  H63 UNL     1     -27.322 -14.609  -7.862  1.00  0.00     0.275 HD
ATOM     57  H62 UNL     1     -25.960 -13.965  -7.602  1.00  0.00     0.275 HD
ATOM     58  H61 UNL     1     -27.015 -14.087  -6.267  1.00  0.00     0.275 HD
ENDBRANCH  17  55
BRANCH  16  59
HETATM   59  N5  UNL     1     -27.607 -12.666  -9.809  1.00  0.00    -0.405 NA
BRANCH  59  60
HETATM   60  C15 UNL     1     -28.296 -13.260 -10.783  1.00  0.00     0.436 C
HETATM   61  O7  UNL     1     -28.677 -14.480 -10.817  1.00  0.00    -0.269 OA
ENDBRANCH  59  60
ENDBRANCH  16  59
TORSDOF 15
ENDMDL