MODEL 3
REMARK VINA RESULT: -7.469689109      3.347      5.676
REMARK  16 active torsions:
REMARK  status: ('A' for Active; 'I' for Inactive)
REMARK       I    between atoms: C1_4  and  N3_6
REMARK    1  A    between atoms: N3_6  and  C2_8
REMARK    2  A    between atoms: C2_8  and  C10_45
REMARK    3  A    between atoms: N4_9  and  S1_11
REMARK    4  A    between atoms: S1_11  and  C3_14
REMARK    5  A    between atoms: C5_16  and  S2_17
REMARK    6  A    between atoms: S2_17  and  N5_18
REMARK    7  A    between atoms: C7_27  and  S3_28
REMARK    8  A    between atoms: S3_28  and  N7_29
REMARK    9  A    between atoms: S3_28  and  O6_32
REMARK   10  A    between atoms: S3_28  and  O7_34
REMARK   11  A    between atoms: S3_28  and  S4_36
REMARK   12  A    between atoms: S4_36  and  C8_37
REMARK   13  A    between atoms: C8_37  and  C9_38
REMARK       I    between atoms: C9_38  and  N8_40
REMARK   14  A    between atoms: N8_40  and  N9_42
REMARK   15  A    between atoms: C10_45  and  N10_46
REMARK   16  A    between atoms: C10_45  and  C11_50
ROOT
HETATM    1  C3  UNL     1     -25.342  -6.497  -6.864  1.00  0.00     0.119 A
HETATM    2  C4  UNL     1     -25.175  -6.774  -5.515  1.00  0.00     0.059 A
HETATM    3  C5  UNL     1     -24.353  -5.945  -4.809  1.00  0.00     0.148 A
HETATM    4  C6  UNL     1     -23.701  -4.875  -5.360  1.00  0.00     0.269 A
HETATM    5  O5  UNL     1     -22.954  -4.146  -4.658  1.00  0.00    -0.266 OA
HETATM    6  N6  UNL     1     -23.888  -4.645  -6.653  1.00  0.00    -0.312 N
ATOM      7  H6  UNL     1     -23.413  -3.853  -7.086  1.00  0.00     0.170 HD
HETATM    8  C7  UNL     1     -24.687  -5.422  -7.416  1.00  0.00     0.141 A
ENDROOT
BRANCH   1   9
HETATM    9  S1  UNL     1     -26.312  -7.553  -7.794  1.00  0.00     0.267 S
HETATM   10  O1  UNL     1     -26.958  -8.545  -6.862  1.00  0.00    -0.200 OA
HETATM   11  O2  UNL     1     -27.554  -6.752  -8.265  1.00  0.00    -0.200 OA
BRANCH   9  12
HETATM   12  N4  UNL     1     -25.695  -8.373  -9.080  1.00  0.00    -0.267 N
HETATM   13  C2  UNL     1     -25.116  -9.477  -9.043  1.00  0.00     0.133 C
ATOM     14  H4  UNL     1     -25.797  -7.937  -9.996  1.00  0.00     0.180 HD
BRANCH  13  15
HETATM   15  N3  UNL     1     -24.652 -10.013 -10.310  1.00  0.00    -0.318 N
HETATM   16  C1  UNL     1     -23.651  -9.344 -11.058  1.00  0.00     0.187 C
HETATM   17  N1  UNL     1     -22.666  -8.782 -10.445  1.00  0.00    -0.373 N
HETATM   18  N2  UNL     1     -23.747  -9.304 -12.467  1.00  0.00    -0.064 NA
ATOM     19  H12 UNL     1     -21.946  -8.300 -10.984  1.00  0.00     0.158 HD
ATOM     20  H11 UNL     1     -22.598  -8.811  -9.428  1.00  0.00     0.158 HD
ATOM     21  H3  UNL     1     -25.051 -10.882 -10.665  1.00  0.00     0.169 HD
ENDBRANCH  13  15
BRANCH  13  22
HETATM   22  C10 UNL     1     -24.869 -10.266  -7.840  1.00  0.00     0.339 C
BRANCH  22  23
HETATM   23  N10 UNL     1     -24.987 -11.674  -8.209  1.00  0.00    -0.060 N
ATOM     24 3H10 UNL     1     -25.863 -12.094  -7.900  1.00  0.00     0.275 HD
ATOM     25 2H10 UNL     1     -25.118 -11.814  -9.210  1.00  0.00     0.275 HD
ATOM     26 1H10 UNL     1     -24.164 -12.154  -7.843  1.00  0.00     0.275 HD
ENDBRANCH  22  23
BRANCH  22  27
HETATM   27  C11 UNL     1     -23.467 -10.054  -7.340  1.00  0.00     0.269 C
HETATM   28  N11 UNL     1     -23.196  -9.351  -6.142  1.00  0.00    -0.060 NA
HETATM   29  O9  UNL     1     -22.523 -10.515  -8.010  1.00  0.00    -0.274 OA
ENDBRANCH  22  27
ENDBRANCH  13  22
ENDBRANCH   9  12
ENDBRANCH   1   9
BRANCH   8  30
HETATM   30  S3  UNL     1     -24.871  -4.905  -9.260  1.00  0.00     0.058 SA
BRANCH  30  31
HETATM   31  N7  UNL     1     -26.360  -4.049  -8.717  1.00  0.00    -0.349 N
ATOM     32  H72 UNL     1     -27.262  -4.306  -8.316  1.00  0.00     0.167 HD
ATOM     33  H71 UNL     1     -25.872  -3.198  -8.999  1.00  0.00     0.167 HD
ENDBRANCH  30  31
BRANCH  30  34
HETATM   34  O6  UNL     1     -23.942  -6.133  -9.659  1.00  0.00    -0.310 OA
ATOM     35  H6  UNL     1     -23.226  -5.713  -9.197  1.00  0.00     0.230 HD
ENDBRANCH  30  34
BRANCH  30  36
HETATM   36  O7  UNL     1     -25.517  -5.067 -10.652  1.00  0.00    -0.310 OA
ATOM     37  H7  UNL     1     -26.264  -5.258 -11.206  1.00  0.00     0.230 HD
ENDBRANCH  30  36
BRANCH  30  38
HETATM   38  S4  UNL     1     -23.867  -3.121  -9.536  1.00  0.00    -0.045 SA
BRANCH  38  39
HETATM   39  C8  UNL     1     -24.050  -2.241 -10.893  1.00  0.00     0.194 C
BRANCH  39  40
HETATM   40  C9  UNL     1     -25.082  -1.152 -10.703  1.00  0.00     0.245 C
HETATM   41  O8  UNL     1     -26.270  -1.392 -10.415  1.00  0.00    -0.271 OA
HETATM   42  N8  UNL     1     -24.694   0.212 -10.855  1.00  0.00    -0.276 N
ATOM     43  H8  UNL     1     -23.726   0.429 -11.091  1.00  0.00     0.189 HD
BRANCH  42  44
HETATM   44  N9  UNL     1     -25.603   1.258 -10.690  1.00  0.00    -0.343 N
ATOM     45  H92 UNL     1     -26.010   1.399  -9.766  1.00  0.00     0.176 HD
ATOM     46  H91 UNL     1     -25.862   1.872 -11.462  1.00  0.00     0.176 HD
ENDBRANCH  42  44
ENDBRANCH  39  40
ENDBRANCH  38  39
ENDBRANCH  30  38
ENDBRANCH   8  30
BRANCH   3  47
HETATM   47  S2  UNL     1     -24.130  -6.272  -3.112  1.00  0.00     0.262 S
HETATM   48  O3  UNL     1     -24.203  -7.743  -2.818  1.00  0.00    -0.201 OA
HETATM   49  O4  UNL     1     -25.236  -5.623  -2.339  1.00  0.00    -0.201 OA
BRANCH  47  50
HETATM   50  N5  UNL     1     -22.652  -5.590  -2.526  1.00  0.00    -0.324 N
ATOM     51  H52 UNL     1     -21.729  -5.905  -2.826  1.00  0.00     0.169 HD
ATOM     52  H51 UNL     1     -22.827  -4.843  -1.853  1.00  0.00     0.169 HD
ENDBRANCH  47  50
ENDBRANCH   3  47
TORSDOF 16
ENDMDL