MODEL 5
REMARK VINA RESULT: -7.552076169      2.022      2.745
REMARK  18 active torsions:
REMARK  status: ('A' for Active; 'I' for Inactive)
REMARK    1  A    between atoms: C2_2  and  C3_3
REMARK       I    between atoms: C3_3  and  N1_5
REMARK    2  A    between atoms: N1_5  and  C4_7
REMARK    3  A    between atoms: C7_14  and  N4_15
REMARK    4  A    between atoms: N5_18  and  C8_19
REMARK    5  A    between atoms: C8_19  and  C9_20
REMARK    6  A    between atoms: C9_20  and  O2_21
REMARK    7  A    between atoms: N6_25  and  C11_26
REMARK    8  A    between atoms: C11_26  and  C12_27
REMARK       I    between atoms: C12_27  and  N7_29
REMARK    9  A    between atoms: N7_29  and  N8_31
REMARK       I    between atoms: N8_31  and  C13_33
REMARK   10  A    between atoms: C13_33  and  C14_35
REMARK   11  A    between atoms: C14_35  and  O6_36
REMARK   12  A    between atoms: C14_35  and  C15_38
REMARK   13  A    between atoms: C15_38  and  S1_40
REMARK   14  A    between atoms: S1_40  and  O8_41
REMARK   15  A    between atoms: S1_40  and  O9_43
REMARK   16  A    between atoms: S1_40  and  O10_45
REMARK   17  A    between atoms: S1_40  and  N9_47
REMARK   18  A    between atoms: N9_47  and  N10_48
REMARK       I    between atoms: N10_48  and  C16_50
ROOT
HETATM    1  C11 UNL     1     -23.232  -5.922  -6.020  1.00  0.00     0.255 C
ENDROOT
BRANCH   1   2
HETATM    2  N6  UNL     1     -23.682  -6.653  -4.874  1.00  0.00    -0.136 N
HETATM    3  C4  UNL     1     -23.591  -7.986  -4.819  1.00  0.00     0.692 A
HETATM    4  N2  UNL     1     -24.007  -8.706  -3.755  1.00  0.00    -0.173 N
HETATM    5  C5  UNL     1     -24.536  -8.061  -2.704  1.00  0.00     0.172 A
ATOM      6  H2  UNL     1     -23.922  -9.722  -3.751  1.00  0.00     0.186 HD
HETATM    7  C6  UNL     1     -24.650  -6.692  -2.712  1.00  0.00     0.163 A
HETATM    8  N5  UNL     1     -25.027  -8.499  -1.525  1.00  0.00    -0.164 N
HETATM    9  N3  UNL     1     -25.211  -6.337  -1.532  1.00  0.00    -0.182 N
HETATM   10  C10 UNL     1     -24.209  -6.004  -3.826  1.00  0.00     0.293 A
HETATM   11  C7  UNL     1     -25.444  -7.440  -0.803  1.00  0.00     0.680 A
ATOM     12  H3  UNL     1     -25.423  -5.382  -1.243  1.00  0.00     0.184 HD
HETATM   13  O3  UNL     1     -24.326  -4.733  -3.810  1.00  0.00    -0.265 OA
BRANCH   3  14
HETATM   14  N1  UNL     1     -23.077  -8.573  -5.840  1.00  0.00    -0.159 N
HETATM   15  C3  UNL     1     -23.783  -9.268  -6.834  1.00  0.00     0.235 C
HETATM   16  O1  UNL     1     -23.887  -8.791  -7.998  1.00  0.00    -0.273 OA
ATOM     17  H1  UNL     1     -22.062  -8.531  -5.936  1.00  0.00     0.187 HD
BRANCH  15  18
HETATM   18  C2  UNL     1     -24.438 -10.579  -6.587  1.00  0.00     0.099 C
HETATM   19  C1  UNL     1     -24.242 -11.534  -7.752  1.00  0.00     0.014 C
ENDBRANCH  15  18
ENDBRANCH   3  14
BRANCH  11  20
HETATM   20  N4  UNL     1     -25.978  -7.475   0.392  1.00  0.00    -0.234 N
ATOM     21  H42 UNL     1     -26.974  -7.450   0.611  1.00  0.00     0.174 HD
ATOM     22  H41 UNL     1     -25.471  -7.534   1.276  1.00  0.00     0.174 HD
ENDBRANCH  11  20
BRANCH   8  23
HETATM   23  C8  UNL     1     -25.104  -9.865  -1.092  1.00  0.00     0.175 C
BRANCH  23  24
HETATM   24  C9  UNL     1     -23.805 -10.338  -0.456  1.00  0.00     0.185 C
BRANCH  24  25
HETATM   25  O2  UNL     1     -22.821 -10.442  -1.419  1.00  0.00    -0.399 OA
ATOM     26  H2  UNL     1     -22.602 -11.355  -1.560  1.00  0.00     0.209 HD
ENDBRANCH  24  25
ENDBRANCH  23  24
ENDBRANCH   8  23
ENDBRANCH   1   2
BRANCH   1  27
HETATM   27  C12 UNL     1     -24.341  -5.404  -6.856  1.00  0.00     0.255 C
HETATM   28  O4  UNL     1     -25.449  -5.996  -6.852  1.00  0.00    -0.270 OA
HETATM   29  N7  UNL     1     -24.186  -4.244  -7.668  1.00  0.00    -0.266 N
ATOM     30  H7  UNL     1     -23.292  -3.754  -7.679  1.00  0.00     0.190 HD
BRANCH  29  31
HETATM   31  N8  UNL     1     -25.255  -3.764  -8.459  1.00  0.00    -0.265 N
HETATM   32  C13 UNL     1     -25.427  -4.183  -9.799  1.00  0.00     0.273 C
HETATM   33  O5  UNL     1     -24.613  -4.997 -10.288  1.00  0.00    -0.268 OA
ATOM     34  H8  UNL     1     -25.916  -3.101  -8.055  1.00  0.00     0.190 HD
BRANCH  32  35
HETATM   35  C14 UNL     1     -26.536  -3.677 -10.608  1.00  0.00     0.298 C
BRANCH  35  36
HETATM   36  O6  UNL     1     -27.738  -3.835  -9.897  1.00  0.00    -0.378 OA
ATOM     37  H6  UNL     1     -28.234  -3.026  -9.936  1.00  0.00     0.211 HD
ENDBRANCH  35  36
BRANCH  35  38
HETATM   38  C15 UNL     1     -26.398  -2.300 -11.024  1.00  0.00     0.280 C
HETATM   39  O7  UNL     1     -27.303  -1.532 -11.028  1.00  0.00    -0.277 OA
BRANCH  38  40
HETATM   40  S1  UNL     1     -24.616  -1.629 -11.623  1.00  0.00     0.156 SA
BRANCH  40  41
HETATM   41  O8  UNL     1     -25.062  -2.148 -13.119  1.00  0.00    -0.299 OA
ATOM     42  H8  UNL     1     -24.265  -1.729 -13.424  1.00  0.00     0.231 HD
ENDBRANCH  40  41
BRANCH  40  43
HETATM   43  O9  UNL     1     -23.243  -2.581 -11.654  1.00  0.00    -0.299 OA
ATOM     44  H9  UNL     1     -22.582  -2.520 -12.333  1.00  0.00     0.231 HD
ENDBRANCH  40  43
BRANCH  40  45
HETATM   45  O10 UNL     1     -24.307  -1.083 -10.115  1.00  0.00    -0.299 OA
ATOM     46  H10 UNL     1     -23.527  -1.624 -10.075  1.00  0.00     0.231 HD
ENDBRANCH  40  45
BRANCH  40  47
HETATM   47  N9  UNL     1     -24.727   0.158 -12.337  1.00  0.00    -0.015 NA
BRANCH  47  48
HETATM   48  N10 UNL     1     -25.758   0.339 -13.219  1.00  0.00    -0.243 N
HETATM   49  C16 UNL     1     -26.770   1.269 -12.917  1.00  0.00     0.345 C
HETATM   50  N11 UNL     1     -27.867   1.504 -13.789  1.00  0.00    -0.039 NA
HETATM   51  O11 UNL     1     -26.747   1.936 -11.852  1.00  0.00    -0.250 OA
ATOM     52  H10 UNL     1     -25.792  -0.194 -14.088  1.00  0.00     0.188 HD
ENDBRANCH  47  48
ENDBRANCH  40  47
ENDBRANCH  38  40
ENDBRANCH  35  38
ENDBRANCH  32  35
ENDBRANCH  29  31
ENDBRANCH   1  27
TORSDOF 18
ENDMDL