MODEL 4
REMARK VINA RESULT: -9.749766295      1.736      2.103
REMARK  12 active torsions:
REMARK  status: ('A' for Active; 'I' for Inactive)
REMARK    1  A    between atoms: N2_5  and  C3_6
REMARK    2  A    between atoms: C3_6  and  C4_7
REMARK       I    between atoms: C4_7  and  N3_9
REMARK    3  A    between atoms: N3_9  and  N4_11
REMARK       I    between atoms: N4_11  and  C5_13
REMARK    4  A    between atoms: C12_32  and  C13_33
REMARK    5  A    between atoms: C13_33  and  O4_34
REMARK    6  A    between atoms: C13_33  and  C14_36
REMARK    7  A    between atoms: C14_36  and  N10_37
REMARK    8  A    between atoms: N10_37  and  S2_39
REMARK    9  A    between atoms: S2_39  and  N11_42
REMARK   10  A    between atoms: C15_44  and  C16_46
REMARK   11  A    between atoms: C16_46  and  N13_47
REMARK   12  A    between atoms: C16_46  and  O7_51
ROOT
HETATM    1  C1  UNL     1     -24.960  -7.093  -9.256  1.00  0.00     0.161 C
HETATM    2  N1  UNL     1     -24.389  -5.820  -8.894  1.00  0.00    -0.300 N
HETATM    3  C2  UNL     1     -24.405  -4.771  -9.757  1.00  0.00     0.332 A
HETATM    4  O1  UNL     1     -24.936  -4.952 -10.879  1.00  0.00    -0.246 OA
HETATM    5  N2  UNL     1     -23.905  -3.555  -9.522  1.00  0.00    -0.256 N
HETATM    6  C6  UNL     1     -23.327  -3.287  -8.349  1.00  0.00     0.267 A
HETATM    7  O3  UNL     1     -22.830  -2.178  -8.033  1.00  0.00    -0.267 OA
HETATM    8  C7  UNL     1     -23.269  -4.293  -7.424  1.00  0.00     0.100 A
HETATM    9  C8  UNL     1     -22.682  -4.118  -6.195  1.00  0.00     0.120 A
HETATM   10  S1  UNL     1     -22.048  -2.651  -5.830  1.00  0.00    -0.059 SA
HETATM   11  N7  UNL     1     -22.602  -5.094  -5.278  1.00  0.00    -0.331 N
ATOM     12  H7  UNL     1     -22.156  -4.915  -4.379  1.00  0.00     0.168 HD
HETATM   13  C9  UNL     1     -23.117  -6.316  -5.553  1.00  0.00     0.135 A
HETATM   14  C10 UNL     1     -23.726  -6.564  -6.769  1.00  0.00     0.120 A
HETATM   15  C11 UNL     1     -23.804  -5.562  -7.703  1.00  0.00     0.089 A
HETATM   16  N8  UNL     1     -24.248  -7.702  -6.979  1.00  0.00    -0.297 N
ATOM     17  H8  UNL     1     -24.695  -7.879  -7.879  1.00  0.00     0.187 HD
HETATM   18  N9  UNL     1     -24.233  -8.711  -6.032  1.00  0.00    -0.310 N
ATOM     19  H9  UNL     1     -24.767  -9.563  -6.203  1.00  0.00     0.182 HD
HETATM   20  C12 UNL     1     -23.486  -8.583  -4.815  1.00  0.00     0.229 C
HETATM   21  N14 UNL     1     -23.001  -7.235  -4.678  1.00  0.00    -0.350 N
ATOM     22  H14 UNL     1     -22.526  -6.996  -3.808  1.00  0.00     0.163 HD
ENDROOT
BRANCH  20  23
HETATM   23  C13 UNL     1     -24.361  -8.898  -3.604  1.00  0.00     0.180 C
BRANCH  23  24
HETATM   24  O4  UNL     1     -23.633  -9.745  -2.739  1.00  0.00    -0.390 OA
ATOM     25  H4  UNL     1     -23.291  -9.221  -2.025  1.00  0.00     0.210 HD
ENDBRANCH  23  24
BRANCH  23  26
HETATM   26  C14 UNL     1     -24.673  -7.586  -2.925  1.00  0.00     0.169 C
BRANCH  26  27
HETATM   27  N10 UNL     1     -24.105  -7.465  -1.622  1.00  0.00    -0.300 N
ATOM     28  H10 UNL     1     -23.135  -7.206  -1.447  1.00  0.00     0.173 HD
BRANCH  27  29
HETATM   29  S2  UNL     1     -25.251  -7.808  -0.376  1.00  0.00     0.320 S
HETATM   30  O5  UNL     1     -26.030  -9.070  -0.715  1.00  0.00    -0.182 OA
HETATM   31  O6  UNL     1     -26.244  -6.692  -0.249  1.00  0.00    -0.182 OA
BRANCH  29  32
HETATM   32  N11 UNL     1     -24.427  -8.067   1.088  1.00  0.00    -0.255 N
HETATM   33  C15 UNL     1     -23.365  -8.727   1.261  1.00  0.00     0.160 C
HETATM   34  N12 UNL     1     -22.629  -9.400   0.251  1.00  0.00    -0.082 NA
ATOM     35  H11 UNL     1     -24.836  -7.641   1.919  1.00  0.00     0.181 HD
BRANCH  33  36
HETATM   36  C16 UNL     1     -22.805  -8.818   2.652  1.00  0.00     0.382 C
BRANCH  36  37
HETATM   37  N13 UNL     1     -23.500  -7.885   3.501  1.00  0.00    -0.046 N
ATOM     38 3H13 UNL     1     -23.141  -6.935   3.408  1.00  0.00     0.277 HD
ATOM     39 2H13 UNL     1     -24.454  -7.710   3.184  1.00  0.00     0.277 HD
ATOM     40 1H13 UNL     1     -23.466  -8.221   4.464  1.00  0.00     0.277 HD
ENDBRANCH  36  37
BRANCH  36  41
HETATM   41  O7  UNL     1     -21.439  -8.585   2.568  1.00  0.00    -0.365 OA
ATOM     42  H7  UNL     1     -21.319  -7.715   2.208  1.00  0.00     0.212 HD
ENDBRANCH  36  41
ENDBRANCH  33  36
ENDBRANCH  29  32
ENDBRANCH  27  29
ENDBRANCH  26  27
ENDBRANCH  23  26
ENDBRANCH  20  23
BRANCH   5  43
HETATM   43  C3  UNL     1     -23.937  -2.482 -10.502  1.00  0.00     0.241 C
BRANCH  43  44
HETATM   44  C4  UNL     1     -25.191  -1.709 -10.496  1.00  0.00     0.254 C
HETATM   45  O2  UNL     1     -25.187  -0.506 -10.803  1.00  0.00    -0.270 OA
HETATM   46  N3  UNL     1     -26.411  -2.328 -10.144  1.00  0.00    -0.266 N
ATOM     47  H3  UNL     1     -26.379  -3.318  -9.898  1.00  0.00     0.190 HD
BRANCH  46  48
HETATM   48  N4  UNL     1     -27.643  -1.704 -10.105  1.00  0.00    -0.271 N
HETATM   49  C5  UNL     1     -28.804  -2.431  -9.770  1.00  0.00     0.200 C
HETATM   50  N5  UNL     1     -29.646  -1.903  -8.953  1.00  0.00    -0.372 N
HETATM   51  N6  UNL     1     -29.093  -3.719 -10.288  1.00  0.00    -0.062 NA
ATOM     52  H52 UNL     1     -29.439  -0.977  -8.580  1.00  0.00     0.158 HD
ATOM     53  H51 UNL     1     -30.486  -2.429  -8.711  1.00  0.00     0.158 HD
ATOM     54  H4  UNL     1     -27.714  -0.709 -10.320  1.00  0.00     0.189 HD
ENDBRANCH  46  48
ENDBRANCH  43  44
ENDBRANCH   5  43
TORSDOF 12
ENDMDL