MODEL 5
REMARK VINA RESULT: -8.434389246      1.199      2.344
REMARK  12 active torsions:
REMARK  status: ('A' for Active; 'I' for Inactive)
REMARK    1  A    between atoms: C1_2  and  C2_4
REMARK    2  A    between atoms: C4_6  and  N2_7
REMARK    3  A    between atoms: C6_12  and  O2_13
REMARK    4  A    between atoms: C9_20  and  C10_21
REMARK       I    between atoms: C10_21  and  N5_23
REMARK    5  A    between atoms: N5_23  and  N6_25
REMARK    6  A    between atoms: N6_25  and  C11_27
REMARK    7  A    between atoms: C13_32  and  C14_33
REMARK    8  A    between atoms: C14_33  and  O6_34
REMARK    9  A    between atoms: C14_33  and  O7_36
REMARK   10  A    between atoms: C16_43  and  O9_44
REMARK   11  A    between atoms: C16_43  and  C17_46
REMARK   12  A    between atoms: C17_46  and  C18_48
ROOT
HETATM    1  C2  UNL     1     -23.972  -8.670  -7.354  1.00  0.00     0.178 C
HETATM    2  C3  UNL     1     -24.236  -7.315  -8.054  1.00  0.00     0.063 C
HETATM    3  C4  UNL     1     -24.881  -6.542  -6.901  1.00  0.00     0.134 C
HETATM    4  C9  UNL     1     -25.307  -7.580  -5.890  1.00  0.00     0.204 C
HETATM    5  N9  UNL     1     -25.103  -8.806  -6.631  1.00  0.00    -0.330 N
HETATM    6  C16 UNL     1     -25.931  -9.850  -6.361  1.00  0.00     0.189 C
ENDROOT
BRANCH   4   7
HETATM    7  C10 UNL     1     -24.492  -7.637  -4.675  1.00  0.00     0.261 C
HETATM    8  O4  UNL     1     -23.390  -8.292  -4.633  1.00  0.00    -0.269 OA
HETATM    9  N5  UNL     1     -24.868  -6.976  -3.481  1.00  0.00    -0.270 N
ATOM     10  H5  UNL     1     -25.734  -6.439  -3.437  1.00  0.00     0.189 HD
BRANCH   9  11
HETATM   11  N6  UNL     1     -24.046  -7.070  -2.380  1.00  0.00    -0.301 N
ATOM     12  H6  UNL     1     -23.093  -6.705  -2.380  1.00  0.00     0.183 HD
BRANCH  11  13
HETATM   13  C11 UNL     1     -24.617  -7.712  -1.237  1.00  0.00     0.293 C
HETATM   14  N7  UNL     1     -25.797  -8.450  -1.633  1.00  0.00    -0.329 N
HETATM   15  C12 UNL     1     -25.714  -9.864  -1.825  1.00  0.00     0.247 C
ATOM     16  H7  UNL     1     -26.683  -7.964  -1.775  1.00  0.00     0.165 HD
HETATM   17  O5  UNL     1     -26.748 -10.543  -1.813  1.00  0.00    -0.271 OA
HETATM   18  C13 UNL     1     -24.382 -10.475  -2.036  1.00  0.00     0.231 C
HETATM   19  N8  UNL     1     -23.455  -9.918  -1.096  1.00  0.00    -0.340 N
HETATM   20  C15 UNL     1     -23.625  -8.618  -0.587  1.00  0.00     0.262 C
ATOM     21  H8  UNL     1     -22.658 -10.475  -0.789  1.00  0.00     0.163 HD
HETATM   22  O8  UNL     1     -22.972  -8.210   0.383  1.00  0.00    -0.269 OA
BRANCH  18  23
HETATM   23  C14 UNL     1     -24.533 -11.973  -1.874  1.00  0.00     0.285 C
BRANCH  23  24
HETATM   24  O6  UNL     1     -23.308 -12.451  -1.351  1.00  0.00    -0.369 OA
ATOM     25  H6  UNL     1     -23.410 -13.388  -1.231  1.00  0.00     0.212 HD
ENDBRANCH  23  24
BRANCH  23  26
HETATM   26  O7  UNL     1     -24.809 -12.518  -3.106  1.00  0.00    -0.369 OA
ATOM     27  H7  UNL     1     -23.987 -12.672  -3.556  1.00  0.00     0.212 HD
ENDBRANCH  23  26
ENDBRANCH  18  23
ENDBRANCH  11  13
ENDBRANCH   9  11
ENDBRANCH   4   7
BRANCH   3  28
HETATM   28  N2  UNL     1     -24.116  -5.532  -6.432  1.00  0.00    -0.219 N
HETATM   29  C5  UNL     1     -23.570  -4.452  -6.506  1.00  0.00     0.683 A
HETATM   30  N3  UNL     1     -22.838  -4.034  -5.429  1.00  0.00    -0.171 N
HETATM   31  N4  UNL     1     -23.639  -3.652  -7.595  1.00  0.00    -0.156 N
HETATM   32  C6  UNL     1     -22.194  -2.891  -5.397  1.00  0.00     0.160 A
ATOM     33  H3  UNL     1     -22.790  -4.641  -4.610  1.00  0.00     0.186 HD
HETATM   34  C7  UNL     1     -22.259  -2.072  -6.502  1.00  0.00     0.131 A
HETATM   35  C8  UNL     1     -22.986  -2.467  -7.591  1.00  0.00     0.263 A
HETATM   36  O3  UNL     1     -23.096  -1.775  -8.641  1.00  0.00    -0.268 OA
ATOM     37  H4  UNL     1     -24.179  -3.939  -8.411  1.00  0.00     0.187 HD
ATOM     38  H2  UNL     1     -23.849  -5.859  -5.502  1.00  0.00     0.178 HD
BRANCH  32  39
HETATM   39  O2  UNL     1     -21.444  -2.464  -4.298  1.00  0.00    -0.346 OA
ATOM     40  H2  UNL     1     -20.907  -1.681  -4.306  1.00  0.00     0.219 HD
ENDBRANCH  32  39
ENDBRANCH   3  28
BRANCH   1  41
HETATM   41  C1  UNL     1     -23.401  -9.612  -8.262  1.00  0.00     0.254 C
HETATM   42  N1  UNL     1     -23.871  -9.634  -9.612  1.00  0.00    -0.060 NA
HETATM   43  O1  UNL     1     -22.519 -10.429  -7.985  1.00  0.00    -0.275 OA
ENDBRANCH   1  41
BRANCH   6  44
HETATM   44  O9  UNL     1     -25.479 -10.782  -5.382  1.00  0.00    -0.343 OA
ATOM     45  H9  UNL     1     -25.003 -10.421  -4.644  1.00  0.00     0.219 HD
ENDBRANCH   6  44
BRANCH   6  46
HETATM   46  C17 UNL     1     -26.663 -10.534  -7.440  1.00  0.00     0.230 C
HETATM   47  O10 UNL     1     -27.532  -9.970  -8.034  1.00  0.00    -0.286 OA
BRANCH  46  48
HETATM   48  C18 UNL     1     -26.319 -11.923  -7.786  1.00  0.00     0.265 C
HETATM   49  C19 UNL     1     -26.318 -12.204  -9.292  1.00  0.00     0.069 C
HETATM   50  C20 UNL     1     -25.297 -13.268  -8.845  1.00  0.00     0.235 C
HETATM   51  N10 UNL     1     -24.912 -12.276  -7.821  1.00  0.00    -0.064 N
ATOM     52 2H10 UNL     1     -24.187 -11.579  -7.993  1.00  0.00     0.278 HD
ATOM     53 1H10 UNL     1     -24.403 -12.542  -6.978  1.00  0.00     0.278 HD
ENDBRANCH  46  48
ENDBRANCH   6  46
TORSDOF 12
ENDMDL