MODEL 4
REMARK VINA RESULT: -8.011589622      2.460      4.385
REMARK  13 active torsions:
REMARK  status: ('A' for Active; 'I' for Inactive)
REMARK    1  A    between atoms: N1_1  and  C1_4
REMARK    2  A    between atoms: C2_7  and  C3_8
REMARK    3  A    between atoms: C3_8  and  S1_9
REMARK    4  A    between atoms: S1_9  and  C4_12
REMARK    5  A    between atoms: C4_12  and  C5_13
REMARK    6  A    between atoms: C5_13  and  N3_14
REMARK    7  A    between atoms: C5_13  and  C6_18
REMARK    8  A    between atoms: C8_22  and  O3_23
REMARK    9  A    between atoms: C9_27  and  C10_28
REMARK   10  A    between atoms: C13_34  and  C14_35
REMARK   11  A    between atoms: C14_35  and  C15_36
REMARK   12  A    between atoms: C15_36  and  O7_37
REMARK   13  A    between atoms: C16_41  and  O8_42
ROOT
HETATM    1  C6  UNL     1     -26.127  -4.672  -9.837  1.00  0.00     0.205 C
HETATM    2  N4  UNL     1     -25.956  -3.653  -8.839  1.00  0.00    -0.381 N
ATOM      3  H4  UNL     1     -26.661  -3.484  -8.123  1.00  0.00     0.160 HD
HETATM    4  C7  UNL     1     -24.749  -2.886  -8.897  1.00  0.00     0.139 C
HETATM    5  C8  UNL     1     -23.867  -3.152 -10.016  1.00  0.00     0.151 C
HETATM    6  N5  UNL     1     -23.929  -2.823 -11.367  1.00  0.00    -0.355 N
ATOM      7  H5  UNL     1     -23.829  -3.640 -11.970  1.00  0.00     0.162 HD
HETATM    8  C9  UNL     1     -24.096  -1.636 -12.097  1.00  0.00     0.191 C
HETATM    9  C11 UNL     1     -24.073  -1.944 -13.598  1.00  0.00     0.116 C
HETATM   10  C12 UNL     1     -25.371  -1.883 -14.256  1.00  0.00     0.151 C
HETATM   11  O6  UNL     1     -25.555  -0.914 -15.012  1.00  0.00    -0.296 OA
HETATM   12  C13 UNL     1     -26.500  -2.847 -14.130  1.00  0.00     0.152 C
HETATM   13  N6  UNL     1     -26.048  -4.169 -13.914  1.00  0.00    -0.370 N
ATOM     14  H6  UNL     1     -25.226  -4.523 -14.402  1.00  0.00     0.158 HD
HETATM   15  C16 UNL     1     -26.759  -4.997 -13.006  1.00  0.00     0.325 C
HETATM   16  N7  UNL     1     -27.528  -4.335 -11.995  1.00  0.00    -0.317 N
ATOM     17  H7  UNL     1     -28.327  -3.793 -12.328  1.00  0.00     0.166 HD
HETATM   18  C17 UNL     1     -27.326  -4.334 -10.605  1.00  0.00     0.245 C
HETATM   19  O9  UNL     1     -28.349  -3.984  -9.915  1.00  0.00    -0.271 OA
ENDROOT
BRANCH   1  20
HETATM   20  C5  UNL     1     -26.248  -6.004  -9.080  1.00  0.00     0.229 C
BRANCH  20  21
HETATM   21  C4  UNL     1     -25.014  -6.836  -9.124  1.00  0.00     0.176 C
BRANCH  21  22
HETATM   22  S1  UNL     1     -24.781  -7.464  -7.457  1.00  0.00     0.153 S
HETATM   23  O1  UNL     1     -23.339  -7.701  -7.155  1.00  0.00    -0.227 OA
HETATM   24  O2  UNL     1     -25.514  -8.760  -7.261  1.00  0.00    -0.227 OA
BRANCH  22  25
HETATM   25  C3  UNL     1     -25.401  -6.272  -6.279  1.00  0.00     0.217 C
BRANCH  25  26
HETATM   26  C2  UNL     1     -24.304  -5.419  -5.764  1.00  0.00     0.115 A
HETATM   27  N2  UNL     1     -24.175  -5.269  -4.435  1.00  0.00    -0.180 N
HETATM   28  C1  UNL     1     -23.182  -4.495  -3.940  1.00  0.00     0.681 A
ATOM     29  H2  UNL     1     -24.823  -5.737  -3.801  1.00  0.00     0.185 HD
HETATM   30  N9  UNL     1     -22.347  -3.893  -4.777  1.00  0.00    -0.141 N
HETATM   31  C18 UNL     1     -22.480  -4.046  -6.100  1.00  0.00     0.339 A
ATOM     32  H9  UNL     1     -21.598  -3.308  -4.408  1.00  0.00     0.189 HD
HETATM   33  N8  UNL     1     -23.449  -4.802  -6.601  1.00  0.00    -0.296 N
HETATM   34  O10 UNL     1     -21.649  -3.445  -6.848  1.00  0.00    -0.246 OA
ATOM     35  H8  UNL     1     -23.546  -4.915  -7.610  1.00  0.00     0.172 HD
BRANCH  28  36
HETATM   36  N1  UNL     1     -23.054  -4.347  -2.655  1.00  0.00    -0.234 N
ATOM     37  H12 UNL     1     -22.861  -5.149  -2.056  1.00  0.00     0.174 HD
ATOM     38  H11 UNL     1     -23.146  -3.421  -2.238  1.00  0.00     0.174 HD
ENDBRANCH  28  36
ENDBRANCH  25  26
ENDBRANCH  22  25
ENDBRANCH  21  22
ENDBRANCH  20  21
BRANCH  20  39
HETATM   39  N3  UNL     1     -27.318  -6.793  -9.674  1.00  0.00    -0.072 N
ATOM     40  H33 UNL     1     -27.063  -7.771  -9.815  1.00  0.00     0.274 HD
ATOM     41  H32 UNL     1     -28.099  -6.953  -9.036  1.00  0.00     0.274 HD
ATOM     42  H31 UNL     1     -27.595  -6.323 -10.536  1.00  0.00     0.274 HD
ENDBRANCH  20  39
ENDBRANCH   1  20
BRANCH   5  43
HETATM   43  O3  UNL     1     -22.803  -3.839  -9.694  1.00  0.00    -0.345 OA
ATOM     44  H3  UNL     1     -22.349  -4.211 -10.441  1.00  0.00     0.219 HD
ENDBRANCH   5  43
BRANCH  15  45
HETATM   45  O8  UNL     1     -25.853  -5.929 -12.483  1.00  0.00    -0.360 OA
ATOM     46  H8  UNL     1     -25.360  -6.291 -13.209  1.00  0.00     0.214 HD
ENDBRANCH  15  45
BRANCH   8  47
HETATM   47  C10 UNL     1     -25.235  -0.771 -11.855  1.00  0.00     0.197 C
HETATM   48  O4  UNL     1     -26.359  -1.071 -11.392  1.00  0.00    -0.646 OA
HETATM   49  O5  UNL     1     -25.139   0.619 -12.157  1.00  0.00    -0.646 OA
ENDBRANCH   8  47
BRANCH  12  50
HETATM   50  C14 UNL     1     -27.282  -2.713 -15.443  1.00  0.00     0.058 C
BRANCH  50  51
HETATM   51  C15 UNL     1     -28.755  -2.618 -15.255  1.00  0.00     0.166 C
BRANCH  51  52
HETATM   52  O7  UNL     1     -29.087  -2.533 -13.881  1.00  0.00    -0.401 OA
ATOM     53  H7  UNL     1     -29.486  -1.696 -13.679  1.00  0.00     0.209 HD
ENDBRANCH  51  52
ENDBRANCH  50  51
ENDBRANCH  12  50
TORSDOF 13
ENDMDL