MODEL 3
REMARK VINA RESULT: -7.830423451      1.341      2.536
REMARK  17 active torsions:
REMARK  status: ('A' for Active; 'I' for Inactive)
REMARK    1  A    between atoms: N1_1  and  C1_4
REMARK    2  A    between atoms: C2_7  and  C3_8
REMARK    3  A    between atoms: C3_8  and  C4_9
REMARK    4  A    between atoms: C4_9  and  N4_11
REMARK    5  A    between atoms: N4_11  and  C5_13
REMARK    6  A    between atoms: C5_13  and  O1_14
REMARK    7  A    between atoms: C5_13  and  C6_16
REMARK    8  A    between atoms: C6_16  and  N5_17
REMARK    9  A    between atoms: C6_16  and  C12_34
REMARK       I    between atoms: N5_17  and  C7_19
REMARK   10  A    between atoms: C7_19  and  C8_21
REMARK   11  A    between atoms: N6_26  and  C11_27
REMARK   12  A    between atoms: C11_27  and  N7_28
REMARK   13  A    between atoms: C11_27  and  O5_32
REMARK   14  A    between atoms: C12_34  and  O6_35
REMARK   15  A    between atoms: C12_34  and  O7_37
REMARK   16  A    between atoms: O7_37  and  C13_38
REMARK   17  A    between atoms: C16_44  and  N9_45
ROOT
HETATM    1  C6  UNL     1     -24.268  -8.972  -7.005  1.00  0.00     0.214 C
ENDROOT
BRANCH   1   2
HETATM    2  C5  UNL     1     -23.898  -9.296  -5.567  1.00  0.00     0.144 C
BRANCH   2   3
HETATM    3  N4  UNL     1     -24.495  -9.915  -4.501  1.00  0.00    -0.330 N
ATOM      4  H4  UNL     1     -25.117 -10.714  -4.626  1.00  0.00     0.168 HD
BRANCH   3   5
HETATM    5  C4  UNL     1     -24.194  -9.372  -3.174  1.00  0.00     0.101 C
HETATM    6  N3  UNL     1     -24.569  -8.013  -3.052  1.00  0.00    -0.087 NA
BRANCH   5   7
HETATM    7  C3  UNL     1     -24.522 -10.260  -2.018  1.00  0.00     0.150 C
BRANCH   7   8
HETATM    8  C2  UNL     1     -24.390  -9.396  -0.743  1.00  0.00     0.096 A
HETATM    9  N2  UNL     1     -23.264  -9.042  -0.250  1.00  0.00    -0.325 N
HETATM   10  C1  UNL     1     -23.264  -8.363   0.941  1.00  0.00     0.160 A
ATOM     11  H2  UNL     1     -22.390  -9.259  -0.729  1.00  0.00     0.169 HD
HETATM   12  S1  UNL     1     -24.939  -8.281   1.255  1.00  0.00     0.023 SA
HETATM   13  N12 UNL     1     -25.520  -9.090  -0.103  1.00  0.00    -0.313 N
ATOM     14  H12 UNL     1     -26.485  -9.294  -0.367  1.00  0.00     0.175 HD
BRANCH  10  15
HETATM   15  N1  UNL     1     -22.214  -7.910   1.512  1.00  0.00    -0.379 N
ATOM     16  H12 UNL     1     -21.418  -7.345   1.216  1.00  0.00     0.158 HD
ATOM     17  H11 UNL     1     -21.947  -8.120   2.473  1.00  0.00     0.158 HD
ENDBRANCH  10  15
ENDBRANCH   7   8
ENDBRANCH   5   7
ENDBRANCH   3   5
ENDBRANCH   2   3
BRANCH   2  18
HETATM   18  O1  UNL     1     -22.673  -8.837  -5.294  1.00  0.00    -0.348 OA
ATOM     19  H1  UNL     1     -22.629  -7.890  -5.238  1.00  0.00     0.219 HD
ENDBRANCH   2  18
ENDBRANCH   1   2
BRANCH   1  20
HETATM   20  N5  UNL     1     -23.529  -7.719  -7.150  1.00  0.00    -0.339 N
HETATM   21  C7  UNL     1     -24.222  -6.498  -7.478  1.00  0.00     0.267 C
HETATM   22  O2  UNL     1     -25.453  -6.600  -7.732  1.00  0.00    -0.266 OA
ATOM     23  H5  UNL     1     -22.517  -7.709  -7.018  1.00  0.00     0.163 HD
BRANCH  21  24
HETATM   24  C8  UNL     1     -23.468  -5.286  -7.474  1.00  0.00     0.113 C
HETATM   25  C9  UNL     1     -23.789  -4.153  -8.357  1.00  0.00     0.243 C
HETATM   26  O3  UNL     1     -22.638  -3.295  -8.068  1.00  0.00    -0.297 OA
HETATM   27  C10 UNL     1     -22.178  -3.604  -6.772  1.00  0.00     0.371 C
HETATM   28  O4  UNL     1     -21.210  -3.067  -6.194  1.00  0.00    -0.238 OA
HETATM   29  N6  UNL     1     -23.060  -4.660  -6.265  1.00  0.00    -0.239 N
BRANCH  29  30
HETATM   30  C11 UNL     1     -23.263  -4.929  -4.883  1.00  0.00     0.435 C
BRANCH  30  31
HETATM   31  N7  UNL     1     -22.824  -3.949  -3.982  1.00  0.00    -0.034 N
ATOM     32  H73 UNL     1     -22.569  -3.103  -4.494  1.00  0.00     0.279 HD
ATOM     33  H72 UNL     1     -23.615  -3.606  -3.437  1.00  0.00     0.279 HD
ATOM     34  H71 UNL     1     -22.064  -4.213  -3.356  1.00  0.00     0.279 HD
ENDBRANCH  30  31
BRANCH  30  35
HETATM   35  O5  UNL     1     -22.361  -6.081  -4.613  1.00  0.00    -0.354 OA
ATOM     36  H5  UNL     1     -21.595  -5.894  -5.143  1.00  0.00     0.214 HD
ENDBRANCH  30  35
ENDBRANCH  29  30
ENDBRANCH  21  24
ENDBRANCH   1  20
BRANCH   1  37
HETATM   37  C12 UNL     1     -23.775 -10.117  -7.769  1.00  0.00     0.288 C
BRANCH  37  38
HETATM   38  O6  UNL     1     -22.485 -10.307  -7.831  1.00  0.00    -0.369 OA
ATOM     39  H6  UNL     1     -22.170 -11.177  -8.046  1.00  0.00     0.212 HD
ENDBRANCH  37  38
BRANCH  37  40
HETATM   40  O7  UNL     1     -24.500 -11.065  -8.465  1.00  0.00    -0.342 OA
BRANCH  40  41
HETATM   41  C13 UNL     1     -25.474 -11.870  -7.926  1.00  0.00     0.240 C
HETATM   42  C14 UNL     1     -25.260 -13.348  -7.979  1.00  0.00     0.248 C
HETATM   43  O8  UNL     1     -24.178 -13.950  -8.121  1.00  0.00    -0.271 OA
HETATM   44  N8  UNL     1     -26.545 -13.934  -7.839  1.00  0.00    -0.357 N
HETATM   45  C15 UNL     1     -27.583 -12.869  -7.893  1.00  0.00     0.151 C
ATOM     46  H8  UNL     1     -26.729 -14.930  -7.720  1.00  0.00     0.162 HD
HETATM   47  C16 UNL     1     -26.806 -11.789  -8.591  1.00  0.00     0.139 C
BRANCH  47  48
HETATM   48  N9  UNL     1     -27.357 -10.506  -8.679  1.00  0.00    -0.358 N
HETATM   49  C17 UNL     1     -27.371  -9.608  -9.551  1.00  0.00     0.197 C
HETATM   50  N10 UNL     1     -26.745  -9.776 -10.798  1.00  0.00    -0.067 NA
HETATM   51  N11 UNL     1     -28.015  -8.394  -9.266  1.00  0.00    -0.067 NA
ATOM     52  H9  UNL     1     -27.866 -10.241  -7.835  1.00  0.00     0.162 HD
ENDBRANCH  47  48
ENDBRANCH  40  41
ENDBRANCH  37  40
ENDBRANCH   1  37
TORSDOF 17
ENDMDL