MODEL 3
REMARK VINA RESULT: -8.270572931      4.719      7.671
REMARK  14 active torsions:
REMARK  status: ('A' for Active; 'I' for Inactive)
REMARK    1  A    between atoms: C2_2  and  O1_3
REMARK    2  A    between atoms: C2_2  and  C3_5
REMARK    3  A    between atoms: C3_5  and  N1_6
REMARK    4  A    between atoms: C3_5  and  C19_51
REMARK    5  A    between atoms: N1_6  and  C4_8
REMARK    6  A    between atoms: C4_8  and  O2_9
REMARK    7  A    between atoms: C5_11  and  N2_12
REMARK    8  A    between atoms: C5_11  and  C14_36
REMARK       I    between atoms: N2_12  and  C6_14
REMARK       I    between atoms: C6_14  and  N3_16
REMARK    9  A    between atoms: C9_20  and  O4_21
REMARK   10  A    between atoms: O4_21  and  C10_22
REMARK   11  A    between atoms: C13_31  and  N6_32
REMARK   12  A    between atoms: C17_40  and  C18_41
REMARK   13  A    between atoms: N9_43  and  N10_45
REMARK       I    between atoms: C19_51  and  N12_53
REMARK   14  A    between atoms: N12_53  and  N13_55
ROOT
HETATM    1  C4  UNL     1     -23.961  -9.061  -2.544  1.00  0.00     0.162 C
HETATM    2  C5  UNL     1     -23.917  -8.750  -3.953  1.00  0.00     0.097 C
ENDROOT
BRANCH   2   3
HETATM    3  N2  UNL     1     -24.772  -9.665  -4.704  1.00  0.00    -0.306 N
HETATM    4  C6  UNL     1     -24.422 -10.198  -5.972  1.00  0.00     0.325 C
HETATM    5  O3  UNL     1     -23.296  -9.813  -6.448  1.00  0.00    -0.247 OA
HETATM    6  N3  UNL     1     -25.275 -11.090  -6.645  1.00  0.00    -0.297 N
HETATM    7  C7  UNL     1     -26.511 -11.621  -6.119  1.00  0.00     0.204 C
HETATM    8  C9  UNL     1     -25.055 -11.620  -7.996  1.00  0.00     0.240 C
HETATM    9  S1  UNL     1     -26.349 -13.376  -6.687  1.00  0.00    -0.145 SA
HETATM   10  C8  UNL     1     -24.897 -13.094  -7.814  1.00  0.00     0.129 C
ATOM     11  H2  UNL     1     -25.667  -9.936  -4.297  1.00  0.00     0.170 HD
BRANCH   8  12
HETATM   12  O4  UNL     1     -24.172 -10.910  -8.696  1.00  0.00    -0.330 OA
BRANCH  12  13
HETATM   13  C10 UNL     1     -24.661  -9.955  -9.552  1.00  0.00     0.373 C
HETATM   14  N4  UNL     1     -24.669 -10.562 -10.899  1.00  0.00    -0.037 N
HETATM   15  C11 UNL     1     -25.087  -9.652 -11.920  1.00  0.00     0.337 C
ATOM     16  H42 UNL     1     -23.760 -10.967 -11.122  1.00  0.00     0.280 HD
ATOM     17  H41 UNL     1     -25.236 -11.410 -10.912  1.00  0.00     0.280 HD
HETATM   18  C12 UNL     1     -25.391  -8.278 -11.458  1.00  0.00     0.245 C
HETATM   19  O5  UNL     1     -26.295  -7.628 -12.024  1.00  0.00    -0.272 OA
HETATM   20  N5  UNL     1     -24.644  -7.751 -10.382  1.00  0.00    -0.329 N
HETATM   21  C13 UNL     1     -23.789  -8.731  -9.670  1.00  0.00     0.341 C
ATOM     22  H5  UNL     1     -24.690  -6.768 -10.113  1.00  0.00     0.164 HD
BRANCH  21  23
HETATM   23  N6  UNL     1     -22.660  -8.991 -10.515  1.00  0.00    -0.054 N
ATOM     24  H63 UNL     1     -21.847  -9.292  -9.977  1.00  0.00     0.277 HD
ATOM     25  H62 UNL     1     -22.794  -9.832 -11.075  1.00  0.00     0.277 HD
ATOM     26  H61 UNL     1     -22.449  -8.179 -11.096  1.00  0.00     0.277 HD
ENDBRANCH  21  23
ENDBRANCH  12  13
ENDBRANCH   8  12
ENDBRANCH   2   3
BRANCH   2  27
HETATM   27  C14 UNL     1     -23.876  -7.368  -4.439  1.00  0.00     0.271 C
HETATM   28  C15 UNL     1     -25.179  -7.095  -5.213  1.00  0.00     0.314 C
HETATM   29  N7  UNL     1     -24.858  -6.027  -6.085  1.00  0.00     0.124 N
HETATM   30  C16 UNL     1     -25.585  -5.951  -7.311  1.00  0.00     0.313 C
HETATM   31  C17 UNL     1     -23.412  -6.077  -6.307  1.00  0.00     0.485 C
HETATM   32  N11 UNL     1     -22.873  -7.071  -5.387  1.00  0.00    -0.025 N
ATOM     33 2H11 UNL     1     -21.996  -6.778  -4.957  1.00  0.00     0.281 HD
ATOM     34 1H11 UNL     1     -22.519  -7.900  -5.864  1.00  0.00     0.281 HD
BRANCH  31  35
HETATM   35  C18 UNL     1     -22.905  -4.717  -6.121  1.00  0.00     0.168 C
HETATM   36  N8  UNL     1     -22.729  -3.816  -7.212  1.00  0.00    -0.082 NA
HETATM   37  N9  UNL     1     -22.595  -4.306  -4.940  1.00  0.00    -0.294 N
ATOM     38  H9  UNL     1     -22.724  -4.964  -4.171  1.00  0.00     0.187 HD
BRANCH  37  39
HETATM   39  N10 UNL     1     -22.105  -3.059  -4.621  1.00  0.00    -0.344 N
ATOM     40 2H10 UNL     1     -21.096  -2.940  -4.710  1.00  0.00     0.176 HD
ATOM     41 1H10 UNL     1     -22.658  -2.261  -4.309  1.00  0.00     0.176 HD
ENDBRANCH  37  39
ENDBRANCH  31  35
ENDBRANCH   2  27
BRANCH   1  42
HETATM   42  N1  UNL     1     -24.091  -8.230  -1.426  1.00  0.00    -0.354 N
ATOM     43  H1  UNL     1     -23.937  -7.231  -1.566  1.00  0.00     0.162 HD
BRANCH  42  44
HETATM   44  C3  UNL     1     -24.431  -8.675  -0.060  1.00  0.00     0.206 C
BRANCH  44  45
HETATM   45  C2  UNL     1     -23.275  -8.562   0.858  1.00  0.00     0.146 C
HETATM   46  C1  UNL     1     -22.634  -9.910   1.160  1.00  0.00     0.042 C
BRANCH  45  47
HETATM   47  O1  UNL     1     -22.276  -7.799   0.268  1.00  0.00    -0.393 OA
ATOM     48  H1  UNL     1     -22.442  -6.905   0.545  1.00  0.00     0.210 HD
ENDBRANCH  45  47
ENDBRANCH  44  45
BRANCH  44  49
HETATM   49  C19 UNL     1     -25.696  -8.063   0.363  1.00  0.00     0.261 C
HETATM   50  O6  UNL     1     -25.938  -6.890  -0.140  1.00  0.00    -0.269 OA
HETATM   51  N12 UNL     1     -26.677  -8.543   1.222  1.00  0.00    -0.275 N
ATOM     52  H12 UNL     1     -26.536  -9.456   1.655  1.00  0.00     0.189 HD
BRANCH  51  53
HETATM   53  N13 UNL     1     -27.867  -7.826   1.529  1.00  0.00    -0.343 N
ATOM     54 2H13 UNL     1     -28.033  -7.595   2.509  1.00  0.00     0.176 HD
ATOM     55 1H13 UNL     1     -28.546  -7.540   0.824  1.00  0.00     0.176 HD
ENDBRANCH  51  53
ENDBRANCH  44  49
ENDBRANCH  42  44
ENDBRANCH   1  42
BRANCH   1  56
HETATM   56  O2  UNL     1     -23.875 -10.335  -2.208  1.00  0.00    -0.345 OA
ATOM     57  H2  UNL     1     -24.361 -10.528  -1.415  1.00  0.00     0.219 HD
ENDBRANCH   1  56
TORSDOF 14
ENDMDL