MODEL 4
REMARK VINA RESULT: -7.865145745      2.647      5.868
REMARK  13 active torsions:
REMARK  status: ('A' for Active; 'I' for Inactive)
REMARK    1  A    between atoms: N1_1  and  C1_5
REMARK    2  A    between atoms: C1_5  and  C2_6
REMARK    3  A    between atoms: C2_6  and  N2_7
REMARK    4  A    between atoms: C2_6  and  C3_11
REMARK       I    between atoms: C3_11  and  N3_13
REMARK    5  A    between atoms: N3_13  and  C4_15
REMARK       I    between atoms: N4_18  and  C7_19
REMARK    6  A    between atoms: C7_19  and  C8_21
REMARK    7  A    between atoms: C8_21  and  N5_22
REMARK       I    between atoms: N5_22  and  C9_24
REMARK    8  A    between atoms: C9_24  and  C10_26
REMARK    9  A    between atoms: C10_26  and  N6_27
REMARK       I    between atoms: N6_27  and  C11_29
REMARK   10  A    between atoms: C11_29  and  C12_31
REMARK   11  A    between atoms: C15_38  and  N9_39
REMARK       I    between atoms: N9_39  and  C16_40
REMARK       I    between atoms: C16_40  and  N10_42
REMARK   12  A    between atoms: N10_42  and  N11_44
REMARK   13  A    between atoms: C19_55  and  O7_56
ROOT
HETATM    1  N5  UNL     1     -23.305  -2.960  -7.128  1.00  0.00    -0.351 N
ATOM      2  H5  UNL     1     -24.072  -3.553  -6.812  1.00  0.00     0.163 HD
HETATM    3  C9  UNL     1     -22.143  -2.881  -6.360  1.00  0.00     0.235 C
HETATM    4  O3  UNL     1     -21.179  -2.164  -6.757  1.00  0.00    -0.272 OA
ENDROOT
BRANCH   3   5
HETATM    5  C10 UNL     1     -21.958  -3.591  -5.097  1.00  0.00     0.225 C
BRANCH   5   6
HETATM    6  N6  UNL     1     -22.467  -4.938  -5.032  1.00  0.00    -0.347 N
HETATM    7  C11 UNL     1     -23.519  -5.337  -4.181  1.00  0.00     0.270 C
HETATM    8  O4  UNL     1     -24.040  -4.487  -3.424  1.00  0.00    -0.266 OA
ATOM      9  H6  UNL     1     -22.043  -5.642  -5.637  1.00  0.00     0.163 HD
BRANCH   7  10
HETATM   10  C12 UNL     1     -23.995  -6.705  -4.173  1.00  0.00     0.117 A
HETATM   11  C13 UNL     1     -24.655  -7.303  -3.121  1.00  0.00     0.125 A
HETATM   12  N7  UNL     1     -25.047  -8.589  -3.243  1.00  0.00    -0.348 N
HETATM   13  C14 UNL     1     -24.810  -9.296  -4.364  1.00  0.00     0.141 A
ATOM     14  H7  UNL     1     -25.535  -9.037  -2.467  1.00  0.00     0.167 HD
HETATM   15  N8  UNL     1     -25.188 -10.559  -4.501  1.00  0.00    -0.300 N
HETATM   16  C18 UNL     1     -24.154  -8.692  -5.404  1.00  0.00     0.146 A
HETATM   17  C15 UNL     1     -24.973 -11.322  -5.615  1.00  0.00     0.268 A
ATOM     18  H8  UNL     1     -25.677 -10.994  -3.718  1.00  0.00     0.171 HD
HETATM   19  N12 UNL     1     -24.321 -10.708  -6.639  1.00  0.00    -0.281 N
HETATM   20  C17 UNL     1     -23.926  -9.446  -6.540  1.00  0.00     0.279 A
ATOM     21  H12 UNL     1     -24.133 -11.227  -7.497  1.00  0.00     0.173 HD
HETATM   22  O6  UNL     1     -23.317  -8.854  -7.482  1.00  0.00    -0.265 OA
HETATM   23  N13 UNL     1     -23.752  -7.422  -5.318  1.00  0.00    -0.343 N
ATOM     24  H13 UNL     1     -23.265  -6.986  -6.101  1.00  0.00     0.166 HD
BRANCH  17  25
HETATM   25  N9  UNL     1     -25.339 -12.453  -5.671  1.00  0.00    -0.315 NA
HETATM   26  C16 UNL     1     -25.655 -13.718  -5.760  1.00  0.00     0.415 C
HETATM   27  O5  UNL     1     -24.831 -14.633  -5.363  1.00  0.00    -0.228 OA
HETATM   28  N10 UNL     1     -26.895 -14.265  -6.284  1.00  0.00    -0.246 N
ATOM     29  H10 UNL     1     -27.618 -13.631  -6.626  1.00  0.00     0.192 HD
BRANCH  28  30
HETATM   30  N11 UNL     1     -27.110 -15.617  -6.325  1.00  0.00    -0.340 N
ATOM     31 2H11 UNL     1     -26.350 -16.222  -6.638  1.00  0.00     0.177 HD
ATOM     32 1H11 UNL     1     -28.007 -16.017  -6.050  1.00  0.00     0.177 HD
ENDBRANCH  28  30
ENDBRANCH  17  25
ENDBRANCH   7  10
ENDBRANCH   5   6
ENDBRANCH   3   5
BRANCH   1  33
HETATM   33  C8  UNL     1     -23.445  -2.226  -8.349  1.00  0.00     0.227 C
BRANCH  33  34
HETATM   34  C7  UNL     1     -23.509  -3.139  -9.503  1.00  0.00     0.253 C
HETATM   35  N4  UNL     1     -24.510  -2.931 -10.481  1.00  0.00    -0.261 N
HETATM   36  C6  UNL     1     -25.439  -1.850 -10.343  1.00  0.00     0.150 C
HETATM   37  N14 UNL     1     -24.587  -3.781 -11.573  1.00  0.00    -0.102 NA
HETATM   38  C5  UNL     1     -26.601  -2.107 -11.278  1.00  0.00     0.051 C
HETATM   39  C4  UNL     1     -26.969  -3.575 -11.195  1.00  0.00     0.132 C
HETATM   40  C19 UNL     1     -25.853  -4.457 -11.675  1.00  0.00     0.254 C
HETATM   41  O2  UNL     1     -22.677  -4.083  -9.598  1.00  0.00    -0.270 OA
BRANCH  39  42
HETATM   42  N3  UNL     1     -27.317  -3.866  -9.833  1.00  0.00    -0.351 N
HETATM   43  C3  UNL     1     -28.539  -4.513  -9.480  1.00  0.00     0.250 C
HETATM   44  O1  UNL     1     -29.325  -4.829 -10.414  1.00  0.00    -0.271 OA
ATOM     45  H3  UNL     1     -26.668  -3.601  -9.091  1.00  0.00     0.163 HD
BRANCH  43  46
HETATM   46  C2  UNL     1     -28.917  -4.822  -8.100  1.00  0.00     0.299 C
BRANCH  46  47
HETATM   47  C1  UNL     1     -30.351  -4.458  -7.782  1.00  0.00     0.272 C
BRANCH  47  48
HETATM   48  N1  UNL     1     -30.574  -3.112  -8.293  1.00  0.00    -0.077 N
ATOM     49  H13 UNL     1     -30.689  -2.418  -7.554  1.00  0.00     0.274 HD
ATOM     50  H12 UNL     1     -29.745  -2.705  -8.726  1.00  0.00     0.274 HD
ATOM     51  H11 UNL     1     -31.373  -3.160  -8.924  1.00  0.00     0.274 HD
ENDBRANCH  47  48
ENDBRANCH  46  47
BRANCH  46  52
HETATM   52  N2  UNL     1     -28.045  -4.107  -7.193  1.00  0.00    -0.065 N
ATOM     53  H23 UNL     1     -27.475  -3.408  -7.670  1.00  0.00     0.275 HD
ATOM     54  H22 UNL     1     -28.556  -3.475  -6.577  1.00  0.00     0.275 HD
ATOM     55  H21 UNL     1     -27.483  -4.784  -6.678  1.00  0.00     0.275 HD
ENDBRANCH  46  52
ENDBRANCH  43  46
ENDBRANCH  39  42
BRANCH  40  56
HETATM   56  O7  UNL     1     -26.069  -4.759 -13.017  1.00  0.00    -0.376 OA
ATOM     57  H7  UNL     1     -25.308  -4.488 -13.518  1.00  0.00     0.211 HD
ENDBRANCH  40  56
ENDBRANCH  33  34
ENDBRANCH   1  33
TORSDOF 13
ENDMDL