MODEL 5
REMARK VINA RESULT: -7.065226665      2.559      5.521
REMARK  15 active torsions:
REMARK  status: ('A' for Active; 'I' for Inactive)
REMARK       I    between atoms: C1_4  and  N3_6
REMARK    1  A    between atoms: N3_6  and  C2_8
REMARK    2  A    between atoms: C2_8  and  C3_9
REMARK    3  A    between atoms: C3_9  and  C4_10
REMARK    4  A    between atoms: C4_10  and  C5_11
REMARK    5  A    between atoms: C5_11  and  N4_12
REMARK    6  A    between atoms: C5_11  and  C6_16
REMARK    7  A    between atoms: N6_24  and  C11_25
REMARK    8  A    between atoms: C11_25  and  O2_26
REMARK    9  A    between atoms: C11_25  and  C12_28
REMARK   10  A    between atoms: C12_28  and  N7_29
REMARK   11  A    between atoms: C12_28  and  C13_33
REMARK   12  A    between atoms: C13_33  and  O3_34
REMARK   13  A    between atoms: C13_33  and  C14_36
REMARK   14  A    between atoms: C14_36  and  O4_37
REMARK       I    between atoms: N8_39  and  C15_40
REMARK   15  A    between atoms: C17_46  and  N11_47
ROOT
HETATM    1  C6  UNL     1     -25.111  -2.970 -10.745  1.00  0.00     0.161 C
HETATM    2  C7  UNL     1     -24.925  -4.147 -11.681  1.00  0.00     0.137 C
HETATM    3  C8  UNL     1     -26.210  -4.811 -11.998  1.00  0.00     0.220 C
HETATM    4  O1  UNL     1     -27.255  -4.122 -11.746  1.00  0.00    -0.274 OA
HETATM    5  N5  UNL     1     -26.400  -6.082 -12.533  1.00  0.00    -0.360 N
ATOM      6  H5  UNL     1     -27.008  -6.134 -13.349  1.00  0.00     0.162 HD
HETATM    7  C9  UNL     1     -25.843  -7.342 -12.077  1.00  0.00     0.139 C
HETATM    8  C10 UNL     1     -25.271  -7.246 -10.712  1.00  0.00     0.137 C
HETATM    9  N6  UNL     1     -25.586  -8.334  -9.808  1.00  0.00    -0.187 NA
HETATM   10  N8  UNL     1     -25.800  -7.745  -8.553  1.00  0.00    -0.220 N
HETATM   11  C15 UNL     1     -26.760  -8.325  -7.692  1.00  0.00     0.350 C
HETATM   12  N9  UNL     1     -27.050  -7.808  -6.396  1.00  0.00    -0.038 NA
HETATM   13  O5  UNL     1     -27.393  -9.324  -8.053  1.00  0.00    -0.249 OA
HETATM   14  C16 UNL     1     -25.097  -6.581  -8.127  1.00  0.00     0.223 C
HETATM   15  N10 UNL     1     -24.438  -6.654  -6.868  1.00  0.00    -0.184 N
ATOM     16  H10 UNL     1     -24.460  -7.528  -6.342  1.00  0.00     0.185 HD
HETATM   17  C17 UNL     1     -23.748  -5.534  -6.327  1.00  0.00     0.708 C
HETATM   18  N13 UNL     1     -23.264  -4.550  -6.917  1.00  0.00    -0.156 N
ATOM     19  H13 UNL     1     -22.841  -3.941  -6.217  1.00  0.00     0.187 HD
HETATM   20  C19 UNL     1     -23.084  -3.979  -8.127  1.00  0.00     0.259 C
HETATM   21  O6  UNL     1     -22.158  -4.338  -8.931  1.00  0.00    -0.270 OA
HETATM   22  C20 UNL     1     -23.914  -2.859  -8.716  1.00  0.00     0.271 C
HETATM   23  O7  UNL     1     -24.975  -3.238  -9.434  1.00  0.00    -0.374 OA
ENDROOT
BRANCH   1  24
HETATM   24  C5  UNL     1     -24.408  -1.735 -11.272  1.00  0.00     0.212 C
BRANCH  24  25
HETATM   25  C4  UNL     1     -25.251  -0.543 -11.009  1.00  0.00     0.037 C
BRANCH  25  26
HETATM   26  C3  UNL     1     -26.710  -0.664 -11.205  1.00  0.00     0.022 C
BRANCH  26  27
HETATM   27  C2  UNL     1     -27.550  -1.031 -10.048  1.00  0.00     0.122 C
BRANCH  27  28
HETATM   28  N3  UNL     1     -28.530  -2.062 -10.341  1.00  0.00    -0.365 N
HETATM   29  C1  UNL     1     -29.420  -2.412  -9.290  1.00  0.00     0.181 C
HETATM   30  N1  UNL     1     -28.961  -3.159  -8.347  1.00  0.00    -0.374 N
HETATM   31  N2  UNL     1     -30.773  -1.988  -9.226  1.00  0.00    -0.064 NA
ATOM     32  H12 UNL     1     -29.599  -3.410  -7.593  1.00  0.00     0.158 HD
ATOM     33  H11 UNL     1     -27.989  -3.464  -8.393  1.00  0.00     0.158 HD
ATOM     34  H3  UNL     1     -28.576  -2.512 -11.255  1.00  0.00     0.162 HD
ENDBRANCH  27  28
ENDBRANCH  26  27
ENDBRANCH  25  26
ENDBRANCH  24  25
BRANCH  24  35
HETATM   35  N4  UNL     1     -24.315  -1.917 -12.709  1.00  0.00    -0.073 N
ATOM     36  H43 UNL     1     -23.904  -1.111 -13.181  1.00  0.00     0.274 HD
ATOM     37  H42 UNL     1     -23.611  -2.606 -12.973  1.00  0.00     0.274 HD
ATOM     38  H41 UNL     1     -25.244  -2.148 -13.062  1.00  0.00     0.274 HD
ENDBRANCH  24  35
ENDBRANCH   1  24
BRANCH  17  39
HETATM   39  N11 UNL     1     -23.623  -5.580  -4.887  1.00  0.00    -0.079 N
HETATM   40  C18 UNL     1     -24.322  -5.388  -3.628  1.00  0.00     0.243 A
HETATM   41  N12 UNL     1     -22.981  -5.772  -3.663  1.00  0.00    -0.272 N
ATOM     42  H12 UNL     1     -22.132  -6.019  -3.154  1.00  0.00     0.189 HD
ENDBRANCH  17  39
BRANCH   9  43
HETATM   43  C11 UNL     1     -24.439  -9.222  -9.636  1.00  0.00     0.245 C
BRANCH  43  44
HETATM   44  O2  UNL     1     -24.003  -9.573 -10.939  1.00  0.00    -0.377 OA
ATOM     45  H2  UNL     1     -23.169  -9.139 -11.071  1.00  0.00     0.211 HD
ENDBRANCH  43  44
BRANCH  43  46
HETATM   46  C12 UNL     1     -24.733 -10.485  -8.926  1.00  0.00     0.258 C
BRANCH  46  47
HETATM   47  N7  UNL     1     -24.953 -11.556  -9.917  1.00  0.00    -0.069 N
ATOM     48  H73 UNL     1     -24.311 -11.492 -10.706  1.00  0.00     0.275 HD
ATOM     49  H72 UNL     1     -24.663 -12.470  -9.570  1.00  0.00     0.275 HD
ATOM     50  H71 UNL     1     -25.930 -11.545 -10.210  1.00  0.00     0.275 HD
ENDBRANCH  46  47
BRANCH  46  51
HETATM   51  C13 UNL     1     -23.745 -10.953  -7.909  1.00  0.00     0.176 C
BRANCH  51  52
HETATM   52  O3  UNL     1     -22.443 -10.531  -8.320  1.00  0.00    -0.391 OA
ATOM     53  H3  UNL     1     -21.884 -10.499  -7.553  1.00  0.00     0.210 HD
ENDBRANCH  51  52
BRANCH  51  54
HETATM   54  C14 UNL     1     -23.911 -10.261  -6.548  1.00  0.00     0.198 C
BRANCH  54  55
HETATM   55  O4  UNL     1     -22.968  -9.277  -6.423  1.00  0.00    -0.398 OA
ATOM     56  H4  UNL     1     -23.072  -8.652  -7.130  1.00  0.00     0.209 HD
ENDBRANCH  54  55
ENDBRANCH  51  54
ENDBRANCH  46  51
ENDBRANCH  43  46
ENDBRANCH   9  43
TORSDOF 15
ENDMDL