MODEL 3
REMARK VINA RESULT: -6.734082081      3.239      5.934
REMARK  7 active torsions:
REMARK  status: ('A' for Active; 'I' for Inactive)
REMARK    1  A    between atoms: C1_2  and  C2_3
REMARK    2  A    between atoms: C1_2  and  O3_6
REMARK    3  A    between atoms: C2_3  and  O2_4
REMARK    4  A    between atoms: O3_6  and  C3_7
REMARK    5  A    between atoms: C3_7  and  C4_9
REMARK    6  A    between atoms: C4_9  and  O5_10
REMARK    7  A    between atoms: O5_10  and  C5_11
ROOT
HETATM    1  O5  UNL     1      -4.486   2.259  12.754  1.00  0.00    -0.314 OA
ENDROOT
BRANCH   1   2
HETATM    2  C4  UNL     1      -4.783   2.450  14.047  1.00  0.00     0.225 C
BRANCH   2   3
HETATM    3  C3  UNL     1      -3.784   2.568  15.100  1.00  0.00     0.313 C
HETATM    4  O4  UNL     1      -3.013   3.495  15.365  1.00  0.00    -0.258 OA
BRANCH   3   5
HETATM    5  O3  UNL     1      -3.657   1.446  15.976  1.00  0.00    -0.238 OA
BRANCH   5   6
HETATM    6  C1  UNL     1      -4.712   0.583  16.178  1.00  0.00     0.290 C
HETATM    7  O1  UNL     1      -4.742  -0.507  15.567  1.00  0.00    -0.262 OA
BRANCH   6   8
HETATM    8  C2  UNL     1      -5.828   0.913  17.112  1.00  0.00     0.275 C
BRANCH   8   9
HETATM    9  O2  UNL     1      -6.997   0.297  16.701  1.00  0.00    -0.391 OA
ATOM     10  H2  UNL     1      -7.479   0.864  16.110  1.00  0.00     0.210 HD
ENDBRANCH   8   9
ENDBRANCH   6   8
ENDBRANCH   5   6
ENDBRANCH   3   5
ENDBRANCH   2   3
ENDBRANCH   1   2
BRANCH   1  11
HETATM   11  C5  UNL     1      -3.433   2.101  11.947  1.00  0.00     0.116 A
HETATM   12  C6  UNL     1      -3.032   0.796  11.607  1.00  0.00     0.069 A
HETATM   13 CL1  UNL     1      -3.927  -0.590  12.251  1.00  0.00    -0.081 Cl
HETATM   14  C7  UNL     1      -1.955   0.621  10.785  1.00  0.00     0.028 A
HETATM   15  C8  UNL     1      -1.259   1.703  10.285  1.00  0.00     0.027 A
HETATM   16  C9  UNL     1      -1.626   2.993  10.600  1.00  0.00     0.054 A
HETATM   17 CL2  UNL     1      -0.739   4.354   9.962  1.00  0.00    -0.083 Cl
HETATM   18  C10 UNL     1      -2.726   3.156  11.442  1.00  0.00     0.068 A
HETATM   19 BR1  UNL     1      -3.085   4.984  11.917  1.00  0.00    -0.046 Br
ENDBRANCH   1  11
TORSDOF 7
ENDMDL