MODEL 2
REMARK VINA RESULT: -8.004872030      0.127      1.295
REMARK  4 active torsions:
REMARK  status: ('A' for Active; 'I' for Inactive)
REMARK    1  A    between atoms: C2_3  and  C3_4
REMARK    2  A    between atoms: C9_13  and  C10_14
REMARK       I    between atoms: C10_14  and  N2_16
REMARK    3  A    between atoms: N2_16  and  C11_18
REMARK    4  A    between atoms: C11_18  and  C12_19
ROOT
HETATM    1  N1  UNL     1      -5.054   5.219  10.746  1.00  0.00    -0.193 NA
HETATM    2  C1  UNL     1      -4.551   5.097  11.789  1.00  0.00     0.118 C
HETATM    3  C2  UNL     1      -3.913   4.919  13.089  1.00  0.00     0.259 C
HETATM    4  O1  UNL     1      -3.326   3.654  13.141  1.00  0.00    -0.197 OA
HETATM    5  O2  UNL     1      -3.214   3.172  14.330  1.00  0.00    -0.222 OA
HETATM    6  C9  UNL     1      -4.271   2.406  14.764  1.00  0.00     0.261 C
HETATM    7  C13 UNL     1      -5.616   3.110  14.549  1.00  0.00     0.123 C
HETATM    8  S1  UNL     1      -5.213   4.885  14.360  1.00  0.00    -0.105 SA
ENDROOT
BRANCH   3   9
HETATM    9  C3  UNL     1      -2.923   5.994  13.341  1.00  0.00     0.004 A
HETATM   10  C4  UNL     1      -2.788   6.632  14.558  1.00  0.00     0.014 A
HETATM   11  C5  UNL     1      -1.851   7.632  14.759  1.00  0.00     0.024 A
HETATM   12  C6  UNL     1      -1.039   7.980  13.683  1.00  0.00     0.034 A
HETATM   13 CL1  UNL     1       0.173   9.227  13.833  1.00  0.00    -0.084 Cl
HETATM   14  C7  UNL     1      -1.164   7.347  12.460  1.00  0.00     0.024 A
HETATM   15  C8  UNL     1      -2.108   6.354  12.288  1.00  0.00     0.014 A
ENDBRANCH   3   9
BRANCH   6  16
HETATM   16  C10 UNL     1      -4.300   1.058  14.203  1.00  0.00     0.250 C
HETATM   17  O3  UNL     1      -4.693   0.095  14.897  1.00  0.00    -0.271 OA
HETATM   18  N2  UNL     1      -3.887   0.823  12.870  1.00  0.00    -0.350 N
ATOM     19  H2  UNL     1      -3.565   1.605  12.299  1.00  0.00     0.162 HD
BRANCH  18  20
HETATM   20  C11 UNL     1      -3.913  -0.517  12.299  1.00  0.00     0.240 C
BRANCH  20  21
HETATM   21  C12 UNL     1      -3.035  -0.635  11.088  1.00  0.00     0.403 C
HETATM   22  F1  UNL     1      -2.756  -1.976  10.908  1.00  0.00    -0.169 F
HETATM   23  F2  UNL     1      -1.860   0.072  11.210  1.00  0.00    -0.169 F
HETATM   24  F3  UNL     1      -3.747  -0.232   9.962  1.00  0.00    -0.169 F
ENDBRANCH  20  21
ENDBRANCH  18  20
ENDBRANCH   6  16
TORSDOF 4
ENDMDL