MODEL 3
REMARK VINA RESULT: -6.772752717      1.792      2.595
REMARK  4 active torsions:
REMARK  status: ('A' for Active; 'I' for Inactive)
REMARK    1  A    between atoms: O1_2  and  C2_3
REMARK       I    between atoms: C2_3  and  N1_5
REMARK    2  A    between atoms: N1_5  and  C3_7
REMARK    3  A    between atoms: C3_7  and  C4_8
REMARK    4  A    between atoms: C4_8  and  N2_9
ROOT
HETATM    1  N2  UNL     1      -3.326   3.098  12.121  1.00  0.00    -0.381 N
HETATM    2  C5  UNL     1      -3.915   4.122  12.902  1.00  0.00     0.146 C
HETATM    3  C6  UNL     1      -3.686   5.451  12.242  1.00  0.00     0.153 C
HETATM    4 CL1  UNL     1      -4.886   5.604  10.929  1.00  0.00    -0.117 Cl
HETATM    5  C7  UNL     1      -2.310   5.544  11.743  1.00  0.00     0.074 A
HETATM    6  C8  UNL     1      -1.631   6.662  11.245  1.00  0.00     0.130 A
HETATM    7 CL2  UNL     1      -2.183   8.299  11.053  1.00  0.00    -0.062 Cl
HETATM    8  N3  UNL     1      -0.407   6.218  10.925  1.00  0.00    -0.321 N
ATOM      9  H3  UNL     1       0.341   6.788  10.531  1.00  0.00     0.169 HD
HETATM   10  C9  UNL     1      -0.319   4.891  11.204  1.00  0.00     0.184 A
HETATM   11 CL3  UNL     1       1.153   3.963  10.912  1.00  0.00    -0.044 Cl
HETATM   12  N4  UNL     1      -1.491   4.491  11.705  1.00  0.00    -0.306 N
HETATM   13  C10 UNL     1      -1.914   3.164  12.160  1.00  0.00     0.253 C
ENDROOT
BRANCH   1  14
HETATM   14  C4  UNL     1      -3.974   1.858  12.020  1.00  0.00     0.079 A
HETATM   15  C11 UNL     1      -5.166   1.822  11.058  1.00  0.00     0.075 A
HETATM   16  C12 UNL     1      -3.906   1.215  10.623  1.00  0.00     0.202 A
HETATM   17  F1  UNL     1      -3.905  -0.161  10.531  1.00  0.00    -0.247 F
BRANCH  14  18
HETATM   18  C3  UNL     1      -4.000   0.825  13.110  1.00  0.00     0.158 C
BRANCH  18  19
HETATM   19  N1  UNL     1      -4.110   1.450  14.400  1.00  0.00    -0.334 N
HETATM   20  C2  UNL     1      -4.459   0.670  15.567  1.00  0.00     0.360 C
HETATM   21  O2  UNL     1      -4.662  -0.561  15.418  1.00  0.00    -0.239 OA
ATOM     22  H1  UNL     1      -3.940   2.451  14.493  1.00  0.00     0.164 HD
BRANCH  20  23
HETATM   23  O1  UNL     1      -4.575   1.223  16.815  1.00  0.00    -0.309 OA
HETATM   24  C1  UNL     1      -5.812   1.282  17.516  1.00  0.00     0.215 C
ENDBRANCH  20  23
ENDBRANCH  18  19
ENDBRANCH  14  18
ENDBRANCH   1  14
TORSDOF 4
ENDMDL