MODEL 1
REMARK VINA RESULT: -8.513852744      0.000      0.000
REMARK  3 active torsions:
REMARK  status: ('A' for Active; 'I' for Inactive)
REMARK    1  A    between atoms: C3_6  and  N3_7
REMARK       I    between atoms: N3_7  and  C4_9
REMARK    2  A    between atoms: C4_9  and  C5_11
REMARK    3  A    between atoms: C9_16  and  N4_17
ROOT
HETATM    1  C1  UNL     1      -1.555   4.978  11.252  1.00  0.00     0.179 C
HETATM    2  N1  UNL     1      -2.279   4.622  12.454  1.00  0.00    -0.280 N
HETATM    3  N2  UNL     1      -2.310   5.488  13.499  1.00  0.00    -0.306 N
ATOM      4  H2  UNL     1      -1.840   6.392  13.530  1.00  0.00     0.186 HD
HETATM    5  C2  UNL     1      -3.043   4.978  14.464  1.00  0.00     0.141 A
HETATM    6  C3  UNL     1      -3.524   3.723  14.064  1.00  0.00     0.098 A
HETATM    7  C9  UNL     1      -3.010   3.533  12.760  1.00  0.00     0.152 A
ENDROOT
BRANCH   7   8
HETATM    8  N4  UNL     1      -3.192   2.337  12.001  1.00  0.00    -0.315 N
HETATM    9  C10 UNL     1      -2.073   1.882  11.150  1.00  0.00     0.135 C
HETATM   10  C11 UNL     1      -2.009   0.343  11.229  1.00  0.00     0.099 C
HETATM   11  C12 UNL     1      -3.192  -0.293  10.584  1.00  0.00     0.251 C
HETATM   12  F1  UNL     1      -3.557  -1.481  11.164  1.00  0.00    -0.206 F
HETATM   13  F2  UNL     1      -2.929  -0.578   9.234  1.00  0.00    -0.206 F
HETATM   14  C13 UNL     1      -4.299   0.736  10.601  1.00  0.00     0.163 C
HETATM   15  C14 UNL     1      -4.275   1.423  12.036  1.00  0.00     0.263 C
HETATM   16  F3  UNL     1      -5.526   2.022  12.019  1.00  0.00    -0.200 F
HETATM   17 CL1  UNL     1      -4.141   0.049  13.120  1.00  0.00    -0.059 Cl
ENDBRANCH   7   8
BRANCH   6  18
HETATM   18  N3  UNL     1      -4.220   2.837  14.908  1.00  0.00    -0.322 N
HETATM   19  C4  UNL     1      -5.624   2.944  15.060  1.00  0.00     0.228 C
HETATM   20  O1  UNL     1      -6.383   3.756  14.518  1.00  0.00    -0.273 OA
ATOM     21  H3  UNL     1      -3.710   2.112  15.412  1.00  0.00     0.169 HD
BRANCH  19  22
HETATM   22  C5  UNL     1      -6.295   1.964  15.991  1.00  0.00     0.104 C
HETATM   23  C6  UNL     1      -6.603   2.754  17.253  1.00  0.00     0.042 C
HETATM   24  C7  UNL     1      -6.172   1.785  18.328  1.00  0.00     0.168 C
HETATM   25  O2  UNL     1      -5.157   1.022  17.798  1.00  0.00    -0.390 OA
HETATM   26  C8  UNL     1      -5.381   0.877  16.443  1.00  0.00     0.181 C
ENDBRANCH  19  22
ENDBRANCH   6  18
TORSDOF 3
ENDMDL