MODEL 3
REMARK VINA RESULT: -6.580634306      0.580      1.598
REMARK  5 active torsions:
REMARK  status: ('A' for Active; 'I' for Inactive)
REMARK       I    between atoms: C1_2  and  N1_3
REMARK    1  A    between atoms: C1_2  and  C11_21
REMARK    2  A    between atoms: N1_3  and  O2_4
REMARK    3  A    between atoms: N1_3  and  C2_6
REMARK    4  A    between atoms: C2_6  and  C3_7
REMARK    5  A    between atoms: N2_10  and  C6_11
ROOT
HETATM    1  C3  UNL     1      -3.102   4.779  11.637  1.00  0.00     0.026 C
HETATM    2  C4  UNL     1      -2.733   3.379  11.195  1.00  0.00     0.028 C
HETATM    3  C5  UNL     1      -3.998   2.615  11.509  1.00  0.00     0.141 C
HETATM    4  N2  UNL     1      -4.329   3.140  12.818  1.00  0.00    -0.217 N
HETATM    5  C10 UNL     1      -4.254   4.582  12.628  1.00  0.00     0.147 C
ENDROOT
BRANCH   1   6
HETATM    6  C2  UNL     1      -3.540   5.536  10.410  1.00  0.00     0.165 C
BRANCH   6   7
HETATM    7  N1  UNL     1      -4.419   6.632  10.658  1.00  0.00    -0.225 N
HETATM    8  C1  UNL     1      -5.714   6.671  10.095  1.00  0.00     0.297 C
HETATM    9  O1  UNL     1      -6.102   5.710   9.351  1.00  0.00    -0.266 OA
BRANCH   8  10
HETATM   10  C11 UNL     1      -6.618   7.811  10.362  1.00  0.00     0.271 C
HETATM   11 CL2  UNL     1      -5.679   9.327  10.325  1.00  0.00    -0.073 Cl
HETATM   12 CL3  UNL     1      -7.380   7.587  11.958  1.00  0.00    -0.073 Cl
HETATM   13 CL4  UNL     1      -7.839   7.871   9.075  1.00  0.00    -0.073 Cl
ENDBRANCH   8  10
BRANCH   7  14
HETATM   14  O2  UNL     1      -4.019   7.646  11.440  1.00  0.00    -0.285 OA
ATOM     15  H2  UNL     1      -4.128   7.572  12.381  1.00  0.00     0.245 HD
ENDBRANCH   7  14
ENDBRANCH   6   7
ENDBRANCH   1   6
BRANCH   4  16
HETATM   16  C6  UNL     1      -4.643   2.384  13.970  1.00  0.00     0.681 A
HETATM   17  N3  UNL     1      -4.087   1.185  14.150  1.00  0.00    -0.202 N
HETATM   18  C7  UNL     1      -4.304   0.381  15.193  1.00  0.00     0.109 A
ATOM     19  H3  UNL     1      -3.443   0.856  13.432  1.00  0.00     0.183 HD
HETATM   20  C8  UNL     1      -5.173   0.824  16.166  1.00  0.00     0.060 A
HETATM   21  C9  UNL     1      -5.762   2.060  16.003  1.00  0.00     0.120 A
HETATM   22 CL1  UNL     1      -6.862   2.591  17.259  1.00  0.00    -0.064 Cl
HETATM   23  N4  UNL     1      -5.492   2.815  14.922  1.00  0.00    -0.181 N
ATOM     24  H4  UNL     1      -5.938   3.727  14.822  1.00  0.00     0.185 HD
ENDBRANCH   4  16
TORSDOF 5
ENDMDL