MODEL 2
REMARK VINA RESULT: -7.702508300      3.329      4.040
REMARK  4 active torsions:
REMARK  status: ('A' for Active; 'I' for Inactive)
REMARK    1  A    between atoms: C2_3  and  N2_4
REMARK    2  A    between atoms: C5_7  and  N3_8
REMARK    3  A    between atoms: N3_8  and  C6_10
REMARK    4  A    between atoms: C8_13  and  C9_14
ROOT
HETATM    1  N2  UNL     1      -4.356   6.116  12.463  1.00  0.00    -0.345 N
HETATM    2  C3  UNL     1      -3.108   6.428  13.032  1.00  0.00     0.068 C
HETATM    3  C4  UNL     1      -2.616   5.272  13.867  1.00  0.00     0.071 C
HETATM    4  C5  UNL     1      -3.853   4.482  14.153  1.00  0.00     0.100 C
HETATM    5  C11 UNL     1      -4.961   5.126  13.382  1.00  0.00     0.154 C
ENDROOT
BRANCH   4   6
HETATM    6  N3  UNL     1      -3.743   3.103  13.914  1.00  0.00    -0.409 N
ATOM      7  H3  UNL     1      -3.284   2.795  13.056  1.00  0.00     0.154 HD
BRANCH   6   8
HETATM    8  C6  UNL     1      -4.223   2.147  14.777  1.00  0.00     0.103 C
HETATM    9  C7  UNL     1      -3.518   1.748  16.008  1.00  0.00     0.193 C
HETATM   10  O1  UNL     1      -4.445   1.021  16.765  1.00  0.00    -0.375 OA
HETATM   11  C8  UNL     1      -5.703   1.221  16.288  1.00  0.00     0.230 C
HETATM   12  C10 UNL     1      -5.639   2.354  15.288  1.00  0.00     0.068 C
BRANCH  11  13
HETATM   13  C9  UNL     1      -6.688   1.614  17.383  1.00  0.00     0.413 C
HETATM   14  F1  UNL     1      -6.030   1.779  18.570  1.00  0.00    -0.168 F
HETATM   15  F2  UNL     1      -7.134   2.903  17.024  1.00  0.00    -0.168 F
HETATM   16  F3  UNL     1      -7.795   0.830  17.424  1.00  0.00    -0.168 F
ENDBRANCH  11  13
ENDBRANCH   6   8
ENDBRANCH   4   6
BRANCH   1  17
HETATM   17  C2  UNL     1      -5.096   6.530  11.331  1.00  0.00     0.111 A
HETATM   18  N1  UNL     1      -4.742   6.137  10.109  1.00  0.00    -0.303 N
HETATM   19  C1  UNL     1      -3.574   5.324   9.928  1.00  0.00     0.161 C
HETATM   20  C15 UNL     1      -5.478   6.529   9.018  1.00  0.00     0.270 A
HETATM   21  C14 UNL     1      -6.594   7.334   9.148  1.00  0.00     0.102 A
HETATM   22  O2  UNL     1      -5.106   6.137   7.888  1.00  0.00    -0.266 OA
HETATM   23  C13 UNL     1      -6.969   7.743  10.402  1.00  0.00     0.033 A
HETATM   24 CL1  UNL     1      -7.548   7.852   7.777  1.00  0.00    -0.078 Cl
HETATM   25  C12 UNL     1      -6.230   7.349  11.488  1.00  0.00     0.051 A
ENDBRANCH   1  17
TORSDOF 4
ENDMDL