MODEL 3
REMARK VINA RESULT: -6.819086659      2.355      3.575
REMARK  5 active torsions:
REMARK  status: ('A' for Active; 'I' for Inactive)
REMARK    1  A    between atoms: C1_2  and  C2_3
REMARK    2  A    between atoms: C1_2  and  C6_17
REMARK    3  A    between atoms: C2_3  and  N1_4
REMARK    4  A    between atoms: C3_5  and  C4_6
REMARK    5  A    between atoms: N2_10  and  O2_11
ROOT
HETATM    1  N1  UNL     1      -2.560   2.847  11.579  1.00  0.00    -0.273 N
HETATM    2  C3  UNL     1      -2.002   3.856  12.219  1.00  0.00     0.190 A
HETATM    3  N2  UNL     1      -0.715   3.929  11.769  1.00  0.00    -0.142 N
HETATM    4  N3  UNL     1      -0.508   3.001  10.894  1.00  0.00    -0.223 N
ATOM      5  H3  UNL     1       0.365   2.827  10.397  1.00  0.00     0.194 HD
HETATM    6  C5  UNL     1      -1.627   2.324  10.761  1.00  0.00     0.345 A
HETATM    7  O3  UNL     1      -1.792   1.326   9.973  1.00  0.00    -0.245 OA
ENDROOT
BRANCH   1   8
HETATM    8  C2  UNL     1      -3.890   2.350  11.685  1.00  0.00     0.219 C
BRANCH   8   9
HETATM    9  C1  UNL     1      -4.056   1.203  12.607  1.00  0.00     0.177 C
HETATM   10  O1  UNL     1      -3.745   0.067  12.218  1.00  0.00    -0.291 OA
BRANCH   9  11
HETATM   11  C6  UNL     1      -4.575   1.429  13.938  1.00  0.00     0.011 A
HETATM   12  C7  UNL     1      -4.349   0.519  14.960  1.00  0.00     0.017 A
HETATM   13  C8  UNL     1      -4.848   0.703  16.230  1.00  0.00     0.025 A
HETATM   14  C9  UNL     1      -5.608   1.829  16.533  1.00  0.00     0.034 A
HETATM   15 CL4  UNL     1      -6.207   1.982  18.178  1.00  0.00    -0.084 Cl
HETATM   16  C10 UNL     1      -5.847   2.744  15.546  1.00  0.00     0.025 A
HETATM   17  C11 UNL     1      -5.335   2.538  14.277  1.00  0.00     0.017 A
ENDBRANCH   9  11
ENDBRANCH   8   9
ENDBRANCH   1   8
BRANCH   2  18
HETATM   18  C4  UNL     1      -2.494   4.808  13.211  1.00  0.00     0.251 C
HETATM   19 CL1  UNL     1      -1.446   6.280  13.089  1.00  0.00    -0.075 Cl
HETATM   20 CL2  UNL     1      -4.137   5.414  12.762  1.00  0.00    -0.075 Cl
HETATM   21 CL3  UNL     1      -2.426   4.343  14.882  1.00  0.00    -0.075 Cl
ENDBRANCH   2  18
BRANCH   3  22
HETATM   22  O2  UNL     1       0.264   4.833  12.153  1.00  0.00    -0.266 OA
ATOM     23  H2  UNL     1       0.755   5.424  11.596  1.00  0.00     0.247 HD
ENDBRANCH   3  22
TORSDOF 5
ENDMDL