MODEL 3
REMARK VINA RESULT: -7.251905035      2.909      5.291
REMARK  5 active torsions:
REMARK  status: ('A' for Active; 'I' for Inactive)
REMARK    1  A    between atoms: O1_1  and  C1_3
REMARK    2  A    between atoms: C1_3  and  C2_4
REMARK    3  A    between atoms: N1_6  and  C4_7
REMARK    4  A    between atoms: C9_16  and  C10_17
REMARK    5  A    between atoms: N4_20  and  C11_21
ROOT
HETATM    1  C2  UNL     1      -3.476   4.582  11.383  1.00  0.00     0.122 C
HETATM    2  C3  UNL     1      -3.556   5.998  11.980  1.00  0.00     0.168 C
HETATM    3  N1  UNL     1      -3.075   6.069  13.322  1.00  0.00    -0.213 N
HETATM    4  C8  UNL     1      -3.511   5.088  14.265  1.00  0.00     0.171 C
HETATM    5  C9  UNL     1      -4.447   4.153  13.497  1.00  0.00     0.163 C
HETATM    6  N4  UNL     1      -3.904   3.623  12.320  1.00  0.00    -0.389 N
ENDROOT
BRANCH   3   7
HETATM    7  C4  UNL     1      -2.181   7.091  13.715  1.00  0.00     0.679 A
HETATM    8  N2  UNL     1      -1.248   7.587  12.859  1.00  0.00    -0.202 N
HETATM    9  C5  UNL     1      -0.397   8.555  13.219  1.00  0.00     0.107 A
ATOM     10  H2  UNL     1      -1.195   7.209  11.913  1.00  0.00     0.183 HD
HETATM   11  C6  UNL     1      -0.432   9.095  14.493  1.00  0.00     0.035 A
HETATM   12  C7  UNL     1      -1.371   8.588  15.341  1.00  0.00     0.107 A
HETATM   13  N3  UNL     1      -2.201   7.627  14.951  1.00  0.00    -0.202 N
ATOM     14  H3  UNL     1      -2.888   7.278  15.620  1.00  0.00     0.183 HD
ENDBRANCH   3   7
BRANCH   1  15
HETATM   15  C1  UNL     1      -4.281   4.682  10.108  1.00  0.00     0.190 C
BRANCH  15  16
HETATM   16  O1  UNL     1      -5.436   5.409  10.359  1.00  0.00    -0.399 OA
ATOM     17  H1  UNL     1      -5.551   5.492  11.298  1.00  0.00     0.209 HD
ENDBRANCH  15  16
ENDBRANCH   1  15
BRANCH   5  18
HETATM   18  C10 UNL     1      -4.992   3.171  14.489  1.00  0.00     0.377 C
HETATM   19  F1  UNL     1      -4.047   3.079  15.521  1.00  0.00    -0.212 F
HETATM   20  F2  UNL     1      -6.147   3.632  15.104  1.00  0.00    -0.212 F
ENDBRANCH   5  18
BRANCH   6  21
HETATM   21  C11 UNL     1      -3.290   2.353  12.330  1.00  0.00     0.080 C
HETATM   22  C12 UNL     1      -2.375   2.103  11.122  1.00  0.00     0.030 C
HETATM   23  C13 UNL     1      -1.962   0.645  11.192  1.00  0.00     0.081 C
HETATM   24  C14 UNL     1      -3.141  -0.209  10.780  1.00  0.00     0.243 C
HETATM   25  F3  UNL     1      -3.175  -0.373   9.409  1.00  0.00    -0.206 F
HETATM   26  F4  UNL     1      -3.060  -1.458  11.349  1.00  0.00    -0.206 F
HETATM   27  C15 UNL     1      -4.452   0.421  11.200  1.00  0.00     0.081 C
HETATM   28  C16 UNL     1      -4.241   1.187  12.506  1.00  0.00     0.030 C
ENDBRANCH   6  21
TORSDOF 5
ENDMDL