MODEL 2
REMARK VINA RESULT: -7.276840643      2.633      3.417
REMARK  4 active torsions:
REMARK  status: ('A' for Active; 'I' for Inactive)
REMARK    1  A    between atoms: C4_5  and  N1_6
REMARK    2  A    between atoms: N2_9  and  C7_10
REMARK    3  A    between atoms: C7_10  and  N3_11
REMARK    4  A    between atoms: C8_12  and  C9_13
ROOT
HETATM    1  N1  UNL     1      -2.505   5.784  13.069  1.00  0.00     0.099 N
HETATM    2  C5  UNL     1      -2.196   4.934  14.165  1.00  0.00     0.317 C
HETATM    3  C6  UNL     1      -3.293   4.143  14.792  1.00  0.00     0.094 C
HETATM    4  N2  UNL     1      -4.469   4.086  14.096  1.00  0.00    -0.353 N
HETATM    5  C11 UNL     1      -4.492   4.439  12.691  1.00  0.00     0.159 C
HETATM    6  C12 UNL     1      -3.813   5.742  12.530  1.00  0.00     0.293 C
ENDROOT
BRANCH   4   7
HETATM    7  C7  UNL     1      -5.416   3.053  14.242  1.00  0.00     0.194 C
BRANCH   7   8
HETATM    8  N3  UNL     1      -5.116   1.831  14.882  1.00  0.00    -0.264 N
HETATM    9  C8  UNL     1      -5.448   1.362  16.059  1.00  0.00     0.215 A
HETATM   10  N4  UNL     1      -4.873   0.135  16.236  1.00  0.00    -0.279 N
HETATM   11  N5  UNL     1      -4.193  -0.126  15.149  1.00  0.00    -0.274 N
ATOM     12  H4  UNL     1      -4.957  -0.462  17.059  1.00  0.00     0.188 HD
HETATM   13  C10 UNL     1      -4.307   0.899  14.253  1.00  0.00     0.199 A
ATOM     14  H5  UNL     1      -3.653  -0.978  14.993  1.00  0.00     0.189 HD
HETATM   15  S1  UNL     1      -3.728   0.962  12.747  1.00  0.00    -0.039 SA
BRANCH   9  16
HETATM   16  C9  UNL     1      -6.339   1.942  17.075  1.00  0.00     0.451 C
HETATM   17  F2  UNL     1      -6.624   3.264  16.912  1.00  0.00    -0.163 F
HETATM   18  F3  UNL     1      -5.759   1.858  18.361  1.00  0.00    -0.163 F
HETATM   19  F4  UNL     1      -7.517   1.165  17.162  1.00  0.00    -0.163 F
ENDBRANCH   9  16
ENDBRANCH   7   8
ENDBRANCH   4   7
BRANCH   1  20
HETATM   20  C4  UNL     1      -1.495   5.670  12.026  1.00  0.00     0.223 C
HETATM   21  C3  UNL     1      -0.932   4.245  12.085  1.00  0.00     0.038 C
HETATM   22  C2  UNL     1      -0.222   4.053  10.754  1.00  0.00     0.039 C
HETATM   23  C1  UNL     1       0.957   4.981  10.732  1.00  0.00     0.170 C
HETATM   24  F1  UNL     1       2.093   4.169  10.850  1.00  0.00    -0.249 F
HETATM   25  C14 UNL     1       1.002   5.966  11.840  1.00  0.00     0.039 C
HETATM   26  C13 UNL     1      -0.317   6.583  12.212  1.00  0.00     0.038 C
ENDBRANCH   1  20
TORSDOF 4
ENDMDL