MODEL 1
REMARK VINA RESULT: -6.836838124      0.000      0.000
REMARK  6 active torsions:
REMARK  status: ('A' for Active; 'I' for Inactive)
REMARK    1  A    between atoms: C2_2  and  O1_3
REMARK    2  A    between atoms: O1_3  and  C3_4
REMARK    3  A    between atoms: C3_4  and  C4_6
REMARK    4  A    between atoms: C4_6  and  O3_7
REMARK    5  A    between atoms: N1_10  and  C6_11
REMARK    6  A    between atoms: C7_14  and  C9_16
ROOT
HETATM    1  C4  UNL     1      -3.924   1.901  11.369  1.00  0.00     0.180 C
HETATM    2  C5  UNL     1      -3.645   3.128  10.535  1.00  0.00     0.174 C
HETATM    3  N1  UNL     1      -4.148   4.227  11.335  1.00  0.00    -0.361 N
HETATM    4  C12 UNL     1      -4.463   3.777  12.676  1.00  0.00     0.103 C
HETATM    5  C13 UNL     1      -3.987   4.753  13.727  1.00  0.00     0.034 C
HETATM    6  C14 UNL     1      -3.795   2.444  12.779  1.00  0.00     0.151 C
HETATM    7 CL1  UNL     1      -4.570   1.373  13.958  1.00  0.00    -0.119 Cl
ENDROOT
BRANCH   3   8
HETATM    8  C6  UNL     1      -4.342   5.602  10.938  1.00  0.00     0.076 C
HETATM    9  N2  UNL     1      -5.391   6.093  10.391  1.00  0.00    -0.363 N
HETATM   10  C7  UNL     1      -5.336   7.477  10.094  1.00  0.00     0.126 C
ATOM     11  H2  UNL     1      -6.212   5.525  10.182  1.00  0.00     0.162 HD
HETATM   12  C8  UNL     1      -5.104   7.779   8.622  1.00  0.00     0.048 C
HETATM   13  C10 UNL     1      -4.131   7.966  10.870  1.00  0.00     0.047 C
HETATM   14  C11 UNL     1      -3.362   6.706  11.088  1.00  0.00     0.079 C
BRANCH  10  15
HETATM   15  C9  UNL     1      -6.540   8.257  10.550  1.00  0.00     0.412 C
HETATM   16  F1  UNL     1      -7.043   7.805  11.742  1.00  0.00    -0.168 F
HETATM   17  F2  UNL     1      -7.539   8.216   9.584  1.00  0.00    -0.168 F
HETATM   18  F3  UNL     1      -6.176   9.583  10.702  1.00  0.00    -0.168 F
ENDBRANCH  10  15
ENDBRANCH   3   8
BRANCH   1  19
HETATM   19  C3  UNL     1      -2.861   0.871  11.224  1.00  0.00     0.297 C
HETATM   20  O2  UNL     1      -1.680   1.213  11.493  1.00  0.00    -0.262 OA
BRANCH  19  21
HETATM   21  O1  UNL     1      -3.068  -0.421  10.821  1.00  0.00    -0.319 OA
BRANCH  21  22
HETATM   22  C2  UNL     1      -3.503  -1.483  11.597  1.00  0.00     0.174 C
HETATM   23  C1  UNL     1      -2.873  -2.802  11.281  1.00  0.00     0.034 C
ENDBRANCH  21  22
ENDBRANCH  19  21
ENDBRANCH   1  19
BRANCH   1  24
HETATM   24  O3  UNL     1      -5.183   1.379  11.117  1.00  0.00    -0.376 OA
ATOM     25  H3  UNL     1      -5.839   1.748  11.696  1.00  0.00     0.211 HD
ENDBRANCH   1  24
TORSDOF 6
ENDMDL