MODEL 4
REMARK VINA RESULT: -7.152054568      2.916      4.878
REMARK  5 active torsions:
REMARK  status: ('A' for Active; 'I' for Inactive)
REMARK    1  A    between atoms: C2_2  and  C3_3
REMARK    2  A    between atoms: C2_2  and  N3_15
REMARK       I    between atoms: C3_3  and  N1_5
REMARK    3  A    between atoms: C11_16  and  O2_17
REMARK    4  A    between atoms: C14_21  and  O3_22
REMARK    5  A    between atoms: O3_22  and  C15_23
ROOT
HETATM    1  C1  UNL     1      -1.301  -9.123  15.720  1.00  0.00     0.043 C
HETATM    2  C2  UNL     1      -0.161  -9.238  16.677  1.00  0.00     0.182 C
ENDROOT
BRANCH   2   3
HETATM    3  C3  UNL     1      -0.189  -8.014  17.537  1.00  0.00     0.245 C
HETATM    4  O1  UNL     1       0.373  -6.988  17.092  1.00  0.00    -0.271 OA
HETATM    5  N1  UNL     1      -0.819  -7.968  18.804  1.00  0.00    -0.316 N
HETATM    6  C4  UNL     1      -0.788  -6.712  19.537  1.00  0.00     0.159 C
HETATM    7  C10 UNL     1      -1.472  -9.129  19.368  1.00  0.00     0.307 C
HETATM    8  C5  UNL     1      -2.219  -6.462  20.005  1.00  0.00     0.293 C
HETATM    9  N2  UNL     1      -2.671  -7.548  20.827  1.00  0.00     0.099 N
HETATM   10  C6  UNL     1      -4.021  -7.312  21.236  1.00  0.00     0.273 C
HETATM   11  C9  UNL     1      -2.674  -8.817  20.179  1.00  0.00     0.276 C
HETATM   12  C7  UNL     1      -4.922  -8.182  20.400  1.00  0.00     0.033 C
HETATM   13  C8  UNL     1      -3.957  -8.753  19.354  1.00  0.00     0.042 C
HETATM   14  F1  UNL     1      -0.567  -9.802  20.178  1.00  0.00    -0.224 F
ENDBRANCH   2   3
BRANCH   2  15
HETATM   15  N3  UNL     1       1.133  -9.489  16.087  1.00  0.00    -0.295 N
HETATM   16  C11 UNL     1       1.508  -8.993  14.900  1.00  0.00     0.144 A
HETATM   17  C12 UNL     1       2.764  -9.462  14.612  1.00  0.00     0.060 A
HETATM   18  C13 UNL     1       3.146 -10.251  15.650  1.00  0.00     0.061 A
HETATM   19  C14 UNL     1       2.098 -10.252  16.576  1.00  0.00     0.156 A
BRANCH  16  20
HETATM   20  O2  UNL     1       0.792  -8.126  14.033  1.00  0.00    -0.346 OA
ATOM     21  H2  UNL     1       1.081  -7.316  13.630  1.00  0.00     0.219 HD
ENDBRANCH  16  20
BRANCH  19  22
HETATM   22  O3  UNL     1       2.194 -10.976  17.786  1.00  0.00    -0.238 OA
BRANCH  22  23
HETATM   23  C15 UNL     1       2.622 -10.393  18.977  1.00  0.00     0.531 C
HETATM   24  F2  UNL     1       4.010 -10.252  18.867  1.00  0.00    -0.144 F
HETATM   25  F3  UNL     1       2.302 -11.214  20.024  1.00  0.00    -0.144 F
HETATM   26  F4  UNL     1       2.149  -9.140  19.259  1.00  0.00    -0.144 F
ENDBRANCH  22  23
ENDBRANCH  19  22
ENDBRANCH   2  15
TORSDOF 5
ENDMDL