MODEL 2
REMARK VINA RESULT: -6.827712244      0.042      1.103
REMARK  5 active torsions:
REMARK  status: ('A' for Active; 'I' for Inactive)
REMARK    1  A    between atoms: C2_2  and  C3_3
REMARK    2  A    between atoms: C3_3  and  C4_7
REMARK       I    between atoms: C4_7  and  N2_9
REMARK    3  A    between atoms: N2_9  and  N3_10
REMARK    4  A    between atoms: N2_9  and  C7_18
REMARK    5  A    between atoms: C5_12  and  C6_14
ROOT
HETATM    1  C4  UNL     1      -1.266  -9.807  16.139  1.00  0.00     0.304 C
HETATM    2  O1  UNL     1      -1.688  -9.785  14.910  1.00  0.00    -0.263 OA
HETATM    3  N2  UNL     1       0.092  -9.665  16.394  1.00  0.00    -0.045 N
ENDROOT
BRANCH   3   4
HETATM    4  N3  UNL     1       0.463  -9.621  17.780  1.00  0.00    -0.265 N
HETATM    5  C5  UNL     1       0.648  -8.545  18.410  1.00  0.00     0.150 C
HETATM    6 CL1  UNL     1       0.462  -7.010  17.608  1.00  0.00    -0.063 Cl
ATOM      7  H3  UNL     1       0.583 -10.502  18.279  1.00  0.00     0.189 HD
BRANCH   5   8
HETATM    8  C6  UNL     1       1.019  -8.563  19.839  1.00  0.00     0.243 C
HETATM    9 CL2  UNL     1       2.690  -9.047  20.141  1.00  0.00    -0.076 Cl
HETATM   10 CL3  UNL     1       0.812  -6.939  20.573  1.00  0.00    -0.076 Cl
HETATM   11 CL4  UNL     1      -0.026  -9.663  20.775  1.00  0.00    -0.076 Cl
ENDBRANCH   5   8
ENDBRANCH   3   4
BRANCH   3  12
HETATM   12  C7  UNL     1       1.115  -9.620  15.429  1.00  0.00     0.700 C
HETATM   13  N4  UNL     1       1.008  -8.895  14.297  1.00  0.00    -0.223 N
HETATM   14  C8  UNL     1       2.201  -9.043  13.500  1.00  0.00     0.158 C
ATOM     15  H4  UNL     1       0.202  -8.326  14.042  1.00  0.00     0.177 HD
HETATM   16  C9  UNL     1       2.678 -10.437  13.998  1.00  0.00     0.161 C
HETATM   17  N5  UNL     1       2.411 -10.158  15.436  1.00  0.00    -0.219 N
HETATM   18  C10 UNL     1       3.381 -10.374  16.430  1.00  0.00     0.168 C
ENDBRANCH   3  12
BRANCH   1  19
HETATM   19  C3  UNL     1      -2.347  -9.984  17.094  1.00  0.00     0.073 C
HETATM   20  N1  UNL     1      -2.696 -11.222  17.365  1.00  0.00    -0.398 N
ATOM     21  H12 UNL     1      -3.455 -11.346  18.035  1.00  0.00     0.156 HD
ATOM     22  H11 UNL     1      -2.174 -11.944  16.869  1.00  0.00     0.156 HD
BRANCH  19  23
HETATM   23  C2  UNL     1      -3.095  -8.948  17.807  1.00  0.00     0.058 C
HETATM   24  C1  UNL     1      -4.163  -8.401  16.829  1.00  0.00     0.011 C
ENDBRANCH  19  23
ENDBRANCH   1  19
TORSDOF 5
ENDMDL