MODEL 5
REMARK VINA RESULT: -6.669688943      5.763      6.843
REMARK  3 active torsions:
REMARK  status: ('A' for Active; 'I' for Inactive)
REMARK       I    between atoms: C1_2  and  N1_3
REMARK    1  A    between atoms: C1_2  and  C11_19
REMARK    2  A    between atoms: N1_3  and  C2_5
REMARK    3  A    between atoms: N2_12  and  C8_13
ROOT
HETATM    1  C2  UNL     1      -3.614  -6.641  19.932  1.00  0.00     0.111 C
HETATM    2  C3  UNL     1      -4.236  -7.842  20.650  1.00  0.00     0.194 C
HETATM    3  O2  UNL     1      -4.579  -8.649  19.600  1.00  0.00    -0.373 OA
HETATM    4  C4  UNL     1      -3.580  -8.593  18.646  1.00  0.00     0.095 C
HETATM    5  C5  UNL     1      -2.724  -9.832  18.718  1.00  0.00     0.045 C
HETATM    6  C6  UNL     1      -1.737  -9.888  17.603  1.00  0.00     0.023 C
HETATM    7  C7  UNL     1      -2.147  -9.196  16.353  1.00  0.00     0.129 C
HETATM    8  N2  UNL     1      -3.524  -8.926  16.205  1.00  0.00    -0.316 N
HETATM    9  C9  UNL     1      -4.204  -8.372  17.308  1.00  0.00     0.103 C
HETATM   10  C10 UNL     1      -2.705  -7.407  18.964  1.00  0.00     0.071 C
ENDROOT
BRANCH   1  11
HETATM   11  N1  UNL     1      -2.856  -5.820  20.820  1.00  0.00    -0.349 N
HETATM   12  C1  UNL     1      -3.458  -4.628  21.326  1.00  0.00     0.270 C
HETATM   13  O1  UNL     1      -4.626  -4.308  20.997  1.00  0.00    -0.266 OA
ATOM     14  H1  UNL     1      -1.906  -6.079  21.087  1.00  0.00     0.163 HD
BRANCH  12  15
HETATM   15  C11 UNL     1      -2.693  -3.746  22.256  1.00  0.00     0.124 A
HETATM   16  C12 UNL     1      -2.913  -2.386  22.295  1.00  0.00     0.106 A
HETATM   17  S1  UNL     1      -1.805  -1.895  23.496  1.00  0.00    -0.008 SA
HETATM   18  N3  UNL     1      -1.155  -3.401  23.862  1.00  0.00    -0.269 N
HETATM   19  N4  UNL     1      -1.791  -4.205  23.073  1.00  0.00    -0.289 N
ATOM     20  H3  UNL     1      -0.431  -3.628  24.544  1.00  0.00     0.195 HD
ATOM     21  H4  UNL     1      -1.583  -5.204  23.091  1.00  0.00     0.188 HD
ENDBRANCH  12  15
ENDBRANCH   1  11
BRANCH   8  22
HETATM   22  C8  UNL     1      -4.259  -9.894  15.437  1.00  0.00     0.408 C
HETATM   23  F1  UNL     1      -3.455 -10.919  14.996  1.00  0.00    -0.166 F
HETATM   24  F2  UNL     1      -5.366 -10.372  16.067  1.00  0.00    -0.166 F
HETATM   25 CL1  UNL     1      -4.834  -9.043  13.959  1.00  0.00    -0.023 Cl
ENDBRANCH   8  22
TORSDOF 3
ENDMDL