MODEL 4
REMARK VINA RESULT: -7.661080501      1.300      1.696
REMARK  4 active torsions:
REMARK  status: ('A' for Active; 'I' for Inactive)
REMARK    1  A    between atoms: C1_2  and  C2_3
REMARK    2  A    between atoms: C1_2  and  C14_22
REMARK    3  A    between atoms: C5_6  and  N1_7
REMARK       I    between atoms: N1_7  and  C6_9
REMARK    4  A    between atoms: C6_9  and  C7_11
ROOT
HETATM    1  N1  UNL     1      -1.026  -8.401  19.064  1.00  0.00    -0.318 N
ATOM      2  H1  UNL     1      -0.537  -8.205  19.938  1.00  0.00     0.169 HD
HETATM    3  C6  UNL     1      -2.422  -8.625  19.076  1.00  0.00     0.265 C
HETATM    4  O2  UNL     1      -3.081  -8.871  18.029  1.00  0.00    -0.269 OA
ENDROOT
BRANCH   1   5
HETATM    5  C5  UNL     1      -0.286  -8.446  17.823  1.00  0.00     0.077 A
HETATM    6  C4  UNL     1       0.197  -7.394  17.100  1.00  0.00     0.039 A
HETATM    7  C3  UNL     1       0.860  -7.674  15.968  1.00  0.00     0.026 A
HETATM    8  C2  UNL     1       0.995  -8.996  15.632  1.00  0.00     0.062 A
HETATM    9  S1  UNL     1       0.198  -9.799  16.903  1.00  0.00    -0.069 SA
BRANCH   8  10
HETATM   10  C1  UNL     1       1.681  -9.551  14.441  1.00  0.00     0.272 C
HETATM   11  O1  UNL     1       1.085  -9.458  13.348  1.00  0.00    -0.282 OA
BRANCH  10  12
HETATM   12  C14 UNL     1       2.996 -10.176  14.547  1.00  0.00     0.456 C
HETATM   13  F2  UNL     1       3.260 -10.665  15.807  1.00  0.00    -0.163 F
HETATM   14  F3  UNL     1       3.106 -11.249  13.665  1.00  0.00    -0.163 F
HETATM   15  F4  UNL     1       3.984  -9.226  14.279  1.00  0.00    -0.163 F
ENDBRANCH  10  12
ENDBRANCH   8  10
ENDBRANCH   1   5
BRANCH   3  16
HETATM   16  C7  UNL     1      -3.134  -8.570  20.351  1.00  0.00     0.216 C
HETATM   17  F1  UNL     1      -2.476  -7.901  21.336  1.00  0.00    -0.230 F
HETATM   18  C8  UNL     1      -3.438  -9.972  20.895  1.00  0.00     0.086 C
HETATM   19  C9  UNL     1      -4.535  -9.636  21.889  1.00  0.00     0.279 C
HETATM   20  N2  UNL     1      -5.225  -8.489  21.392  1.00  0.00     0.119 N
HETATM   21  C10 UNL     1      -5.367  -7.451  22.383  1.00  0.00     0.441 C
HETATM   22  C13 UNL     1      -4.534  -8.012  20.225  1.00  0.00     0.276 C
HETATM   23  O3  UNL     1      -6.116  -6.403  21.905  1.00  0.00    -0.362 OA
HETATM   24  C11 UNL     1      -5.636  -5.823  20.759  1.00  0.00     0.172 C
HETATM   25  C12 UNL     1      -4.457  -6.518  20.154  1.00  0.00     0.066 C
ENDBRANCH   3  16
TORSDOF 4
ENDMDL