MODEL 4
REMARK VINA RESULT: -7.736110241      2.275      2.951
REMARK  4 active torsions:
REMARK  status: ('A' for Active; 'I' for Inactive)
REMARK    1  A    between atoms: C2_3  and  N2_4
REMARK    2  A    between atoms: C8_12  and  N3_13
REMARK    3  A    between atoms: N3_13  and  C9_15
REMARK    4  A    between atoms: C15_22  and  C16_23
ROOT
HETATM    1  N1  UNL     1       1.179  -7.056  23.784  1.00  0.00    -0.195 NA
HETATM    2  C1  UNL     1       1.614  -7.519  22.815  1.00  0.00     0.089 C
HETATM    3  C2  UNL     1       2.176  -8.092  21.564  1.00  0.00     0.396 C
ENDROOT
BRANCH   3   4
HETATM    4  N2  UNL     1       2.218  -9.506  21.743  1.00  0.00     0.112 N
HETATM    5  C3  UNL     1       3.649  -9.860  21.792  1.00  0.00     0.300 C
HETATM    6  C4  UNL     1       3.782 -11.342  21.550  1.00  0.00     0.198 C
HETATM    7  O1  UNL     1       2.661 -11.974  22.078  1.00  0.00    -0.379 OA
HETATM    8  C5  UNL     1       1.536 -11.718  21.323  1.00  0.00     0.191 C
HETATM    9  C6  UNL     1       0.374 -11.496  22.275  1.00  0.00     0.203 C
HETATM   10  C17 UNL     1       1.653 -10.308  20.713  1.00  0.00     0.278 C
HETATM   11  F1  UNL     1       0.814 -10.831  23.405  1.00  0.00    -0.247 F
HETATM   12  C7  UNL     1      -0.575 -10.623  21.527  1.00  0.00     0.067 C
HETATM   13  C8  UNL     1       0.212  -9.987  20.370  1.00  0.00     0.120 C
BRANCH  13  14
HETATM   14  N3  UNL     1      -0.176 -10.635  19.124  1.00  0.00    -0.382 N
ATOM     15  H3  UNL     1      -0.825 -11.420  19.177  1.00  0.00     0.160 HD
BRANCH  14  16
HETATM   16  C9  UNL     1       0.290 -10.246  17.846  1.00  0.00     0.043 A
HETATM   17  C10 UNL     1       1.604 -10.533  17.444  1.00  0.00     0.031 A
HETATM   18  C11 UNL     1       2.085 -10.176  16.206  1.00  0.00     0.025 A
HETATM   19  C12 UNL     1       1.281  -9.515  15.305  1.00  0.00     0.045 A
HETATM   20  C13 UNL     1       1.774  -9.139  14.009  1.00  0.00     0.099 C
HETATM   21  C14 UNL     1      -0.006  -9.224  15.676  1.00  0.00     0.041 A
HETATM   22  N4  UNL     1       2.164  -8.821  12.964  1.00  0.00    -0.191 NA
HETATM   23  C15 UNL     1      -0.483  -9.588  16.929  1.00  0.00     0.075 A
BRANCH  23  24
HETATM   24  C16 UNL     1      -1.876  -9.218  17.259  1.00  0.00     0.419 C
HETATM   25  F2  UNL     1      -1.867  -8.177  18.146  1.00  0.00    -0.166 F
HETATM   26  F3  UNL     1      -2.556  -8.751  16.129  1.00  0.00    -0.166 F
HETATM   27  F4  UNL     1      -2.616 -10.302  17.690  1.00  0.00    -0.166 F
ENDBRANCH  23  24
ENDBRANCH  14  16
ENDBRANCH  13  14
ENDBRANCH   3   4
TORSDOF 4
ENDMDL