MODEL 1
REMARK VINA RESULT: -8.157633306      0.000      0.000
REMARK  4 active torsions:
REMARK  status: ('A' for Active; 'I' for Inactive)
REMARK       I    between atoms: C1_2  and  N1_3
REMARK    1  A    between atoms: C1_2  and  C11_16
REMARK    2  A    between atoms: N1_3  and  C2_5
REMARK    3  A    between atoms: C6_9  and  N2_10
REMARK    4  A    between atoms: C12_19  and  C13_20
ROOT
HETATM    1  O1  UNL     1      -1.099 -10.591  18.556  1.00  0.00    -0.266 OA
HETATM    2  C1  UNL     1       0.037 -10.150  18.258  1.00  0.00     0.272 C
HETATM    3  N1  UNL     1       1.120  -9.917  19.095  1.00  0.00    -0.349 N
ATOM      4  H1  UNL     1       1.847  -9.465  18.542  1.00  0.00     0.163 HD
ENDROOT
BRANCH   2   5
HETATM    5  C11 UNL     1       0.198  -9.888  16.786  1.00  0.00     0.148 A
HETATM    6  N3  UNL     1       1.468 -10.031  16.295  1.00  0.00    -0.325 N
HETATM    7  C12 UNL     1       1.356  -9.730  14.972  1.00  0.00     0.235 A
ATOM      8  H3  UNL     1       2.309 -10.302  16.805  1.00  0.00     0.168 HD
HETATM    9  O3  UNL     1       0.149  -9.427  14.681  1.00  0.00    -0.275 OA
HETATM   10  C14 UNL     1      -0.605  -9.513  15.783  1.00  0.00     0.179 A
HETATM   11 CL1  UNL     1      -2.327  -9.182  15.811  1.00  0.00    -0.054 Cl
BRANCH   7  12
HETATM   12  C13 UNL     1       2.533  -9.786  14.085  1.00  0.00     0.456 C
HETATM   13  F1  UNL     1       2.269  -9.183  12.912  1.00  0.00    -0.163 F
HETATM   14  F2  UNL     1       3.663  -9.266  14.735  1.00  0.00    -0.163 F
HETATM   15  F3  UNL     1       2.869 -11.115  13.784  1.00  0.00    -0.163 F
ENDBRANCH   7  12
ENDBRANCH   2   5
BRANCH   3  16
HETATM   16  C2  UNL     1       1.602 -10.060  20.394  1.00  0.00     0.107 C
HETATM   17  C3  UNL     1       2.475 -11.371  20.370  1.00  0.00     0.027 C
HETATM   18  C4  UNL     1       3.695 -11.105  21.190  1.00  0.00     0.004 C
HETATM   19  C5  UNL     1       3.406  -9.875  21.977  1.00  0.00     0.027 C
HETATM   20  C6  UNL     1       2.494  -9.052  20.989  1.00  0.00     0.106 C
BRANCH  20  21
HETATM   21  N2  UNL     1       1.889  -8.105  21.845  1.00  0.00    -0.383 N
HETATM   22  C7  UNL     1       1.456  -6.863  21.370  1.00  0.00     0.148 C
HETATM   23  C8  UNL     1       1.874  -5.767  22.369  1.00  0.00     0.187 C
HETATM   24  O2  UNL     1       1.194  -6.012  23.533  1.00  0.00    -0.385 OA
HETATM   25  C9  UNL     1       1.474  -7.242  24.089  1.00  0.00     0.212 C
HETATM   26  C10 UNL     1       1.471  -8.395  23.131  1.00  0.00     0.084 C
ENDBRANCH  20  21
ENDBRANCH   3  16
TORSDOF 4
ENDMDL