MODEL 5
REMARK VINA RESULT: -8.798396907      3.287      5.698
REMARK  5 active torsions:
REMARK  status: ('A' for Active; 'I' for Inactive)
REMARK    1  A    between atoms: C1_2  and  O1_4
REMARK    2  A    between atoms: O1_4  and  C2_5
REMARK    3  A    between atoms: C3_10  and  N3_11
REMARK    4  A    between atoms: C10_18  and  N4_19
REMARK    5  A    between atoms: N4_19  and  C11_21
ROOT
HETATM    1  C2  UNL     1       0.498  -9.214  15.374  1.00  0.00     0.244 A
HETATM    2  N1  UNL     1      -0.090  -8.068  15.747  1.00  0.00    -0.263 N
ATOM      3  H1  UNL     1      -0.300  -7.378  15.025  1.00  0.00     0.190 HD
HETATM    4  N2  UNL     1      -0.412  -7.780  16.994  1.00  0.00    -0.279 N
ATOM      5  H2  UNL     1      -0.859  -6.894  17.232  1.00  0.00     0.189 HD
HETATM    6  C3  UNL     1      -0.132  -8.693  17.940  1.00  0.00     0.163 A
HETATM    7  C10 UNL     1       0.472  -9.893  17.630  1.00  0.00     0.150 A
HETATM    8  N5  UNL     1       0.770 -10.119  16.349  1.00  0.00    -0.304 N
ATOM      9  H5  UNL     1       1.217 -11.000  16.094  1.00  0.00     0.171 HD
ENDROOT
BRANCH   7  10
HETATM   10  N4  UNL     1       0.715 -10.709  18.528  1.00  0.00    -0.368 N
ATOM     11  H4  UNL     1      -0.074 -11.336  18.687  1.00  0.00     0.161 HD
BRANCH  10  12
HETATM   12  C11 UNL     1       1.782 -11.001  19.384  1.00  0.00     0.083 C
HETATM   13  C12 UNL     1       1.252 -11.220  20.811  1.00  0.00     0.031 C
HETATM   14  C13 UNL     1       2.437 -11.881  21.533  1.00  0.00     0.081 C
HETATM   15  C14 UNL     1       3.432 -10.780  21.794  1.00  0.00     0.243 C
HETATM   16  F3  UNL     1       4.679 -11.394  21.936  1.00  0.00    -0.206 F
HETATM   17  F4  UNL     1       3.127 -10.229  23.024  1.00  0.00    -0.206 F
HETATM   18  C15 UNL     1       3.442  -9.702  20.758  1.00  0.00     0.081 C
HETATM   19  C16 UNL     1       2.962 -10.123  19.407  1.00  0.00     0.031 C
ENDBRANCH  10  12
ENDBRANCH   7  10
BRANCH   6  20
HETATM   20  N3  UNL     1      -0.497  -8.342  19.282  1.00  0.00    -0.362 N
HETATM   21  C4  UNL     1      -1.763  -8.826  19.769  1.00  0.00     0.129 C
HETATM   22  C5  UNL     1      -2.269  -7.881  20.843  1.00  0.00     0.004 C
HETATM   23  C6  UNL     1      -1.233  -7.870  21.973  1.00  0.00     0.012 C
HETATM   24  C8  UNL     1      -1.844  -6.445  20.556  1.00  0.00     0.012 C
HETATM   25  C7  UNL     1      -0.486  -6.822  21.146  1.00  0.00     0.004 C
HETATM   26  C9  UNL     1       0.364  -7.532  20.126  1.00  0.00     0.129 C
ENDBRANCH   6  20
BRANCH   1  27
HETATM   27  O1  UNL     1       0.825  -9.489  14.057  1.00  0.00    -0.257 OA
BRANCH  27  28
HETATM   28  C1  UNL     1       2.158  -9.477  13.586  1.00  0.00     0.507 C
HETATM   29  F1  UNL     1       2.930  -8.562  14.307  1.00  0.00    -0.184 F
HETATM   30  F2  UNL     1       2.709 -10.734  13.746  1.00  0.00    -0.184 F
ENDBRANCH  27  28
ENDBRANCH   1  27
TORSDOF 5
ENDMDL