MODEL 4
REMARK VINA RESULT: -6.643562471      4.438      5.389
REMARK  6 active torsions:
REMARK  status: ('A' for Active; 'I' for Inactive)
REMARK    1  A    between atoms: C1_2  and  C2_4
REMARK    2  A    between atoms: C4_7  and  C5_8
REMARK    3  A    between atoms: C6_9  and  O3_10
REMARK    4  A    between atoms: C6_9  and  N1_15
REMARK    5  A    between atoms: O3_10  and  C7_11
REMARK    6  A    between atoms: C10_19  and  O4_20
ROOT
HETATM    1  C5  UNL     1      -1.209  -8.933  16.748  1.00  0.00     0.076 C
HETATM    2  C6  UNL     1      -1.555  -8.406  17.859  1.00  0.00     0.157 C
ENDROOT
BRANCH   2   3
HETATM    3  O3  UNL     1      -2.908  -8.011  17.983  1.00  0.00    -0.238 OA
BRANCH   3   4
HETATM    4  C7  UNL     1      -3.979  -8.620  17.347  1.00  0.00     0.531 C
HETATM    5  F1  UNL     1      -4.282  -8.081  16.118  1.00  0.00    -0.144 F
HETATM    6  F2  UNL     1      -5.154  -8.489  18.101  1.00  0.00    -0.144 F
HETATM    7  F3  UNL     1      -3.766  -9.977  17.167  1.00  0.00    -0.144 F
ENDBRANCH   3   4
ENDBRANCH   2   3
BRANCH   2   8
HETATM    8  N1  UNL     1      -0.809  -8.138  19.054  1.00  0.00    -0.302 N
HETATM    9  C8  UNL     1      -0.755  -9.128  20.108  1.00  0.00     0.207 C
HETATM   10  S2  UNL     1      -0.330  -8.089  21.564  1.00  0.00    -0.141 SA
HETATM   11  C9  UNL     1       0.410  -6.726  20.639  1.00  0.00     0.160 C
HETATM   12  C10 UNL     1      -0.120  -6.962  19.285  1.00  0.00     0.129 C
BRANCH  12  13
HETATM   13  O4  UNL     1       0.082  -6.061  18.369  1.00  0.00    -0.349 OA
ATOM     14  H4  UNL     1       0.821  -5.464  18.378  1.00  0.00     0.219 HD
ENDBRANCH  12  13
ENDBRANCH   2   8
BRANCH   1  15
HETATM   15  C4  UNL     1       0.119  -9.416  16.360  1.00  0.00     0.023 C
HETATM   16  S1  UNL     1       0.909 -10.954  16.823  1.00  0.00    -0.127 SA
HETATM   17  C3  UNL     1       2.630 -10.378  16.494  1.00  0.00     0.100 C
HETATM   18  C2  UNL     1       2.282  -9.396  15.389  1.00  0.00     0.142 C
HETATM   19  C11 UNL     1       1.011  -8.772  15.624  1.00  0.00     0.043 C
HETATM   20 CL1  UNL     1       0.643  -7.162  14.933  1.00  0.00    -0.086 Cl
BRANCH  18  21
HETATM   21  C1  UNL     1       2.277 -10.083  14.070  1.00  0.00     0.183 C
HETATM   22  O1  UNL     1       2.820 -11.206  13.961  1.00  0.00    -0.647 OA
HETATM   23  O2  UNL     1       1.697  -9.542  12.936  1.00  0.00    -0.647 OA
ENDBRANCH  18  21
ENDBRANCH   1  15
TORSDOF 6
ENDMDL