MODEL 3
REMARK VINA RESULT: -7.533069703      1.827      2.458
REMARK  4 active torsions:
REMARK  status: ('A' for Active; 'I' for Inactive)
REMARK    1  A    between atoms: C2_4  and  C3_5
REMARK    2  A    between atoms: C4_7  and  O3_8
REMARK    3  A    between atoms: C7_14  and  O5_15
REMARK    4  A    between atoms: O5_15  and  C8_16
ROOT
HETATM    1  O1  UNL     1      -3.597  -7.977  18.456  1.00  0.00    -0.262 OA
HETATM    2  C1  UNL     1      -3.400  -8.789  17.520  1.00  0.00     0.300 C
HETATM    3  O2  UNL     1      -4.369  -9.355  16.703  1.00  0.00    -0.310 OA
HETATM    4  C2  UNL     1      -3.845 -10.491  16.030  1.00  0.00     0.178 C
HETATM    5  C4  UNL     1      -2.478 -10.723  16.646  1.00  0.00     0.196 C
HETATM    6  C5  UNL     1      -2.111  -9.345  17.055  1.00  0.00     0.210 C
HETATM    7  O4  UNL     1      -1.600  -8.611  16.016  1.00  0.00    -0.327 OA
HETATM    8  C6  UNL     1      -0.334  -8.791  16.568  1.00  0.00     0.341 C
HETATM    9  F1  UNL     1       0.313  -9.805  15.937  1.00  0.00    -0.217 F
HETATM   10  C7  UNL     1      -0.932  -9.150  17.934  1.00  0.00     0.236 C
ENDROOT
BRANCH   5  11
HETATM   11  O3  UNL     1      -2.702 -11.572  17.749  1.00  0.00    -0.389 OA
ATOM     12  H3  UNL     1      -2.894 -10.994  18.478  1.00  0.00     0.210 HD
ENDBRANCH   5  11
BRANCH  10  13
HETATM   13  O5  UNL     1      -0.375 -10.270  18.529  1.00  0.00    -0.335 OA
BRANCH  13  14
HETATM   14  C8  UNL     1       0.696 -10.355  19.366  1.00  0.00     0.091 A
HETATM   15  C9  UNL     1       1.961 -10.055  18.932  1.00  0.00     0.040 A
HETATM   16  C10 UNL     1       3.072 -10.135  19.772  1.00  0.00     0.026 A
HETATM   17  C11 UNL     1       2.932 -10.519  21.071  1.00  0.00     0.035 A
HETATM   18 CL2  UNL     1       4.356 -10.605  22.090  1.00  0.00    -0.084 Cl
HETATM   19  C12 UNL     1       1.672 -10.827  21.536  1.00  0.00     0.050 A
HETATM   20  C13 UNL     1       0.586 -10.744  20.699  1.00  0.00     0.069 A
HETATM   21 CL3  UNL     1      -1.011 -11.145  21.322  1.00  0.00    -0.081 Cl
ENDBRANCH  13  14
ENDBRANCH  10  13
BRANCH   4  22
HETATM   22  C3  UNL     1      -3.760 -10.259  14.535  1.00  0.00     0.150 C
HETATM   23 CL1  UNL     1      -4.966  -8.995  14.148  1.00  0.00    -0.128 Cl
ENDBRANCH   4  22
TORSDOF 4
ENDMDL