MODEL 2
REMARK VINA RESULT: -7.598801533      3.697      5.196
REMARK  5 active torsions:
REMARK  status: ('A' for Active; 'I' for Inactive)
REMARK    1  A    between atoms: O1_1  and  C1_3
REMARK    2  A    between atoms: C1_3  and  C2_4
REMARK    3  A    between atoms: C4_11  and  C5_12
REMARK    4  A    between atoms: N2_19  and  C11_20
REMARK    5  A    between atoms: C11_20  and  N3_21
ROOT
HETATM    1  C1  UNL     1      -2.125 -10.225  17.255  1.00  0.00     0.256 C
HETATM    2  C3  UNL     1      -2.871  -9.938  18.571  1.00  0.00     0.192 C
HETATM    3  N1  UNL     1      -1.757  -9.815  19.468  1.00  0.00    -0.370 N
ATOM      4  H1  UNL     1      -1.824  -9.925  20.480  1.00  0.00     0.161 HD
HETATM    5  C4  UNL     1      -0.643  -9.545  18.831  1.00  0.00     0.117 C
HETATM    6  N2  UNL     1      -0.896  -9.439  17.446  1.00  0.00    -0.291 N
ENDROOT
BRANCH   5   7
HETATM    7  C5  UNL     1       0.626  -9.379  19.541  1.00  0.00     0.009 A
HETATM    8  C6  UNL     1       1.070  -8.117  19.838  1.00  0.00     0.015 A
HETATM    9  C7  UNL     1       2.259  -7.902  20.541  1.00  0.00     0.003 A
HETATM   10  C8  UNL     1       3.002  -8.960  20.945  1.00  0.00     0.024 A
HETATM   11  C9  UNL     1       2.580 -10.243  20.660  1.00  0.00     0.035 A
HETATM   12 CL1  UNL     1       3.558 -11.584  21.194  1.00  0.00    -0.084 Cl
HETATM   13  C10 UNL     1       1.391 -10.437  19.958  1.00  0.00     0.039 A
ENDBRANCH   5   7
BRANCH   6  14
HETATM   14  C11 UNL     1      -0.203  -8.782  16.405  1.00  0.00     0.159 C
BRANCH  14  15
HETATM   15  N3  UNL     1       0.459  -9.624  15.437  1.00  0.00    -0.275 NA
HETATM   16  C12 UNL     1       1.150  -8.708  14.530  1.00  0.00     0.122 C
HETATM   17  C13 UNL     1       2.159  -9.448  13.673  1.00  0.00     0.182 C
HETATM   18  O2  UNL     1       3.190  -9.978  14.446  1.00  0.00    -0.389 OA
HETATM   19  C14 UNL     1       2.876  -9.969  15.801  1.00  0.00     0.182 C
HETATM   20  C15 UNL     1       1.480 -10.452  16.071  1.00  0.00     0.122 C
ENDBRANCH  14  15
ENDBRANCH   6  14
BRANCH   1  21
HETATM   21  O1  UNL     1      -1.887 -11.566  17.153  1.00  0.00    -0.362 OA
ATOM     22  H1  UNL     1      -1.038 -11.755  16.771  1.00  0.00     0.213 HD
ENDBRANCH   1  21
BRANCH   1  23
HETATM   23  C2  UNL     1      -2.991  -9.718  16.155  1.00  0.00     0.440 C
HETATM   24  F1  UNL     1      -3.312  -8.396  16.235  1.00  0.00    -0.166 F
HETATM   25  F2  UNL     1      -2.450 -10.031  14.903  1.00  0.00    -0.166 F
HETATM   26  F3  UNL     1      -4.179 -10.460  16.220  1.00  0.00    -0.166 F
ENDBRANCH   1  23
TORSDOF 5
ENDMDL