MODEL 4
REMARK VINA RESULT: -6.067237148      2.442      4.100
REMARK  5 active torsions:
REMARK  status: ('A' for Active; 'I' for Inactive)
REMARK    1  A    between atoms: C1_2  and  C2_3
REMARK       I    between atoms: C1_2  and  N3_16
REMARK    2  A    between atoms: C2_3  and  C3_4
REMARK    3  A    between atoms: C2_3  and  N1_6
REMARK    4  A    between atoms: N1_6  and  N2_8
REMARK       I    between atoms: N2_8  and  C4_10
REMARK    5  A    between atoms: C4_10  and  C5_12
ROOT
HETATM    1  C2  UNL     1     -40.132 -33.998  25.745  1.00  0.00     0.205 C
ENDROOT
BRANCH   1   2
HETATM    2  C1  UNL     1     -41.134 -35.039  25.248  1.00  0.00     0.246 C
HETATM    3  O1  UNL     1     -41.285 -36.029  26.034  1.00  0.00    -0.271 OA
HETATM    4  N3  UNL     1     -41.779 -34.905  24.038  1.00  0.00    -0.327 N
HETATM    5  C6  UNL     1     -41.625 -33.965  22.953  1.00  0.00     0.154 C
HETATM    6  C8  UNL     1     -42.845 -35.775  23.586  1.00  0.00     0.296 C
HETATM    7  C7  UNL     1     -41.820 -34.947  21.789  1.00  0.00     0.190 C
HETATM    8  O3  UNL     1     -42.606 -35.974  22.241  1.00  0.00    -0.370 OA
ENDBRANCH   1   2
BRANCH   1   9
HETATM    9  C3  UNL     1     -40.283 -33.969  27.319  1.00  0.00     0.151 C
HETATM   10 CL1  UNL     1     -38.967 -34.821  28.047  1.00  0.00    -0.128 Cl
ENDBRANCH   1   9
BRANCH   1  11
HETATM   11  N1  UNL     1     -38.838 -34.278  25.405  1.00  0.00    -0.319 N
ATOM     12  H1  UNL     1     -38.124 -33.616  25.710  1.00  0.00     0.181 HD
BRANCH  11  13
HETATM   13  N2  UNL     1     -38.421 -35.348  24.706  1.00  0.00    -0.270 N
HETATM   14  C4  UNL     1     -37.997 -35.040  23.345  1.00  0.00     0.290 C
HETATM   15  O2  UNL     1     -38.085 -33.836  22.906  1.00  0.00    -0.267 OA
ATOM     16  H2  UNL     1     -38.403 -36.291  25.093  1.00  0.00     0.189 HD
BRANCH  14  17
HETATM   17  C5  UNL     1     -37.440 -36.033  22.419  1.00  0.00     0.271 C
HETATM   18 CL2  UNL     1     -36.436 -35.280  21.189  1.00  0.00    -0.073 Cl
HETATM   19 CL3  UNL     1     -36.350 -37.118  23.382  1.00  0.00    -0.073 Cl
HETATM   20 CL4  UNL     1     -38.696 -36.995  21.653  1.00  0.00    -0.073 Cl
ENDBRANCH  14  17
ENDBRANCH  11  13
ENDBRANCH   1  11
TORSDOF 5
ENDMDL