MODEL 2
REMARK VINA RESULT: -6.400261199      1.934      2.235
REMARK  6 active torsions:
REMARK  status: ('A' for Active; 'I' for Inactive)
REMARK    1  A    between atoms: N1_1  and  N2_4
REMARK    2  A    between atoms: N2_4  and  C1_5
REMARK    3  A    between atoms: C1_5  and  C2_6
REMARK    4  A    between atoms: C2_6  and  C3_8
REMARK    5  A    between atoms: C3_8  and  O1_9
REMARK    6  A    between atoms: C6_15  and  C7_16
ROOT
HETATM    1  C3  UNL     1     -39.791 -34.428  23.742  1.00  0.00     0.163 C
HETATM    2  C4  UNL     1     -40.450 -34.959  22.535  1.00  0.00     0.073 C
HETATM    3 CL1  UNL     1     -42.186 -34.937  22.276  1.00  0.00    -0.084 Cl
HETATM    4  C5  UNL     1     -39.552 -35.441  21.701  1.00  0.00     0.080 C
HETATM    5 CL2  UNL     1     -39.939 -36.179  20.121  1.00  0.00    -0.083 Cl
HETATM    6  C6  UNL     1     -38.193 -35.301  22.222  1.00  0.00     0.219 C
HETATM    7  O4  UNL     1     -37.665 -36.481  22.744  1.00  0.00    -0.336 OA
HETATM    8  C8  UNL     1     -36.832 -35.985  23.744  1.00  0.00     0.341 C
HETATM    9  O5  UNL     1     -37.554 -35.020  24.436  1.00  0.00    -0.354 OA
HETATM   10  C9  UNL     1     -38.360 -34.473  23.460  1.00  0.00     0.218 C
ENDROOT
BRANCH   1  11
HETATM   11  C2  UNL     1     -40.268 -35.266  24.898  1.00  0.00     0.266 C
HETATM   12  F1  UNL     1     -39.208 -35.611  25.714  1.00  0.00    -0.239 F
BRANCH  11  13
HETATM   13  C1  UNL     1     -41.355 -34.673  25.667  1.00  0.00     0.221 C
BRANCH  13  14
HETATM   14  N2  UNL     1     -41.194 -33.731  26.478  1.00  0.00    -0.347 NA
BRANCH  14  15
HETATM   15  N1  UNL     1     -40.772 -32.777  27.166  1.00  0.00    -0.281 N
ATOM     16  H12 UNL     1     -39.946 -33.305  27.447  1.00  0.00     0.191 HD
ATOM     17  H11 UNL     1     -40.624 -31.892  27.652  1.00  0.00     0.191 HD
ENDBRANCH  14  15
ENDBRANCH  13  14
ENDBRANCH  11  13
ENDBRANCH   1  11
BRANCH   1  18
HETATM   18  O1  UNL     1     -40.178 -33.082  23.895  1.00  0.00    -0.378 OA
ATOM     19  H1  UNL     1     -40.897 -32.863  23.314  1.00  0.00     0.211 HD
ENDBRANCH   1  18
BRANCH   6  20
HETATM   20  C7  UNL     1     -37.273 -34.672  21.237  1.00  0.00     0.218 C
HETATM   21  O2  UNL     1     -37.397 -33.434  21.059  1.00  0.00    -0.645 OA
HETATM   22  O3  UNL     1     -36.331 -35.386  20.549  1.00  0.00    -0.645 OA
ENDBRANCH   6  20
TORSDOF 6
ENDMDL