MODEL 3
REMARK VINA RESULT: -6.176523088      1.415      2.022
REMARK  7 active torsions:
REMARK  status: ('A' for Active; 'I' for Inactive)
REMARK    1  A    between atoms: O1_2  and  C2_3
REMARK    2  A    between atoms: C2_3  and  N1_5
REMARK    3  A    between atoms: N1_5  and  C3_7
REMARK    4  A    between atoms: C3_7  and  C4_8
REMARK    5  A    between atoms: C3_7  and  N2_16
REMARK    6  A    between atoms: C4_8  and  C5_10
REMARK    7  A    between atoms: C5_10  and  C6_13
ROOT
HETATM    1  C3  UNL     1     -37.153 -35.430  22.992  1.00  0.00     0.402 C
ENDROOT
BRANCH   1   2
HETATM    2  N1  UNL     1     -38.313 -35.667  23.906  1.00  0.00    -0.325 N
ATOM      3  H1  UNL     1     -38.715 -36.604  23.951  1.00  0.00     0.165 HD
BRANCH   2   4
HETATM    4  C2  UNL     1     -38.872 -34.661  24.703  1.00  0.00     0.211 C
HETATM    5  S1  UNL     1     -38.914 -34.799  26.315  1.00  0.00    -0.033 SA
BRANCH   4   6
HETATM    6  O1  UNL     1     -39.398 -33.529  24.112  1.00  0.00    -0.332 OA
HETATM    7  C1  UNL     1     -40.739 -33.463  23.651  1.00  0.00     0.212 C
ENDBRANCH   4   6
ENDBRANCH   2   4
ENDBRANCH   1   2
BRANCH   1   8
HETATM    8  C4  UNL     1     -36.019 -36.143  23.544  1.00  0.00     0.256 C
HETATM    9  O2  UNL     1     -36.251 -36.700  24.666  1.00  0.00    -0.287 OA
BRANCH   8  10
HETATM   10  C5  UNL     1     -34.653 -36.312  23.016  1.00  0.00     0.364 C
HETATM   11  F1  UNL     1     -34.468 -36.087  21.682  1.00  0.00    -0.191 F
HETATM   12  F2  UNL     1     -33.760 -35.476  23.706  1.00  0.00    -0.191 F
BRANCH  10  13
HETATM   13  C6  UNL     1     -34.139 -37.732  23.261  1.00  0.00     0.432 C
HETATM   14  F3  UNL     1     -33.173 -38.085  22.360  1.00  0.00    -0.207 F
HETATM   15  F4  UNL     1     -33.646 -37.850  24.545  1.00  0.00    -0.207 F
ENDBRANCH  10  13
ENDBRANCH   8  10
ENDBRANCH   1   8
BRANCH   1  16
HETATM   16  N2  UNL     1     -37.680 -35.802  21.710  1.00  0.00     0.131 N
HETATM   17  C7  UNL     1     -38.563 -34.935  21.117  1.00  0.00     0.289 C
HETATM   18  C8  UNL     1     -39.457 -35.686  20.097  1.00  0.00     0.141 C
HETATM   19  S2  UNL     1     -39.825 -37.107  21.105  1.00  0.00     0.045 S
HETATM   20  O3  UNL     1     -40.975 -36.621  22.231  1.00  0.00    -0.256 OA
HETATM   21  C9  UNL     1     -38.250 -37.139  21.940  1.00  0.00     0.383 C
ENDBRANCH   1  16
TORSDOF 7
ENDMDL