MODEL 3
REMARK VINA RESULT: -6.990941129      2.341      3.365
REMARK  6 active torsions:
REMARK  status: ('A' for Active; 'I' for Inactive)
REMARK    1  A    between atoms: C5_6  and  C6_7
REMARK    2  A    between atoms: C6_7  and  O2_9
REMARK    3  A    between atoms: O2_9  and  C7_10
REMARK    4  A    between atoms: C7_10  and  C8_11
REMARK       I    between atoms: C8_11  and  N2_13
REMARK    5  A    between atoms: N2_13  and  N3_15
REMARK       I    between atoms: N3_15  and  C9_17
REMARK    6  A    between atoms: C9_17  and  C10_19
ROOT
HETATM    1  C8  UNL     1     -38.982 -34.232  25.538  1.00  0.00     0.260 C
HETATM    2  O3  UNL     1     -38.661 -33.404  24.624  1.00  0.00    -0.269 OA
HETATM    3  N2  UNL     1     -38.397 -35.504  25.541  1.00  0.00    -0.266 N
ATOM      4  H2  UNL     1     -38.634 -36.197  26.252  1.00  0.00     0.190 HD
ENDROOT
BRANCH   1   5
HETATM    5  C7  UNL     1     -39.960 -33.764  26.526  1.00  0.00     0.283 C
BRANCH   5   6
HETATM    6  O2  UNL     1     -41.268 -34.025  26.171  1.00  0.00    -0.310 OA
BRANCH   6   7
HETATM    7  C6  UNL     1     -41.802 -34.280  24.941  1.00  0.00     0.293 C
HETATM    8  O1  UNL     1     -42.215 -33.280  24.269  1.00  0.00    -0.263 OA
BRANCH   7   9
HETATM    9  C5  UNL     1     -41.941 -35.610  24.337  1.00  0.00     0.321 C
HETATM   10  N1  UNL     1     -43.240 -36.108  24.135  1.00  0.00     0.098 N
HETATM   11  C1  UNL     1     -44.199 -35.311  23.464  1.00  0.00     0.310 C
HETATM   12  C2  UNL     1     -43.024 -37.300  23.304  1.00  0.00     0.273 C
HETATM   13  C3  UNL     1     -41.852 -36.973  22.430  1.00  0.00     0.033 C
HETATM   14  C4  UNL     1     -41.390 -35.615  22.901  1.00  0.00     0.048 C
ENDBRANCH   7   9
ENDBRANCH   6   7
ENDBRANCH   5   6
ENDBRANCH   1   5
BRANCH   3  15
HETATM   15  N3  UNL     1     -37.457 -35.788  24.509  1.00  0.00    -0.262 N
HETATM   16  C9  UNL     1     -36.285 -36.496  24.865  1.00  0.00     0.308 C
HETATM   17  O4  UNL     1     -36.054 -36.872  26.034  1.00  0.00    -0.265 OA
ATOM     18  H3  UNL     1     -37.623 -35.491  23.548  1.00  0.00     0.190 HD
BRANCH  16  19
HETATM   19  C10 UNL     1     -35.273 -36.810  23.784  1.00  0.00     0.337 C
HETATM   20  F1  UNL     1     -35.351 -38.140  23.510  1.00  0.00    -0.196 F
HETATM   21 CL1  UNL     1     -33.672 -36.314  24.402  1.00  0.00    -0.056 Cl
HETATM   22 CL2  UNL     1     -35.681 -35.815  22.378  1.00  0.00    -0.056 Cl
ENDBRANCH  16  19
ENDBRANCH   3  15
TORSDOF 6
ENDMDL