MODEL 5
REMARK VINA RESULT: -6.466419634      1.689      2.070
REMARK  5 active torsions:
REMARK  status: ('A' for Active; 'I' for Inactive)
REMARK    1  A    between atoms: C1_2  and  C2_3
REMARK       I    between atoms: C1_2  and  N2_14
REMARK    2  A    between atoms: C2_3  and  O2_4
REMARK    3  A    between atoms: O2_4  and  C3_5
REMARK    4  A    between atoms: C3_5  and  C4_7
REMARK       I    between atoms: N2_14  and  C7_16
REMARK    5  A    between atoms: C7_16  and  C8_18
ROOT
HETATM    1  C2  UNL     1     -38.441 -34.383  22.371  1.00  0.00     0.281 C
ENDROOT
BRANCH   1   2
HETATM    2  C1  UNL     1     -37.215 -35.168  22.705  1.00  0.00     0.248 C
HETATM    3  O1  UNL     1     -37.139 -35.566  23.885  1.00  0.00    -0.271 OA
HETATM    4  N2  UNL     1     -36.206 -35.453  21.783  1.00  0.00    -0.292 N
HETATM    5  C7  UNL     1     -35.016 -36.157  21.913  1.00  0.00     0.279 C
ATOM      6  H2  UNL     1     -36.372 -35.079  20.849  1.00  0.00     0.172 HD
HETATM    7  O4  UNL     1     -34.291 -36.232  20.840  1.00  0.00    -0.268 OA
BRANCH   5   8
HETATM    8  C8  UNL     1     -34.440 -36.834  23.073  1.00  0.00     0.269 C
HETATM    9 CL2  UNL     1     -35.729 -37.738  23.921  1.00  0.00    -0.073 Cl
HETATM   10 CL3  UNL     1     -33.602 -35.753  24.208  1.00  0.00    -0.073 Cl
HETATM   11 CL4  UNL     1     -33.245 -38.039  22.505  1.00  0.00    -0.073 Cl
ENDBRANCH   5   8
ENDBRANCH   1   2
BRANCH   1  12
HETATM   12  O2  UNL     1     -39.536 -34.751  23.176  1.00  0.00    -0.310 OA
BRANCH  12  13
HETATM   13  C3  UNL     1     -40.249 -33.761  23.824  1.00  0.00     0.291 C
HETATM   14  O3  UNL     1     -40.888 -32.942  23.121  1.00  0.00    -0.263 OA
BRANCH  13  15
HETATM   15  C4  UNL     1     -40.275 -33.647  25.278  1.00  0.00     0.304 C
HETATM   16  N1  UNL     1     -39.092 -34.051  25.982  1.00  0.00    -0.059 N
HETATM   17  C5  UNL     1     -39.664 -35.317  26.379  1.00  0.00     0.256 C
ATOM     18  H12 UNL     1     -38.202 -34.051  25.483  1.00  0.00     0.278 HD
ATOM     19  H11 UNL     1     -38.718 -33.434  26.704  1.00  0.00     0.278 HD
HETATM   20  C6  UNL     1     -41.030 -34.741  25.985  1.00  0.00     0.148 C
HETATM   21 CL1  UNL     1     -41.883 -35.884  24.957  1.00  0.00    -0.121 Cl
ENDBRANCH  13  15
ENDBRANCH  12  13
ENDBRANCH   1  12
TORSDOF 5
ENDMDL