MODEL 4
REMARK VINA RESULT: -6.304488599      2.532      4.351
REMARK  5 active torsions:
REMARK  status: ('A' for Active; 'I' for Inactive)
REMARK    1  A    between atoms: O1_2  and  C2_3
REMARK       I    between atoms: C2_3  and  N1_5
REMARK       I    between atoms: N1_5  and  C3_7
REMARK    2  A    between atoms: C3_7  and  C4_9
REMARK    3  A    between atoms: C4_9  and  N2_12
REMARK    4  A    between atoms: N2_12  and  O4_13
REMARK    5  A    between atoms: N2_12  and  N3_15
ROOT
HETATM    1  N2  UNL     1     -39.477 -35.143  21.968  1.00  0.00    -0.080 NA
ENDROOT
BRANCH   1   2
HETATM    2  C4  UNL     1     -38.626 -36.154  21.464  1.00  0.00     0.133 C
HETATM    3  C5  UNL     1     -39.271 -37.483  21.929  1.00  0.00     0.047 C
HETATM    4  C6  UNL     1     -38.537 -36.301  19.986  1.00  0.00     0.047 C
BRANCH   2   5
HETATM    5  C3  UNL     1     -37.280 -36.196  22.082  1.00  0.00     0.252 C
HETATM    6  N1  UNL     1     -36.996 -37.121  23.115  1.00  0.00    -0.271 N
HETATM    7  C2  UNL     1     -35.713 -37.190  23.731  1.00  0.00     0.366 C
ATOM      8  H1  UNL     1     -37.731 -37.757  23.427  1.00  0.00     0.174 HD
HETATM    9  O2  UNL     1     -35.494 -38.022  24.645  1.00  0.00    -0.238 OA
HETATM   10  O3  UNL     1     -36.358 -35.417  21.707  1.00  0.00    -0.271 OA
BRANCH   7  11
HETATM   11  O1  UNL     1     -34.695 -36.334  23.321  1.00  0.00    -0.309 OA
HETATM   12  C1  UNL     1     -33.519 -36.195  24.082  1.00  0.00     0.215 C
ENDBRANCH   7  11
ENDBRANCH   2   5
ENDBRANCH   1   2
BRANCH   1  13
HETATM   13  O4  UNL     1     -38.854 -33.942  21.737  1.00  0.00    -0.287 OA
HETATM   14  C7  UNL     1     -39.421 -33.185  20.756  1.00  0.00     0.232 C
ENDBRANCH   1  13
BRANCH   1  15
HETATM   15  N3  UNL     1     -39.978 -35.166  23.190  1.00  0.00    -0.227 N
HETATM   16  C8  UNL     1     -41.316 -35.013  23.504  1.00  0.00     0.167 C
HETATM   17  C9  UNL     1     -41.314 -34.839  25.019  1.00  0.00     0.315 C
HETATM   18  F1  UNL     1     -41.035 -36.012  25.674  1.00  0.00    -0.197 F
HETATM   19  F2  UNL     1     -42.487 -34.259  25.411  1.00  0.00    -0.197 F
HETATM   20  C10 UNL     1     -40.149 -33.847  25.150  1.00  0.00     0.343 C
HETATM   21  F3  UNL     1     -39.696 -33.765  26.432  1.00  0.00    -0.234 F
HETATM   22  C11 UNL     1     -39.152 -34.578  24.236  1.00  0.00     0.375 C
HETATM   23  F4  UNL     1     -38.181 -33.745  23.791  1.00  0.00    -0.177 F
HETATM   24  F5  UNL     1     -38.566 -35.540  25.030  1.00  0.00    -0.177 F
ENDBRANCH   1  15
TORSDOF 5
ENDMDL