MODEL 5
REMARK VINA RESULT: -7.026894854      1.489      1.557
REMARK  5 active torsions:
REMARK  status: ('A' for Active; 'I' for Inactive)
REMARK    1  A    between atoms: N2_5  and  C4_6
REMARK    2  A    between atoms: C4_6  and  O1_7
REMARK    3  A    between atoms: C4_6  and  C5_9
REMARK       I    between atoms: C5_9  and  N3_11
REMARK    4  A    between atoms: N3_11  and  C6_13
REMARK    5  A    between atoms: C10_21  and  O3_22
ROOT
HETATM    1  C4  UNL     1     -39.273 -34.570  23.778  1.00  0.00     0.315 C
ENDROOT
BRANCH   1   2
HETATM    2  N2  UNL     1     -39.471 -34.740  22.415  1.00  0.00    -0.329 N
HETATM    3  C3  UNL     1     -39.939 -35.970  21.919  1.00  0.00     0.094 C
HETATM    4  C2  UNL     1     -41.431 -35.981  21.624  1.00  0.00     0.316 C
HETATM    5  N1  UNL     1     -41.801 -34.904  20.759  1.00  0.00     0.093 N
HETATM    6  C1  UNL     1     -42.361 -35.466  19.547  1.00  0.00     0.310 C
HETATM    7  C11 UNL     1     -40.653 -34.097  20.371  1.00  0.00     0.327 C
HETATM    8  C10 UNL     1     -39.890 -33.641  21.629  1.00  0.00     0.276 C
BRANCH   8   9
HETATM    9  O3  UNL     1     -40.693 -32.708  22.221  1.00  0.00    -0.256 OA
HETATM   10 CL1  UNL     1     -41.178 -31.446  21.199  1.00  0.00     0.063 Cl
ENDBRANCH   8   9
ENDBRANCH   1   2
BRANCH   1  11
HETATM   11  O1  UNL     1     -39.286 -33.245  24.217  1.00  0.00    -0.368 OA
ATOM     12  H1  UNL     1     -38.489 -32.956  24.646  1.00  0.00     0.212 HD
ENDBRANCH   1  11
BRANCH   1  13
HETATM   13  C5  UNL     1     -38.110 -35.224  24.414  1.00  0.00     0.267 C
HETATM   14  O2  UNL     1     -38.106 -35.337  25.665  1.00  0.00    -0.269 OA
HETATM   15  N3  UNL     1     -37.014 -35.714  23.625  1.00  0.00    -0.346 N
ATOM     16  H3  UNL     1     -37.067 -35.596  22.612  1.00  0.00     0.163 HD
BRANCH  15  17
HETATM   17  C6  UNL     1     -35.862 -36.350  24.156  1.00  0.00     0.169 C
HETATM   18  C7  UNL     1     -35.736 -37.835  23.975  1.00  0.00     0.117 C
HETATM   19  C8  UNL     1     -34.239 -37.627  23.790  1.00  0.00     0.312 C
HETATM   20  F1  UNL     1     -33.682 -38.350  22.759  1.00  0.00    -0.199 F
HETATM   21  F2  UNL     1     -33.554 -37.645  24.984  1.00  0.00    -0.199 F
HETATM   22  C9  UNL     1     -34.573 -36.179  23.409  1.00  0.00     0.328 C
HETATM   23  F3  UNL     1     -34.669 -36.087  22.042  1.00  0.00    -0.197 F
HETATM   24  F4  UNL     1     -33.699 -35.245  23.910  1.00  0.00    -0.197 F
ENDBRANCH  15  17
ENDBRANCH   1  13
TORSDOF 5
ENDMDL