MODEL 3
REMARK VINA RESULT: -6.371752377      3.045      5.051
REMARK  6 active torsions:
REMARK  status: ('A' for Active; 'I' for Inactive)
REMARK    1  A    between atoms: C3_3  and  O1_4
REMARK    2  A    between atoms: N1_11  and  C8_12
REMARK    3  A    between atoms: C8_12  and  C9_13
REMARK    4  A    between atoms: C8_12  and  C13_19
REMARK    5  A    between atoms: C10_14  and  C11_15
REMARK    6  A    between atoms: C14_23  and  O3_24
ROOT
HETATM    1  C1  UNL     1     -44.343 -33.265  23.413  1.00  0.00     0.015 C
HETATM    2  C2  UNL     1     -42.923 -33.841  23.280  1.00  0.00     0.046 C
HETATM    3  C3  UNL     1     -42.911 -34.958  22.322  1.00  0.00     0.183 C
HETATM    4  C4  UNL     1     -42.283 -36.240  22.746  1.00  0.00     0.390 C
HETATM    5  O2  UNL     1     -42.353 -36.411  24.155  1.00  0.00    -0.340 OA
HETATM    6  C5  UNL     1     -41.509 -35.345  24.545  1.00  0.00     0.113 C
HETATM    7  C6  UNL     1     -40.852 -35.742  25.827  1.00  0.00     0.050 C
HETATM    8  C7  UNL     1     -40.486 -35.204  23.402  1.00  0.00     0.317 C
HETATM    9  N1  UNL     1     -40.851 -36.307  22.595  1.00  0.00     0.138 N
HETATM   10  C14 UNL     1     -42.412 -34.160  24.657  1.00  0.00     0.160 C
ENDROOT
BRANCH   9  11
HETATM   11  C8  UNL     1     -40.349 -36.378  21.252  1.00  0.00     0.368 C
BRANCH  11  12
HETATM   12  C9  UNL     1     -40.977 -37.556  20.545  1.00  0.00     0.301 A
HETATM   13  C10 UNL     1     -40.726 -37.996  19.218  1.00  0.00     0.287 A
HETATM   14  N2  UNL     1     -42.110 -37.677  19.805  1.00  0.00     0.102 N
HETATM   15  C12 UNL     1     -42.909 -36.864  19.043  1.00  0.00     0.311 C
BRANCH  13  16
HETATM   16  C11 UNL     1     -40.415 -37.277  17.967  1.00  0.00     0.260 C
HETATM   17  F1  UNL     1     -39.079 -37.485  17.568  1.00  0.00    -0.253 F
ENDBRANCH  13  16
ENDBRANCH  11  12
BRANCH  11  18
HETATM   18  C13 UNL     1     -38.872 -36.837  21.379  1.00  0.00     0.420 C
HETATM   19  F2  UNL     1     -38.206 -36.479  20.190  1.00  0.00    -0.169 F
HETATM   20  F3  UNL     1     -38.177 -36.125  22.325  1.00  0.00    -0.169 F
HETATM   21  F4  UNL     1     -38.740 -38.138  21.709  1.00  0.00    -0.169 F
ENDBRANCH  11  18
ENDBRANCH   9  11
BRANCH   3  22
HETATM   22  O1  UNL     1     -44.243 -35.268  21.953  1.00  0.00    -0.391 OA
ATOM     23  H1  UNL     1     -44.233 -35.771  21.147  1.00  0.00     0.210 HD
ENDBRANCH   3  22
BRANCH  10  24
HETATM   24  O3  UNL     1     -41.809 -33.078  25.274  1.00  0.00    -0.392 OA
ATOM     25  H3  UNL     1     -42.334 -32.711  25.976  1.00  0.00     0.210 HD
ENDBRANCH  10  24
TORSDOF 6
ENDMDL