MODEL 4
REMARK VINA RESULT: -6.596104449      3.132      5.849
REMARK  7 active torsions:
REMARK  status: ('A' for Active; 'I' for Inactive)
REMARK    1  A    between atoms: N1_2  and  C2_4
REMARK    2  A    between atoms: C2_4  and  C3_8
REMARK    3  A    between atoms: C3_8  and  C4_9
REMARK    4  A    between atoms: C3_8  and  C9_17
REMARK       I    between atoms: C4_9  and  N3_11
REMARK    5  A    between atoms: C9_17  and  C10_20
REMARK    6  A    between atoms: C10_20  and  C11_23
REMARK    7  A    between atoms: C12_24  and  C13_25
ROOT
HETATM    1  C3  UNL     1     -40.105 -35.205  24.580  1.00  0.00     0.224 C
ENDROOT
BRANCH   1   2
HETATM    2  C2  UNL     1     -39.797 -34.500  25.852  1.00  0.00     0.089 C
HETATM    3  N2  UNL     1     -39.299 -33.328  25.800  1.00  0.00    -0.388 N
ATOM      4  H22 UNL     1     -39.087 -32.844  26.673  1.00  0.00     0.157 HD
ATOM      5  H21 UNL     1     -39.113 -32.882  24.902  1.00  0.00     0.157 HD
BRANCH   2   6
HETATM    6  N1  UNL     1     -40.057 -35.124  27.110  1.00  0.00    -0.384 N
HETATM    7  C1  UNL     1     -39.212 -34.938  28.257  1.00  0.00     0.147 C
ATOM      8  H1  UNL     1     -40.876 -35.726  27.198  1.00  0.00     0.160 HD
ENDBRANCH   2   6
ENDBRANCH   1   2
BRANCH   1   9
HETATM    9  C4  UNL     1     -39.557 -34.393  23.460  1.00  0.00     0.237 C
HETATM   10  O1  UNL     1     -40.096 -33.280  23.232  1.00  0.00    -0.272 OA
HETATM   11  N3  UNL     1     -38.476 -34.810  22.663  1.00  0.00    -0.347 N
HETATM   12  C5  UNL     1     -37.969 -33.987  21.605  1.00  0.00     0.152 C
HETATM   13  C8  UNL     1     -37.849 -36.080  22.888  1.00  0.00     0.152 C
HETATM   14  C6  UNL     1     -36.966 -34.695  20.748  1.00  0.00     0.187 C
HETATM   15  O2  UNL     1     -36.111 -35.544  21.383  1.00  0.00    -0.388 OA
HETATM   16  C7  UNL     1     -36.353 -35.815  22.700  1.00  0.00     0.187 C
ENDBRANCH   1   9
BRANCH   1  17
HETATM   17  C9  UNL     1     -41.594 -35.325  24.424  1.00  0.00     0.338 C
HETATM   18  F1  UNL     1     -42.208 -34.145  24.748  1.00  0.00    -0.197 F
HETATM   19  F2  UNL     1     -42.013 -36.289  25.397  1.00  0.00    -0.197 F
BRANCH  17  20
HETATM   20  C10 UNL     1     -42.083 -35.865  23.137  1.00  0.00     0.372 C
HETATM   21  F3  UNL     1     -41.413 -37.049  22.823  1.00  0.00    -0.184 F
HETATM   22  F4  UNL     1     -42.033 -35.060  22.046  1.00  0.00    -0.184 F
BRANCH  20  23
HETATM   23  C11 UNL     1     -43.508 -36.249  23.336  1.00  0.00    -0.015 C
HETATM   24  C12 UNL     1     -44.666 -36.555  23.478  1.00  0.00    -0.032 C
BRANCH  24  25
HETATM   25  C13 UNL     1     -46.040 -36.935  23.629  1.00  0.00     0.323 C
HETATM   26  O3  UNL     1     -46.323 -37.817  24.475  1.00  0.00    -0.293 OA
ENDBRANCH  24  25
ENDBRANCH  20  23
ENDBRANCH  17  20
ENDBRANCH   1  17
TORSDOF 7
ENDMDL