MODEL 5
REMARK VINA RESULT: -7.279633744      1.698      2.162
REMARK  9 active torsions:
REMARK  status: ('A' for Active; 'I' for Inactive)
REMARK    1  A    between atoms: C2_5  and  C3_6
REMARK    2  A    between atoms: C3_6  and  C4_7
REMARK    3  A    between atoms: C4_7  and  C5_8
REMARK    4  A    between atoms: C7_14  and  C8_15
REMARK    5  A    between atoms: C8_15  and  O2_16
REMARK    6  A    between atoms: C9_18  and  C10_19
REMARK    7  A    between atoms: C15_24  and  O3_25
REMARK    8  A    between atoms: O3_25  and  C16_26
REMARK    9  A    between atoms: C16_26  and  C17_27
ROOT
HETATM    1  C5  UNL     1      -7.196 -32.170  17.794  1.00  0.00     0.104 A
HETATM    2  N2  UNL     1      -5.888 -32.038  17.384  1.00  0.00    -0.287 N
ATOM      3  H2  UNL     1      -5.094 -31.786  17.973  1.00  0.00     0.188 HD
HETATM    4  N3  UNL     1      -5.849 -32.295  16.096  1.00  0.00    -0.283 N
ATOM      5  H3  UNL     1      -5.009 -32.280  15.518  1.00  0.00     0.188 HD
HETATM    6  C6  UNL     1      -7.107 -32.585  15.649  1.00  0.00     0.140 A
HETATM    7  C7  UNL     1      -7.475 -32.924  14.342  1.00  0.00     0.041 A
HETATM    8  C9  UNL     1      -8.824 -33.176  14.140  1.00  0.00    -0.003 A
HETATM    9  C15 UNL     1      -9.683 -33.065  15.247  1.00  0.00     0.092 A
HETATM   10  C20 UNL     1      -9.224 -32.714  16.510  1.00  0.00     0.137 A
HETATM   11  N4  UNL     1      -7.899 -32.488  16.702  1.00  0.00    -0.292 N
ENDROOT
BRANCH   1  12
HETATM   12  C4  UNL     1      -7.531 -32.232  19.224  1.00  0.00     0.084 C
BRANCH  12  13
HETATM   13  C3  UNL     1      -7.682 -30.896  19.831  1.00  0.00     0.060 C
BRANCH  13  14
HETATM   14  C2  UNL     1      -6.542 -30.167  20.370  1.00  0.00    -0.007 C
HETATM   15  N1  UNL     1      -5.572 -30.572  21.067  1.00  0.00    -0.316 N
HETATM   16  C1  UNL     1      -4.516 -29.671  21.534  1.00  0.00     0.320 C
ATOM     17  H1  UNL     1      -5.521 -31.561  21.313  1.00  0.00     0.170 HD
HETATM   18  O1  UNL     1      -3.552 -30.054  22.192  1.00  0.00    -0.247 OA
HETATM   19  N5  UNL     1      -4.624 -28.285  21.199  1.00  0.00    -0.343 N
HETATM   20  C22 UNL     1      -5.993 -27.851  20.947  1.00  0.00     0.130 C
ATOM     21  H5  UNL     1      -3.821 -27.659  21.142  1.00  0.00     0.164 HD
HETATM   22  C21 UNL     1      -6.460 -28.733  19.834  1.00  0.00     0.072 C
ENDBRANCH  13  14
ENDBRANCH  12  13
ENDBRANCH   1  12
BRANCH   7  23
HETATM   23  C8  UNL     1      -6.348 -33.328  13.487  1.00  0.00     0.147 C
BRANCH  23  24
HETATM   24  O2  UNL     1      -5.358 -32.477  13.102  1.00  0.00    -0.372 OA
ATOM     25  H2  UNL     1      -4.512 -32.431  13.532  1.00  0.00     0.216 HD
ENDBRANCH  23  24
ENDBRANCH   7  23
BRANCH   9  26
HETATM   26  O3  UNL     1     -11.027 -33.362  15.170  1.00  0.00    -0.349 OA
BRANCH  26  27
HETATM   27  C16 UNL     1     -11.726 -34.339  15.823  1.00  0.00     0.180 C
BRANCH  27  28
HETATM   28  C17 UNL     1     -12.309 -35.381  14.846  1.00  0.00     0.010 A
HETATM   29  C18 UNL     1     -13.339 -34.914  13.886  1.00  0.00     0.007 A
HETATM   30  C19 UNL     1     -13.807 -35.568  15.103  1.00  0.00     0.007 A
ENDBRANCH  27  28
ENDBRANCH  26  27
ENDBRANCH   9  26
BRANCH   8  31
HETATM   31  C10 UNL     1      -9.288 -33.534  12.794  1.00  0.00     0.022 C
HETATM   32  C11 UNL     1      -9.596 -35.015  12.613  1.00  0.00     0.009 C
HETATM   33  C12 UNL     1     -10.437 -35.057  11.335  1.00  0.00     0.001 C
HETATM   34  C13 UNL     1     -10.679 -33.628  10.943  1.00  0.00     0.001 C
HETATM   35  C14 UNL     1     -10.625 -33.004  12.374  1.00  0.00     0.009 C
ENDBRANCH   8  31
TORSDOF 9
ENDMDL