MODEL 2
REMARK VINA RESULT: -6.833913629      1.458      1.718
REMARK  9 active torsions:
REMARK  status: ('A' for Active; 'I' for Inactive)
REMARK    1  A    between atoms: C4_4  and  C6_6
REMARK    2  A    between atoms: C7_7  and  C8_8
REMARK    3  A    between atoms: C9_9  and  O1_10
REMARK    4  A    between atoms: C9_9  and  C12_14
REMARK    5  A    between atoms: O1_10  and  C10_11
REMARK    6  A    between atoms: C15_18  and  C17_20
REMARK    7  A    between atoms: C20_26  and  C22_28
REMARK    8  A    between atoms: C22_28  and  C23_29
REMARK    9  A    between atoms: C23_29  and  O5_31
ROOT
HETATM    1  C1  UNL     1      -8.799 -35.437  17.634  1.00  0.00     0.017 C
HETATM    2  C2  UNL     1      -8.812 -34.549  16.665  1.00  0.00    -0.052 C
HETATM    3  C3  UNL     1      -7.910 -34.591  15.443  1.00  0.00     0.078 C
HETATM    4  C4  UNL     1      -7.626 -33.110  15.338  1.00  0.00     0.080 C
HETATM    5  C5  UNL     1      -7.496 -32.750  13.880  1.00  0.00     0.051 C
HETATM    6  O3  UNL     1      -8.663 -32.443  15.896  1.00  0.00    -0.361 OA
HETATM    7  C15 UNL     1      -9.602 -33.307  16.446  1.00  0.00     0.088 C
HETATM    8  C16 UNL     1      -9.980 -32.767  17.764  1.00  0.00     0.051 C
ENDROOT
BRANCH   7   9
HETATM    9  C17 UNL     1     -10.724 -33.615  15.502  1.00  0.00     0.061 C
HETATM   10  C18 UNL     1     -11.758 -34.549  16.060  1.00  0.00     0.113 C
HETATM   11  C19 UNL     1     -12.866 -33.635  16.424  1.00  0.00     0.218 C
HETATM   12  O4  UNL     1     -14.004 -33.967  16.914  1.00  0.00    -0.274 OA
HETATM   13  N1  UNL     1     -12.469 -32.295  16.142  1.00  0.00    -0.352 N
HETATM   14  C20 UNL     1     -11.545 -32.480  15.026  1.00  0.00     0.038 C
ATOM     15  H1  UNL     1     -12.758 -31.431  16.602  1.00  0.00     0.163 HD
HETATM   16  C21 UNL     1     -12.410 -33.000  13.872  1.00  0.00     0.039 C
BRANCH  14  17
HETATM   17  C22 UNL     1     -10.876 -31.234  14.601  1.00  0.00     0.062 C
BRANCH  17  18
HETATM   18  C23 UNL     1     -11.737 -30.230  13.871  1.00  0.00     0.116 C
HETATM   19  C24 UNL     1     -11.981 -29.056  14.824  1.00  0.00     0.039 C
BRANCH  18  20
HETATM   20  O5  UNL     1     -11.011 -29.686  12.819  1.00  0.00    -0.396 OA
ATOM     21  H5  UNL     1     -10.518 -28.938  13.135  1.00  0.00     0.210 HD
ENDBRANCH  18  20
ENDBRANCH  17  18
ENDBRANCH  14  17
ENDBRANCH   7   9
BRANCH   4  22
HETATM   22  C6  UNL     1      -6.355 -32.738  16.007  1.00  0.00     0.011 C
HETATM   23  C7  UNL     1      -6.290 -31.883  17.008  1.00  0.00     0.001 C
BRANCH  23  24
HETATM   24  C8  UNL     1      -5.032 -31.544  17.636  1.00  0.00     0.033 C
HETATM   25  C9  UNL     1      -4.623 -32.019  18.788  1.00  0.00     0.060 C
BRANCH  25  26
HETATM   26  O1  UNL     1      -3.354 -31.559  19.228  1.00  0.00    -0.283 OA
BRANCH  26  27
HETATM   27  C10 UNL     1      -3.180 -30.326  19.822  1.00  0.00     0.259 C
HETATM   28  C11 UNL     1      -3.269 -30.148  21.312  1.00  0.00     0.126 C
HETATM   29  O2  UNL     1      -2.943 -29.340  19.078  1.00  0.00    -0.265 OA
ENDBRANCH  26  27
ENDBRANCH  25  26
BRANCH  25  30
HETATM   30  C12 UNL     1      -5.392 -32.966  19.599  1.00  0.00     0.035 C
HETATM   31  C13 UNL     1      -4.486 -33.936  20.346  1.00  0.00     0.016 C
HETATM   32  C14 UNL     1      -6.293 -32.232  20.578  1.00  0.00     0.016 C
ENDBRANCH  25  30
ENDBRANCH  23  24
ENDBRANCH   4  22
TORSDOF 9
ENDMDL