MODEL 2
REMARK VINA RESULT: -6.040121632      2.947      8.668
REMARK  10 active torsions:
REMARK  status: ('A' for Active; 'I' for Inactive)
REMARK    1  A    between atoms: C2_2  and  O1_3
REMARK    2  A    between atoms: O1_3  and  C3_4
REMARK    3  A    between atoms: C3_4  and  C4_6
REMARK    4  A    between atoms: C8_12  and  S1_13
REMARK    5  A    between atoms: S1_13  and  C9_14
REMARK    6  A    between atoms: C9_14  and  C10_15
REMARK       I    between atoms: C10_15  and  N2_17
REMARK    7  A    between atoms: N2_17  and  C11_19
REMARK    8  A    between atoms: C11_19  and  C12_20
REMARK    9  A    between atoms: C12_20  and  C13_21
REMARK   10  A    between atoms: C16_28  and  C17_29
ROOT
HETATM    1  C4  UNL     1     -12.713 -30.030  15.058  1.00  0.00     0.124 A
HETATM    2  C5  UNL     1     -12.415 -28.959  14.115  1.00  0.00     0.013 A
HETATM    3  C6  UNL     1     -11.478 -29.011  13.207  1.00  0.00     0.003 A
HETATM    4  C7  UNL     1     -11.288 -27.826  12.296  1.00  0.00     0.068 C
HETATM    5  N1  UNL     1     -10.684 -30.162  13.157  1.00  0.00    -0.358 N
ATOM      6  H1  UNL     1      -9.953 -30.211  12.447  1.00  0.00     0.166 HD
HETATM    7  C8  UNL     1     -10.822 -31.157  13.953  1.00  0.00     0.056 A
HETATM    8  C16 UNL     1     -11.806 -31.185  15.031  1.00  0.00     0.082 A
ENDROOT
BRANCH   7   9
HETATM    9  S1  UNL     1      -9.680 -32.543  13.695  1.00  0.00    -0.107 SA
BRANCH   9  10
HETATM   10  C9  UNL     1      -8.909 -33.067  15.243  1.00  0.00     0.183 C
BRANCH  10  11
HETATM   11  C10 UNL     1      -7.507 -32.560  15.384  1.00  0.00     0.230 C
HETATM   12  O3  UNL     1      -6.933 -32.309  14.303  1.00  0.00    -0.272 OA
HETATM   13  N2  UNL     1      -6.876 -32.377  16.612  1.00  0.00    -0.340 N
ATOM     14  H2  UNL     1      -7.465 -32.606  17.413  1.00  0.00     0.167 HD
BRANCH  13  15
HETATM   15  C11 UNL     1      -5.589 -31.940  16.965  1.00  0.00     0.070 C
BRANCH  15  16
HETATM   16  C12 UNL     1      -4.990 -32.117  18.278  1.00  0.00     0.103 C
BRANCH  16  17
HETATM   17  C13 UNL     1      -4.235 -31.040  18.911  1.00  0.00     0.030 A
HETATM   18  C14 UNL     1      -4.299 -29.649  18.734  1.00  0.00     0.114 A
HETATM   19  N3  UNL     1      -3.399 -29.058  19.533  1.00  0.00    -0.360 N
HETATM   20  C15 UNL     1      -2.754 -30.010  20.221  1.00  0.00     0.180 A
ATOM     21  H3  UNL     1      -3.234 -28.054  19.605  1.00  0.00     0.166 HD
HETATM   22  N4  UNL     1      -3.252 -31.198  19.851  1.00  0.00    -0.354 N
ATOM     23  H4  UNL     1      -2.942 -32.097  20.219  1.00  0.00     0.166 HD
ENDBRANCH  16  17
ENDBRANCH  15  16
ENDBRANCH  13  15
ENDBRANCH  10  11
ENDBRANCH   9  10
ENDBRANCH   7   9
BRANCH   8  24
HETATM   24  C17 UNL     1     -12.548 -32.498  15.053  1.00  0.00    -0.012 C
HETATM   25  C18 UNL     1     -12.572 -33.319  16.084  1.00  0.00    -0.091 C
HETATM   26  C19 UNL     1     -11.840 -33.000  17.351  1.00  0.00     0.042 C
HETATM   27  C20 UNL     1     -13.323 -34.611  16.058  1.00  0.00     0.042 C
ENDBRANCH   8  24
BRANCH   1  28
HETATM   28  C3  UNL     1     -12.924 -29.484  16.431  1.00  0.00     0.267 C
HETATM   29  O2  UNL     1     -12.190 -29.865  17.352  1.00  0.00    -0.264 OA
BRANCH  28  30
HETATM   30  O1  UNL     1     -13.919 -28.571  16.658  1.00  0.00    -0.321 OA
BRANCH  30  31
HETATM   31  C2  UNL     1     -14.581 -28.570  17.912  1.00  0.00     0.174 C
HETATM   32  C1  UNL     1     -15.897 -27.822  17.842  1.00  0.00     0.034 C
ENDBRANCH  30  31
ENDBRANCH  28  30
ENDBRANCH   1  28
TORSDOF 10
ENDMDL