MODEL 5
REMARK VINA RESULT: -4.719784708      2.104      4.380
REMARK  10 active torsions:
REMARK  status: ('A' for Active; 'I' for Inactive)
REMARK    1  A    between atoms: N1_2  and  C2_4
REMARK    2  A    between atoms: C2_4  and  N2_6
REMARK    3  A    between atoms: N3_8  and  C3_10
REMARK    4  A    between atoms: C9_19  and  C10_20
REMARK    5  A    between atoms: C10_20  and  C11_22
REMARK    6  A    between atoms: C11_22  and  N5_23
REMARK    7  A    between atoms: N5_23  and  C12_24
REMARK    8  A    between atoms: N5_23  and  C16_29
REMARK    9  A    between atoms: C12_24  and  C13_25
REMARK   10  A    between atoms: C13_25  and  N6_26
ROOT
HETATM    1  C3  UNL     1     -12.217 -31.634  15.032  1.00  0.00     0.075 A
HETATM    2  C4  UNL     1     -12.372 -30.302  14.736  1.00  0.00    -0.011 A
HETATM    3  C5  UNL     1     -13.402 -29.502  15.426  1.00  0.00     0.052 C
HETATM    4  C6  UNL     1     -11.572 -29.691  13.806  1.00  0.00     0.016 A
HETATM    5  C7  UNL     1     -11.723 -28.235  13.460  1.00  0.00     0.069 C
HETATM    6  N4  UNL     1     -10.632 -30.437  13.193  1.00  0.00    -0.326 N
ATOM      7  H4  UNL     1     -10.031 -29.996  12.497  1.00  0.00     0.169 HD
HETATM    8  C8  UNL     1     -10.462 -31.734  13.465  1.00  0.00     0.262 A
HETATM    9  O1  UNL     1      -9.573 -32.372  12.865  1.00  0.00    -0.267 OA
HETATM   10  C9  UNL     1     -11.232 -32.404  14.388  1.00  0.00     0.112 A
ENDROOT
BRANCH  10  11
HETATM   11  C10 UNL     1     -11.061 -33.815  14.698  1.00  0.00     0.205 C
HETATM   12  O2  UNL     1     -11.822 -34.627  14.117  1.00  0.00    -0.286 OA
BRANCH  11  13
HETATM   13  C11 UNL     1     -10.068 -34.339  15.632  1.00  0.00     0.142 C
BRANCH  13  14
HETATM   14  N5  UNL     1      -8.816 -34.667  15.115  1.00  0.00    -0.380 N
BRANCH  14  15
HETATM   15  C12 UNL     1      -7.655 -34.282  15.802  1.00  0.00     0.153 C
BRANCH  15  16
HETATM   16  C13 UNL     1      -7.583 -32.770  16.054  1.00  0.00     0.291 C
BRANCH  16  17
HETATM   17  N6  UNL     1      -7.030 -32.464  17.336  1.00  0.00     0.081 N
HETATM   18  C14 UNL     1      -5.798 -31.752  17.293  1.00  0.00     0.309 C
HETATM   19  C15 UNL     1      -7.074 -33.535  18.276  1.00  0.00     0.309 C
ENDBRANCH  16  17
ENDBRANCH  15  16
ENDBRANCH  14  15
BRANCH  14  20
HETATM   20  C16 UNL     1      -8.706 -35.447  13.949  1.00  0.00     0.084 A
HETATM   21  C17 UNL     1      -7.703 -36.559  13.830  1.00  0.00     0.027 A
HETATM   22  C18 UNL     1      -7.577 -35.280  12.983  1.00  0.00     0.027 A
ENDBRANCH  14  20
ENDBRANCH  13  14
ENDBRANCH  11  13
ENDBRANCH  10  11
BRANCH   1  23
HETATM   23  N3  UNL     1     -13.000 -32.328  15.981  1.00  0.00    -0.297 N
HETATM   24  N2  UNL     1     -12.941 -32.227  17.191  1.00  0.00    -0.276 N
ATOM     25  H2  UNL     1     -13.613 -32.837  17.656  1.00  0.00     0.189 HD
ATOM     26  H3  UNL     1     -13.688 -32.985  15.612  1.00  0.00     0.187 HD
BRANCH  24  27
HETATM   27  C2  UNL     1     -12.199 -31.499  18.092  1.00  0.00     0.186 C
HETATM   28  S1  UNL     1     -10.639 -31.946  18.385  1.00  0.00    -0.040 SA
BRANCH  27  29
HETATM   29  N1  UNL     1     -12.662 -30.371  18.814  1.00  0.00    -0.370 N
HETATM   30  C1  UNL     1     -14.052 -30.127  19.126  1.00  0.00     0.148 C
ATOM     31  H1  UNL     1     -11.973 -29.691  19.133  1.00  0.00     0.161 HD
ENDBRANCH  27  29
ENDBRANCH  24  27
ENDBRANCH   1  23
TORSDOF 10
ENDMDL