MODEL 3
REMARK VINA RESULT: -5.650994333      4.823      9.217
REMARK  13 active torsions:
REMARK  status: ('A' for Active; 'I' for Inactive)
REMARK    1  A    between atoms: C3_3  and  O1_5
REMARK    2  A    between atoms: C3_3  and  C5_7
REMARK    3  A    between atoms: C5_7  and  O3_9
REMARK    4  A    between atoms: O3_9  and  C6_10
REMARK    5  A    between atoms: C6_10  and  C8_12
REMARK    6  A    between atoms: C6_10  and  C10_14
REMARK    7  A    between atoms: C10_14  and  C11_15
REMARK    8  A    between atoms: C11_15  and  C13_17
REMARK    9  A    between atoms: C16_20  and  C18_22
REMARK   10  A    between atoms: C18_22  and  C19_23
REMARK   11  A    between atoms: C19_23  and  C20_24
REMARK   12  A    between atoms: C20_24  and  O5_26
REMARK   13  A    between atoms: C23_29  and  O6_30
ROOT
HETATM    1  C1  UNL     1      -2.042 -30.441  22.105  1.00  0.00     0.016 C
HETATM    2  C2  UNL     1      -2.725 -30.057  21.188  1.00  0.00    -0.069 C
HETATM    3  C3  UNL     1      -3.574 -29.607  20.055  1.00  0.00     0.205 C
HETATM    4  C4  UNL     1      -4.571 -28.631  20.626  1.00  0.00     0.072 C
ENDROOT
BRANCH   3   5
HETATM    5  O1  UNL     1      -2.701 -28.985  19.161  1.00  0.00    -0.369 OA
ATOM      6  H1  UNL     1      -3.143 -28.190  18.888  1.00  0.00     0.212 HD
ENDBRANCH   3   5
BRANCH   3   7
HETATM    7  C5  UNL     1      -4.227 -30.775  19.409  1.00  0.00     0.307 C
HETATM    8  O2  UNL     1      -3.613 -31.664  18.800  1.00  0.00    -0.261 OA
BRANCH   7   9
HETATM    9  O3  UNL     1      -5.588 -30.891  19.480  1.00  0.00    -0.303 OA
BRANCH   9  10
HETATM   10  C6  UNL     1      -6.331 -31.698  20.356  1.00  0.00     0.084 C
HETATM   11  C7  UNL     1      -5.477 -32.402  21.383  1.00  0.00     0.051 C
BRANCH  10  12
HETATM   12  C8  UNL     1      -7.177 -30.736  21.115  1.00  0.00     0.001 C
HETATM   13  C9  UNL     1      -8.181 -30.144  20.522  1.00  0.00     0.010 C
ENDBRANCH  10  12
BRANCH  10  14
HETATM   14  C10 UNL     1      -7.184 -32.609  19.550  1.00  0.00     0.047 C
BRANCH  14  15
HETATM   15  C11 UNL     1      -6.505 -33.574  18.648  1.00  0.00    -0.009 C
HETATM   16  C12 UNL     1      -6.296 -34.952  19.171  1.00  0.00     0.010 C
BRANCH  15  17
HETATM   17  C13 UNL     1      -7.230 -33.558  17.318  1.00  0.00     0.018 C
HETATM   18  C14 UNL     1      -7.598 -34.937  16.894  1.00  0.00     0.008 C
HETATM   19  C15 UNL     1      -7.991 -35.072  15.463  1.00  0.00     0.010 C
HETATM   20  C16 UNL     1      -8.178 -33.835  14.692  1.00  0.00    -0.041 C
HETATM   21  C17 UNL     1      -9.655 -33.404  14.735  1.00  0.00     0.015 C
HETATM   22  C22 UNL     1      -7.390 -32.629  15.111  1.00  0.00     0.041 C
HETATM   23  C23 UNL     1      -6.376 -32.975  16.210  1.00  0.00     0.123 C
BRANCH  20  24
HETATM   24  C18 UNL     1      -7.882 -34.047  13.220  1.00  0.00     0.019 C
BRANCH  24  25
HETATM   25  C19 UNL     1      -6.675 -34.893  12.954  1.00  0.00     0.112 C
BRANCH  25  26
HETATM   26  C20 UNL     1      -7.164 -36.078  12.165  1.00  0.00     0.258 C
HETATM   27  O4  UNL     1      -8.392 -36.187  11.970  1.00  0.00    -0.265 OA
BRANCH  26  28
HETATM   28  O5  UNL     1      -6.305 -37.042  11.654  1.00  0.00    -0.326 OA
HETATM   29  C21 UNL     1      -5.002 -36.639  11.261  1.00  0.00     0.213 C
ENDBRANCH  26  28
ENDBRANCH  25  26
ENDBRANCH  24  25
ENDBRANCH  20  24
BRANCH  23  30
HETATM   30  O6  UNL     1      -5.695 -31.844  16.572  1.00  0.00    -0.395 OA
ATOM     31  H6  UNL     1      -6.150 -31.037  16.363  1.00  0.00     0.210 HD
ENDBRANCH  23  30
ENDBRANCH  15  17
ENDBRANCH  14  15
ENDBRANCH  10  14
ENDBRANCH   9  10
ENDBRANCH   7   9
ENDBRANCH   3   7
TORSDOF 13
ENDMDL