MODEL 3
REMARK VINA RESULT: -6.442187441      1.477      2.226
REMARK  13 active torsions:
REMARK  status: ('A' for Active; 'I' for Inactive)
REMARK    1  A    between atoms: C3_3  and  O1_4
REMARK    2  A    between atoms: C7_9  and  C8_10
REMARK    3  A    between atoms: C8_10  and  C9_11
REMARK    4  A    between atoms: C9_11  and  C10_12
REMARK    5  A    between atoms: C10_12  and  O2_14
REMARK    6  A    between atoms: O2_14  and  C12_15
REMARK    7  A    between atoms: C12_15  and  C13_17
REMARK    8  A    between atoms: C13_17  and  C16_20
REMARK    9  A    between atoms: C16_20  and  O4_21
REMARK   10  A    between atoms: O4_21  and  C17_22
REMARK   11  A    between atoms: C17_22  and  C18_24
REMARK   12  A    between atoms: C18_24  and  C19_25
REMARK   13  A    between atoms: C23_29  and  O6_30
ROOT
HETATM    1  C10 UNL     1      -6.558 -31.961  17.142  1.00  0.00     0.128 C
HETATM    2  C11 UNL     1      -7.528 -32.304  18.253  1.00  0.00     0.040 C
ENDROOT
BRANCH   1   3
HETATM    3  C9  UNL     1      -5.178 -31.895  17.738  1.00  0.00     0.036 C
BRANCH   3   4
HETATM    4  C8  UNL     1      -5.155 -30.728  18.722  1.00  0.00     0.037 C
BRANCH   4   5
HETATM    5  C7  UNL     1      -4.145 -31.045  19.754  1.00  0.00    -0.075 C
HETATM    6  C5  UNL     1      -3.177 -30.180  19.885  1.00  0.00    -0.079 C
HETATM    7  C4  UNL     1      -2.021 -30.241  20.843  1.00  0.00     0.070 C
HETATM    8  C6  UNL     1      -3.170 -28.995  19.021  1.00  0.00     0.044 C
HETATM    9  C3  UNL     1      -2.621 -30.161  22.222  1.00  0.00     0.152 C
HETATM   10  C2  UNL     1      -3.312 -31.438  22.590  1.00  0.00    -0.032 C
HETATM   11  C1  UNL     1      -2.823 -32.002  23.682  1.00  0.00     0.019 C
HETATM   12  C23 UNL     1      -4.419 -32.176  21.980  1.00  0.00     0.152 C
HETATM   13  C22 UNL     1      -4.385 -32.299  20.485  1.00  0.00     0.070 C
BRANCH   9  14
HETATM   14  O1  UNL     1      -3.582 -29.128  22.174  1.00  0.00    -0.391 OA
ATOM     15  H1  UNL     1      -3.377 -28.494  22.851  1.00  0.00     0.210 HD
ENDBRANCH   9  14
BRANCH  12  16
HETATM   16  O6  UNL     1      -4.421 -33.477  22.482  1.00  0.00    -0.391 OA
ATOM     17  H6  UNL     1      -4.939 -33.496  23.278  1.00  0.00     0.210 HD
ENDBRANCH  12  16
ENDBRANCH   4   5
ENDBRANCH   3   4
ENDBRANCH   1   3
BRANCH   1  18
HETATM   18  O2  UNL     1      -6.544 -32.902  16.115  1.00  0.00    -0.316 OA
BRANCH  18  19
HETATM   19  C12 UNL     1      -7.329 -32.888  15.002  1.00  0.00     0.269 C
HETATM   20  O3  UNL     1      -7.081 -32.023  14.131  1.00  0.00    -0.264 OA
BRANCH  19  21
HETATM   21  C13 UNL     1      -8.482 -33.843  14.751  1.00  0.00     0.063 C
HETATM   22  C14 UNL     1      -7.962 -35.164  15.223  1.00  0.00     0.028 C
HETATM   23  C15 UNL     1      -8.717 -33.966  13.252  1.00  0.00     0.028 C
BRANCH  21  24
HETATM   24  C16 UNL     1      -9.694 -33.291  15.385  1.00  0.00     0.198 C
BRANCH  24  25
HETATM   25  O4  UNL     1     -10.024 -32.016  15.045  1.00  0.00    -0.320 OA
BRANCH  25  26
HETATM   26  C17 UNL     1     -10.948 -31.452  14.260  1.00  0.00     0.259 C
HETATM   27  O5  UNL     1     -12.035 -32.042  14.058  1.00  0.00    -0.265 OA
BRANCH  26  28
HETATM   28  C18 UNL     1     -10.765 -30.120  13.581  1.00  0.00     0.115 C
BRANCH  28  29
HETATM   29  C19 UNL     1     -11.989 -29.248  13.750  1.00  0.00    -0.013 C
HETATM   30  C20 UNL     1     -11.786 -28.049  12.840  1.00  0.00     0.010 C
HETATM   31  C21 UNL     1     -12.027 -28.706  15.167  1.00  0.00     0.010 C
ENDBRANCH  28  29
ENDBRANCH  26  28
ENDBRANCH  25  26
ENDBRANCH  24  25
ENDBRANCH  21  24
ENDBRANCH  19  21
ENDBRANCH  18  19
ENDBRANCH   1  18
TORSDOF 13
ENDMDL