MODEL 5
REMARK VINA RESULT: -5.769130220      1.256      1.363
REMARK  10 active torsions:
REMARK  status: ('A' for Active; 'I' for Inactive)
REMARK    1  A    between atoms: C2_2  and  O1_3
REMARK    2  A    between atoms: O1_3  and  C3_4
REMARK    3  A    between atoms: C3_4  and  S1_6
REMARK    4  A    between atoms: S1_6  and  C4_7
REMARK    5  A    between atoms: C4_7  and  C5_8
REMARK    6  A    between atoms: C5_8  and  C6_9
REMARK       I    between atoms: C6_9  and  N1_11
REMARK       I    between atoms: N1_11  and  C7_13
REMARK       I    between atoms: C7_13  and  N3_17
REMARK    7  A    between atoms: N3_17  and  C8_18
REMARK    8  A    between atoms: N3_17  and  C15_26
REMARK    9  A    between atoms: C8_18  and  C9_19
REMARK   10  A    between atoms: C9_19  and  N4_20
ROOT
HETATM    1  C6  UNL     1      -6.946 -32.340  17.078  1.00  0.00     0.236 C
HETATM    2  O3  UNL     1      -8.100 -32.786  17.277  1.00  0.00    -0.273 OA
HETATM    3  N1  UNL     1      -6.332 -32.351  15.816  1.00  0.00    -0.160 N
ATOM      4  H1  UNL     1      -5.390 -31.964  15.763  1.00  0.00     0.187 HD
HETATM    5  C7  UNL     1      -6.883 -32.843  14.610  1.00  0.00     0.681 C
HETATM    6  N2  UNL     1      -6.165 -32.770  13.545  1.00  0.00    -0.234 N
ATOM      7  H21 UNL     1      -6.562 -33.124  12.675  1.00  0.00     0.174 HD
ATOM      8  H22 UNL     1      -5.228 -32.368  13.583  1.00  0.00     0.174 HD
HETATM    9  N3  UNL     1      -8.202 -33.410  14.556  1.00  0.00    -0.178 N
ENDROOT
BRANCH   9  10
HETATM   10  C8  UNL     1      -9.265 -32.532  14.173  1.00  0.00     0.192 C
BRANCH  10  11
HETATM   11  C9  UNL     1     -10.246 -32.123  15.194  1.00  0.00     0.079 C
BRANCH  11  12
HETATM   12  N4  UNL     1     -11.118 -31.081  14.980  1.00  0.00    -0.392 N
HETATM   13  C10 UNL     1     -11.409 -30.859  13.570  1.00  0.00     0.122 C
HETATM   14  C11 UNL     1     -11.234 -29.360  13.317  1.00  0.00     0.020 C
HETATM   15  C12 UNL     1     -12.098 -28.598  14.312  1.00  0.00     0.003 C
HETATM   16  C13 UNL     1     -12.940 -29.548  15.122  1.00  0.00     0.020 C
HETATM   17  C14 UNL     1     -12.069 -30.583  15.853  1.00  0.00     0.122 C
ENDBRANCH  11  12
ENDBRANCH  10  11
ENDBRANCH   9  10
BRANCH   9  18
HETATM   18  C15 UNL     1      -8.401 -34.794  14.960  1.00  0.00     0.059 A
HETATM   19  C16 UNL     1      -7.420 -35.595  15.402  1.00  0.00     0.038 A
HETATM   20  C17 UNL     1      -7.750 -36.873  15.754  1.00  0.00     0.052 A
HETATM   21  S2  UNL     1      -9.423 -36.933  15.458  1.00  0.00    -0.111 SA
HETATM   22  C18 UNL     1      -9.663 -35.342  14.898  1.00  0.00     0.079 A
ENDBRANCH   9  18
BRANCH   1  23
HETATM   23  C5  UNL     1      -6.248 -31.788  18.268  1.00  0.00     0.114 C
BRANCH  23  24
HETATM   24  C4  UNL     1      -4.764 -31.675  18.054  1.00  0.00     0.094 C
BRANCH  24  25
HETATM   25  S1  UNL     1      -3.858 -31.268  19.557  1.00  0.00    -0.061 SA
BRANCH  25  26
HETATM   26  C3  UNL     1      -3.658 -29.471  19.590  1.00  0.00     0.322 C
HETATM   27  O2  UNL     1      -2.796 -28.902  18.865  1.00  0.00    -0.252 OA
BRANCH  26  28
HETATM   28  O1  UNL     1      -4.437 -28.671  20.404  1.00  0.00    -0.313 OA
BRANCH  28  29
HETATM   29  C2  UNL     1      -4.726 -28.902  21.755  1.00  0.00     0.175 C
HETATM   30  C1  UNL     1      -5.807 -27.888  22.153  1.00  0.00     0.034 C
ENDBRANCH  28  29
ENDBRANCH  26  28
ENDBRANCH  25  26
ENDBRANCH  24  25
ENDBRANCH  23  24
ENDBRANCH   1  23
TORSDOF 10
ENDMDL