MODEL 1
REMARK VINA RESULT: -6.188233504      0.000      0.000
REMARK  13 active torsions:
REMARK  status: ('A' for Active; 'I' for Inactive)
REMARK    1  A    between atoms: C2_2  and  C4_4
REMARK    2  A    between atoms: C4_4  and  O1_5
REMARK    3  A    between atoms: C4_4  and  C5_7
REMARK    4  A    between atoms: C5_7  and  C6_8
REMARK    5  A    between atoms: C6_8  and  C7_9
REMARK    6  A    between atoms: C12_14  and  C13_15
REMARK    7  A    between atoms: C13_15  and  O2_16
REMARK    8  A    between atoms: C13_15  and  C14_18
REMARK    9  A    between atoms: C16_21  and  C17_22
REMARK   10  A    between atoms: C17_22  and  O4_23
REMARK   11  A    between atoms: C17_22  and  C18_25
REMARK   12  A    between atoms: C18_25  and  O5_26
REMARK   13  A    between atoms: O5_26  and  C19_27
ROOT
HETATM    1  C7  UNL     1      -8.658 -32.694  16.397  1.00  0.00    -0.028 C
HETATM    2  C8  UNL     1      -7.874 -32.771  15.294  1.00  0.00    -0.073 C
HETATM    3  C9  UNL     1      -8.561 -32.961  13.970  1.00  0.00     0.044 C
HETATM    4  C10 UNL     1      -6.419 -32.658  15.304  1.00  0.00     0.035 C
HETATM    5  C11 UNL     1      -5.772 -32.360  16.605  1.00  0.00     0.016 C
HETATM    6  C12 UNL     1      -6.727 -31.675  17.556  1.00  0.00     0.052 C
HETATM    7  C21 UNL     1      -7.893 -32.591  17.626  1.00  0.00    -0.050 C
HETATM    8  C22 UNL     1      -8.193 -33.328  18.667  1.00  0.00     0.020 C
ENDROOT
BRANCH   6   9
HETATM    9  C13 UNL     1      -6.097 -31.453  18.914  1.00  0.00     0.181 C
BRANCH   9  10
HETATM   10  O2  UNL     1      -6.665 -30.294  19.447  1.00  0.00    -0.390 OA
ATOM     11  H2  UNL     1      -6.020 -29.602  19.363  1.00  0.00     0.210 HD
ENDBRANCH   9  10
BRANCH   9  12
HETATM   12  C14 UNL     1      -4.628 -31.150  18.671  1.00  0.00     0.289 C
HETATM   13  O3  UNL     1      -4.403 -29.834  18.370  1.00  0.00    -0.356 OA
HETATM   14  C15 UNL     1      -3.295 -29.376  19.030  1.00  0.00     0.205 C
HETATM   15  C16 UNL     1      -2.929 -30.493  19.952  1.00  0.00     0.179 C
HETATM   16  O7  UNL     1      -3.957 -31.426  19.863  1.00  0.00    -0.349 OA
BRANCH  15  17
HETATM   17  C17 UNL     1      -2.800 -30.023  21.388  1.00  0.00     0.173 C
BRANCH  17  18
HETATM   18  O4  UNL     1      -1.971 -30.898  22.094  1.00  0.00    -0.391 OA
ATOM     19  H4  UNL     1      -1.460 -30.410  22.729  1.00  0.00     0.210 HD
ENDBRANCH  17  18
BRANCH  17  20
HETATM   20  C18 UNL     1      -4.168 -29.979  22.035  1.00  0.00     0.213 C
BRANCH  20  21
HETATM   21  O5  UNL     1      -4.516 -28.602  22.186  1.00  0.00    -0.319 OA
BRANCH  21  22
HETATM   22  C19 UNL     1      -5.796 -28.154  21.885  1.00  0.00     0.254 C
HETATM   23  C20 UNL     1      -6.873 -28.185  22.903  1.00  0.00     0.126 C
HETATM   24  O6  UNL     1      -6.005 -27.721  20.714  1.00  0.00    -0.266 OA
ENDBRANCH  21  22
ENDBRANCH  20  21
ENDBRANCH  17  20
ENDBRANCH  15  17
ENDBRANCH   9  12
ENDBRANCH   6   9
BRANCH   1  25
HETATM   25  C6  UNL     1     -10.107 -32.787  16.305  1.00  0.00     0.015 C
BRANCH  25  26
HETATM   26  C5  UNL     1     -10.962 -31.882  16.649  1.00  0.00     0.038 C
BRANCH  26  27
HETATM   27  C4  UNL     1     -11.807 -31.062  15.853  1.00  0.00     0.070 C
BRANCH  27  28
HETATM   28  C2  UNL     1     -11.578 -30.161  14.766  1.00  0.00    -0.038 C
HETATM   29  C1  UNL     1     -11.007 -30.308  13.608  1.00  0.00     0.021 C
HETATM   30  C3  UNL     1     -12.101 -28.731  14.980  1.00  0.00     0.050 C
ENDBRANCH  27  28
BRANCH  27  31
HETATM   31  O1  UNL     1     -13.090 -31.178  16.221  1.00  0.00    -0.360 OA
ATOM     32  H1  UNL     1     -13.220 -31.496  17.106  1.00  0.00     0.217 HD
ENDBRANCH  27  31
ENDBRANCH  26  27
ENDBRANCH  25  26
ENDBRANCH   1  25
TORSDOF 13
ENDMDL