MODEL 4
REMARK VINA RESULT: -6.135840426      2.667      3.751
REMARK  11 active torsions:
REMARK  status: ('A' for Active; 'I' for Inactive)
REMARK    1  A    between atoms: C2_2  and  O1_3
REMARK    2  A    between atoms: O1_3  and  C3_4
REMARK    3  A    between atoms: C3_4  and  C4_6
REMARK    4  A    between atoms: C5_8  and  N1_9
REMARK       I    between atoms: N1_9  and  C6_11
REMARK    5  A    between atoms: C6_11  and  C7_13
REMARK    6  A    between atoms: C7_13  and  S2_14
REMARK    7  A    between atoms: S2_14  and  C8_15
REMARK    8  A    between atoms: C8_15  and  C9_16
REMARK    9  A    between atoms: C9_16  and  O4_17
REMARK   10  A    between atoms: C9_16  and  C10_19
REMARK   11  A    between atoms: C10_19  and  C11_20
ROOT
HETATM    1  N1  UNL     1      -8.531 -29.926  20.723  1.00  0.00    -0.306 N
ATOM      2  H1  UNL     1      -9.107 -29.118  20.489  1.00  0.00     0.171 HD
HETATM    3  C6  UNL     1      -9.026 -30.946  21.540  1.00  0.00     0.232 C
HETATM    4  O3  UNL     1      -8.911 -30.867  22.793  1.00  0.00    -0.272 OA
ENDROOT
BRANCH   3   5
HETATM    5  C7  UNL     1      -9.690 -32.132  20.948  1.00  0.00     0.177 C
BRANCH   5   6
HETATM    6  S2  UNL     1     -10.468 -31.759  19.378  1.00  0.00    -0.157 SA
BRANCH   6   7
HETATM    7  C8  UNL     1     -12.290 -31.655  19.568  1.00  0.00     0.106 C
BRANCH   7   8
HETATM    8  C9  UNL     1     -12.988 -31.347  18.299  1.00  0.00     0.127 C
BRANCH   8   9
HETATM    9  O4  UNL     1     -13.671 -32.482  17.790  1.00  0.00    -0.395 OA
ATOM     10  H4  UNL     1     -14.114 -32.961  18.480  1.00  0.00     0.210 HD
ENDBRANCH   8   9
BRANCH   8  11
HETATM   11  C10 UNL     1     -12.212 -30.647  17.281  1.00  0.00     0.037 C
BRANCH  11  12
HETATM   12  C11 UNL     1     -12.335 -30.973  15.842  1.00  0.00    -0.012 C
HETATM   13  C12 UNL     1     -13.059 -29.774  15.190  1.00  0.00     0.005 C
HETATM   14  C13 UNL     1     -11.973 -28.802  14.775  1.00  0.00     0.000 C
HETATM   15  C14 UNL     1     -11.370 -29.391  13.512  1.00  0.00     0.000 C
HETATM   16  C15 UNL     1     -11.076 -30.859  13.680  1.00  0.00     0.000 C
HETATM   17  C16 UNL     1     -11.071 -31.264  15.154  1.00  0.00     0.005 C
ENDBRANCH  11  12
ENDBRANCH   8  11
ENDBRANCH   7   8
ENDBRANCH   6   7
ENDBRANCH   5   6
ENDBRANCH   3   5
BRANCH   1  18
HETATM   18  C5  UNL     1      -7.301 -30.034  20.263  1.00  0.00     0.152 A
HETATM   19  S1  UNL     1      -5.861 -29.354  20.861  1.00  0.00    -0.046 SA
HETATM   20  C4  UNL     1      -4.784 -29.984  19.702  1.00  0.00     0.105 A
HETATM   21  C17 UNL     1      -5.618 -30.705  18.893  1.00  0.00     0.030 A
HETATM   22  N2  UNL     1      -6.893 -30.720  19.193  1.00  0.00    -0.339 N
HETATM   23  C18 UNL     1      -5.038 -31.445  17.693  1.00  0.00     0.070 C
ATOM     24  H2  UNL     1      -7.558 -31.242  18.623  1.00  0.00     0.168 HD
BRANCH  20  25
HETATM   25  C3  UNL     1      -3.318 -29.812  19.581  1.00  0.00     0.302 C
HETATM   26  O2  UNL     1      -2.863 -28.907  18.852  1.00  0.00    -0.259 OA
BRANCH  25  27
HETATM   27  O1  UNL     1      -2.473 -30.652  20.273  1.00  0.00    -0.317 OA
BRANCH  27  28
HETATM   28  C2  UNL     1      -1.734 -30.132  21.381  1.00  0.00     0.174 C
HETATM   29  C1  UNL     1      -2.112 -30.864  22.639  1.00  0.00     0.034 C
ENDBRANCH  27  28
ENDBRANCH  25  27
ENDBRANCH  20  25
ENDBRANCH   1  18
TORSDOF 11
ENDMDL