MODEL 1
REMARK VINA RESULT: -6.266151601      0.000      0.000
REMARK  9 active torsions:
REMARK  status: ('A' for Active; 'I' for Inactive)
REMARK    1  A    between atoms: C2_3  and  C3_4
REMARK    2  A    between atoms: C3_4  and  C4_5
REMARK    3  A    between atoms: C5_8  and  N3_9
REMARK    4  A    between atoms: N3_9  and  C6_11
REMARK    5  A    between atoms: C12_18  and  S2_19
REMARK    6  A    between atoms: S2_19  and  C13_20
REMARK    7  A    between atoms: C13_20  and  C14_21
REMARK       I    between atoms: C14_21  and  N4_23
REMARK    8  A    between atoms: N4_23  and  C15_25
REMARK    9  A    between atoms: C15_25  and  C16_26
ROOT
HETATM    1  N1  UNL     1      -7.179 -35.701  12.774  1.00  0.00    -0.197 NA
HETATM    2  C1  UNL     1      -6.874 -34.628  13.087  1.00  0.00     0.059 C
HETATM    3  C2  UNL     1      -6.451 -33.272  13.476  1.00  0.00     0.130 C
ENDROOT
BRANCH   3   4
HETATM    4  C3  UNL     1      -7.429 -32.626  14.434  1.00  0.00     0.073 C
BRANCH   4   5
HETATM    5  C4  UNL     1      -6.881 -32.792  15.866  1.00  0.00     0.036 A
HETATM    6  N2  UNL     1      -6.008 -31.909  16.351  1.00  0.00    -0.339 N
HETATM    7  C5  UNL     1      -5.631 -32.016  17.609  1.00  0.00     0.146 A
ATOM      8  H2  UNL     1      -5.638 -31.164  15.759  1.00  0.00     0.168 HD
HETATM    9  S1  UNL     1      -6.483 -33.361  18.180  1.00  0.00    -0.045 SA
HETATM   10  C12 UNL     1      -7.340 -33.761  16.691  1.00  0.00     0.067 A
BRANCH   7  11
HETATM   11  N3  UNL     1      -4.789 -31.307  18.312  1.00  0.00    -0.366 N
ATOM     12  H3  UNL     1      -4.018 -31.824  18.736  1.00  0.00     0.162 HD
BRANCH  11  13
HETATM   13  C6  UNL     1      -4.810 -29.923  18.559  1.00  0.00     0.083 C
HETATM   14  C7  UNL     1      -6.079 -29.383  19.168  1.00  0.00     0.025 C
HETATM   15  C8  UNL     1      -6.424 -30.194  20.397  1.00  0.00     0.002 C
HETATM   16  C9  UNL     1      -5.356 -29.917  21.435  1.00  0.00     0.000 C
HETATM   17  C10 UNL     1      -4.200 -29.133  20.883  1.00  0.00     0.002 C
HETATM   18  C11 UNL     1      -3.693 -29.621  19.558  1.00  0.00     0.025 C
ENDBRANCH  11  13
ENDBRANCH   7  11
BRANCH  10  19
HETATM   19  S2  UNL     1      -8.362 -35.204  16.505  1.00  0.00    -0.111 SA
BRANCH  19  20
HETATM   20  C13 UNL     1     -10.094 -35.075  16.662  1.00  0.00     0.182 C
BRANCH  20  21
HETATM   21  C14 UNL     1     -10.671 -34.266  15.498  1.00  0.00     0.227 C
HETATM   22  O1  UNL     1     -10.341 -34.610  14.365  1.00  0.00    -0.273 OA
HETATM   23  N4  UNL     1     -11.525 -33.203  15.815  1.00  0.00    -0.358 N
ATOM     24  H4  UNL     1     -11.686 -33.080  16.815  1.00  0.00     0.162 HD
BRANCH  23  25
HETATM   25  C15 UNL     1     -12.204 -32.270  14.996  1.00  0.00     0.154 C
BRANCH  25  26
HETATM   26  C16 UNL     1     -11.620 -30.927  14.766  1.00  0.00     0.139 C
HETATM   27  C17 UNL     1     -10.841 -30.750  13.505  1.00  0.00     0.035 C
HETATM   28  C18 UNL     1     -11.045 -29.273  13.135  1.00  0.00     0.029 C
HETATM   29  C19 UNL     1     -12.088 -28.858  14.121  1.00  0.00     0.168 C
HETATM   30  O2  UNL     1     -12.709 -30.022  14.532  1.00  0.00    -0.384 OA
ENDBRANCH  25  26
ENDBRANCH  23  25
ENDBRANCH  20  21
ENDBRANCH  19  20
ENDBRANCH  10  19
ENDBRANCH   4   5
ENDBRANCH   3   4
TORSDOF 9
ENDMDL