MODEL 2
REMARK VINA RESULT: -8.536045849      1.100      1.330
REMARK  6 active torsions:
REMARK  status: ('A' for Active; 'I' for Inactive)
REMARK    1  A    between atoms: C4_6  and  C5_7
REMARK    2  A    between atoms: C5_7  and  N2_8
REMARK    3  A    between atoms: N2_8  and  C6_11
REMARK    4  A    between atoms: C6_11  and  C7_12
REMARK    5  A    between atoms: C7_12  and  C8_13
REMARK    6  A    between atoms: C15_20  and  C16_21
ROOT
HETATM    1 CL1  UNL     1      30.029  -7.693  21.261  1.00  0.00    -0.084 Cl
HETATM    2  C1  UNL     1      31.559  -7.600  22.145  1.00  0.00     0.038 A
HETATM    3  C2  UNL     1      31.579  -7.415  23.506  1.00  0.00     0.041 A
HETATM    4  C3  UNL     1      32.732  -7.337  24.234  1.00  0.00     0.100 A
HETATM    5  N1  UNL     1      33.921  -7.449  23.574  1.00  0.00    -0.308 N
HETATM    6  C4  UNL     1      35.201  -7.426  23.962  1.00  0.00     0.066 A
HETATM    7  C15 UNL     1      36.022  -7.602  22.826  1.00  0.00     0.040 A
HETATM    8  N3  UNL     1      35.182  -7.722  21.805  1.00  0.00    -0.343 N
ATOM      9  H3  UNL     1      35.460  -7.862  20.833  1.00  0.00     0.167 HD
HETATM   10  C21 UNL     1      33.921  -7.633  22.235  1.00  0.00     0.113 A
HETATM   11  C22 UNL     1      32.764  -7.713  21.489  1.00  0.00     0.072 A
ENDROOT
BRANCH   6  12
HETATM   12  C5  UNL     1      35.784  -7.267  25.285  1.00  0.00     0.291 C
BRANCH  12  13
HETATM   13  N2  UNL     1      35.421  -8.161  26.327  1.00  0.00    -0.070 N
ATOM     14  H22 UNL     1      35.727  -7.852  27.250  1.00  0.00     0.277 HD
ATOM     15  H21 UNL     1      34.419  -8.169  26.523  1.00  0.00     0.277 HD
BRANCH  13  16
HETATM   16  C6  UNL     1      35.952  -9.481  25.944  1.00  0.00     0.233 C
BRANCH  16  17
HETATM   17  C7  UNL     1      36.323 -10.300  27.130  1.00  0.00     0.032 C
BRANCH  17  18
HETATM   18  C8  UNL     1      37.706 -10.878  27.104  1.00  0.00    -0.013 C
HETATM   19  C9  UNL     1      38.689  -9.717  26.987  1.00  0.00     0.005 C
HETATM   20  C10 UNL     1      40.091 -10.093  27.341  1.00  0.00     0.000 C
HETATM   21  C11 UNL     1      40.464  -9.779  28.769  1.00  0.00     0.000 C
HETATM   22  C12 UNL     1      39.756 -10.621  29.784  1.00  0.00     0.000 C
HETATM   23  C13 UNL     1      38.299 -10.826  29.530  1.00  0.00     0.000 C
HETATM   24  C14 UNL     1      38.025 -11.690  28.324  1.00  0.00     0.005 C
ENDBRANCH  17  18
ENDBRANCH  16  17
ENDBRANCH  13  16
ENDBRANCH  12  13
ENDBRANCH   6  12
BRANCH   7  25
HETATM   25  C16 UNL     1      37.488  -7.649  22.768  1.00  0.00     0.037 C
HETATM   26  C17 UNL     1      37.868  -8.066  21.336  1.00  0.00     0.011 C
HETATM   27  C18 UNL     1      37.858  -9.574  21.330  1.00  0.00     0.001 C
HETATM   28  C19 UNL     1      37.743 -10.017  22.771  1.00  0.00     0.001 C
HETATM   29  C20 UNL     1      38.134  -8.766  23.517  1.00  0.00     0.011 C
ENDBRANCH   7  25
TORSDOF 6
ENDMDL