MODEL 4
REMARK VINA RESULT: -7.175123250      3.727      7.047
REMARK  10 active torsions:
REMARK  status: ('A' for Active; 'I' for Inactive)
REMARK    1  A    between atoms: S1_2  and  C2_3
REMARK    2  A    between atoms: C2_3  and  C3_4
REMARK    3  A    between atoms: C4_5  and  C5_6
REMARK    4  A    between atoms: C5_6  and  C8_9
REMARK    5  A    between atoms: C10_11  and  C11_12
REMARK    6  A    between atoms: C11_12  and  C12_13
REMARK    7  A    between atoms: C11_12  and  C13_15
REMARK    8  A    between atoms: C13_15  and  C14_16
REMARK    9  A    between atoms: C18_20  and  C19_21
REMARK   10  A    between atoms: C22_24  and  O1_25
ROOT
HETATM    1  C8  UNL     1      36.334  -8.367  21.747  1.00  0.00    -0.004 A
HETATM    2  C9  UNL     1      37.338  -9.011  22.465  1.00  0.00     0.019 A
HETATM    3  C10 UNL     1      37.452  -8.883  23.829  1.00  0.00    -0.052 A
HETATM    4  C17 UNL     1      36.569  -8.106  24.550  1.00  0.00     0.018 A
HETATM    5  C18 UNL     1      35.567  -7.459  23.868  1.00  0.00    -0.020 A
HETATM    6  C22 UNL     1      35.470  -7.599  22.504  1.00  0.00     0.080 A
ENDROOT
BRANCH   1   7
HETATM    7  C5  UNL     1      36.260  -8.541  20.312  1.00  0.00     0.046 C
HETATM    8  C6  UNL     1      36.626  -7.232  19.628  1.00  0.00     0.034 C
HETATM    9  C7  UNL     1      37.372  -9.514  19.890  1.00  0.00     0.034 C
BRANCH   7  10
HETATM   10  C4  UNL     1      34.958  -9.018  19.916  1.00  0.00    -0.091 C
HETATM   11  C3  UNL     1      33.883  -9.423  19.571  1.00  0.00    -0.095 C
BRANCH  11  12
HETATM   12  C2  UNL     1      32.567  -9.942  19.137  1.00  0.00     0.167 C
BRANCH  12  13
HETATM   13  S1  UNL     1      32.603  -9.922  17.307  1.00  0.00    -0.161 SA
HETATM   14  C1  UNL     1      33.031  -8.213  16.815  1.00  0.00     0.090 C
ENDBRANCH  12  13
ENDBRANCH  11  12
ENDBRANCH   7  10
ENDBRANCH   1   7
BRANCH   6  15
HETATM   15  O1  UNL     1      34.467  -6.951  21.820  1.00  0.00    -0.360 OA
ATOM     16  H1  UNL     1      34.738  -6.399  21.095  1.00  0.00     0.217 HD
ENDBRANCH   6  15
BRANCH   3  17
HETATM   17  C11 UNL     1      38.567  -9.604  24.567  1.00  0.00     0.033 C
BRANCH  17  18
HETATM   18  C12 UNL     1      39.170  -8.536  25.444  1.00  0.00     0.124 C
HETATM   19 CL1  UNL     1      40.686  -9.231  26.149  1.00  0.00    -0.130 Cl
ENDBRANCH  17  18
BRANCH  17  20
HETATM   20  C13 UNL     1      37.904 -10.712  25.289  1.00  0.00     0.014 C
BRANCH  20  21
HETATM   21  C14 UNL     1      37.474 -10.501  26.685  1.00  0.00    -0.022 C
HETATM   22  C15 UNL     1      38.214 -11.216  27.753  1.00  0.00     0.009 C
HETATM   23  C16 UNL     1      35.994 -10.766  26.901  1.00  0.00     0.009 C
ENDBRANCH  20  21
ENDBRANCH  17  20
ENDBRANCH   3  17
BRANCH   5  24
HETATM   24  C19 UNL     1      34.610  -6.624  24.650  1.00  0.00     0.013 C
HETATM   25  C20 UNL     1      35.008  -6.556  26.107  1.00  0.00     0.015 C
HETATM   26  C21 UNL     1      33.245  -7.308  24.607  1.00  0.00     0.015 C
ENDBRANCH   5  24
TORSDOF 10
ENDMDL