MODEL 1
REMARK VINA RESULT: -8.904590290      0.000      0.000
REMARK  7 active torsions:
REMARK  status: ('A' for Active; 'I' for Inactive)
REMARK    1  A    between atoms: C2_2  and  C3_3
REMARK    2  A    between atoms: C3_3  and  C4_4
REMARK    3  A    between atoms: C3_3  and  C5_6
REMARK    4  A    between atoms: C8_9  and  N1_10
REMARK       I    between atoms: N1_10  and  C9_11
REMARK    5  A    between atoms: C9_11  and  O2_13
REMARK    6  A    between atoms: O2_13  and  C10_14
REMARK    7  A    between atoms: N2_17  and  C13_18
ROOT
HETATM    1  N1  UNL     1      38.091  -8.861  24.060  1.00  0.00    -0.346 NA
HETATM    2  C9  UNL     1      37.637  -8.517  22.862  1.00  0.00     0.440 C
HETATM    3  O1  UNL     1      38.222  -8.531  21.757  1.00  0.00    -0.221 OA
ENDROOT
BRANCH   2   4
HETATM    4  O2  UNL     1      36.290  -8.046  22.677  1.00  0.00    -0.287 OA
BRANCH   4   5
HETATM    5  C10 UNL     1      35.842  -6.805  23.145  1.00  0.00     0.138 C
HETATM    6  C11 UNL     1      35.955  -6.695  24.641  1.00  0.00     0.052 C
HETATM    7  C12 UNL     1      34.767  -7.203  25.396  1.00  0.00     0.124 C
HETATM    8  N2  UNL     1      33.618  -6.519  24.896  1.00  0.00    -0.390 N
HETATM    9  C19 UNL     1      33.540  -5.892  23.620  1.00  0.00     0.124 C
HETATM   10  C20 UNL     1      34.501  -6.412  22.605  1.00  0.00     0.052 C
BRANCH   8  11
HETATM   11  C13 UNL     1      32.467  -6.454  25.742  1.00  0.00     0.088 C
HETATM   12  C14 UNL     1      31.351  -7.070  25.469  1.00  0.00    -0.065 C
HETATM   13  C15 UNL     1      30.120  -7.050  26.294  1.00  0.00     0.035 C
HETATM   14  C18 UNL     1      31.001  -7.929  24.306  1.00  0.00     0.035 C
HETATM   15  C16 UNL     1      28.977  -7.252  25.311  1.00  0.00     0.005 C
HETATM   16  C17 UNL     1      29.618  -7.430  23.955  1.00  0.00     0.005 C
ENDBRANCH   8  11
ENDBRANCH   4   5
ENDBRANCH   2   4
BRANCH   1  17
HETATM   17  C8  UNL     1      38.561  -9.219  25.304  1.00  0.00     0.113 A
HETATM   18  C7  UNL     1      37.684  -9.931  26.166  1.00  0.00     0.045 A
HETATM   19  C6  UNL     1      38.089 -10.393  27.373  1.00  0.00     0.011 A
HETATM   20  C5  UNL     1      39.366 -10.203  27.841  1.00  0.00    -0.051 A
HETATM   21  C22 UNL     1      40.231  -9.519  27.033  1.00  0.00     0.011 A
HETATM   22  C21 UNL     1      39.846  -9.036  25.796  1.00  0.00     0.045 A
BRANCH  20  23
HETATM   23  C3  UNL     1      39.753 -10.731  29.170  1.00  0.00     0.047 C
BRANCH  23  24
HETATM   24  C2  UNL     1      38.595 -11.176  29.984  1.00  0.00     0.007 C
HETATM   25  C1  UNL     1      38.044 -12.532  29.757  1.00  0.00     0.006 C
ENDBRANCH  23  24
BRANCH  23  26
HETATM   26  C4  UNL     1      40.757  -9.870  29.851  1.00  0.00     0.231 C
HETATM   27  F1  UNL     1      40.380  -9.263  30.996  1.00  0.00    -0.255 F
ENDBRANCH  23  26
ENDBRANCH  20  23
ENDBRANCH   1  17
TORSDOF 7
ENDMDL