MODEL 3
REMARK VINA RESULT: -8.220707240      1.279      2.261
REMARK  6 active torsions:
REMARK  status: ('A' for Active; 'I' for Inactive)
REMARK    1  A    between atoms: C4_5  and  N1_6
REMARK    2  A    between atoms: N1_6  and  C5_8
REMARK    3  A    between atoms: N2_11  and  C8_12
REMARK    4  A    between atoms: C8_12  and  C9_13
REMARK    5  A    between atoms: C9_13  and  C10_14
REMARK    6  A    between atoms: C10_14  and  C11_15
ROOT
HETATM    1  C5  UNL     1      37.279 -10.524  25.224  1.00  0.00     0.085 C
HETATM    2  C6  UNL     1      38.181 -10.876  24.081  1.00  0.00     0.055 C
HETATM    3  C7  UNL     1      37.915  -9.910  22.941  1.00  0.00     0.274 C
HETATM    4  N2  UNL     1      38.266  -8.581  23.335  1.00  0.00     0.088 N
HETATM    5  C19 UNL     1      38.439  -8.396  24.739  1.00  0.00     0.274 C
HETATM    6  C20 UNL     1      37.289  -9.031  25.525  1.00  0.00     0.055 C
ENDROOT
BRANCH   4   7
HETATM    7  C8  UNL     1      37.401  -7.580  22.748  1.00  0.00     0.272 C
BRANCH   7   8
HETATM    8  C9  UNL     1      36.285  -8.273  21.974  1.00  0.00     0.033 C
BRANCH   8   9
HETATM    9  C10 UNL     1      35.001  -7.497  22.302  1.00  0.00     0.042 C
BRANCH   9  10
HETATM   10  C11 UNL     1      34.438  -6.948  21.042  1.00  0.00     0.087 A
HETATM   11  C12 UNL     1      35.158  -7.151  19.748  1.00  0.00     0.041 C
HETATM   12  C13 UNL     1      34.476  -8.032  18.753  1.00  0.00     0.003 C
HETATM   13  C14 UNL     1      33.852  -9.276  19.336  1.00  0.00     0.000 C
HETATM   14  C15 UNL     1      32.342  -9.258  19.253  1.00  0.00     0.000 C
HETATM   15  C16 UNL     1      31.651  -9.091  20.561  1.00  0.00     0.002 C
HETATM   16  C17 UNL     1      32.380  -8.141  21.520  1.00  0.00     0.035 C
HETATM   17  C18 UNL     1      32.967  -7.039  20.743  1.00  0.00     0.157 A
HETATM   18  O1  UNL     1      33.551  -5.916  21.242  1.00  0.00    -0.369 OA
ENDBRANCH   9  10
ENDBRANCH   8   9
ENDBRANCH   7   8
ENDBRANCH   4   7
BRANCH   1  19
HETATM   19  N1  UNL     1      37.576 -11.269  26.422  1.00  0.00    -0.385 N
ATOM     20  H1  UNL     1      37.194 -12.213  26.482  1.00  0.00     0.160 HD
BRANCH  19  21
HETATM   21  C4  UNL     1      38.339 -10.826  27.517  1.00  0.00     0.028 A
HETATM   22  C3  UNL     1      37.858 -10.969  28.823  1.00  0.00     0.031 A
HETATM   23  C2  UNL     1      38.631 -10.545  29.850  1.00  0.00     0.026 A
HETATM   24  C1  UNL     1      39.872  -9.977  29.687  1.00  0.00     0.034 A
HETATM   25 CL1  UNL     1      40.822  -9.448  31.064  1.00  0.00    -0.084 Cl
HETATM   26  C22 UNL     1      40.334  -9.841  28.400  1.00  0.00     0.026 A
HETATM   27  C21 UNL     1      39.569 -10.264  27.333  1.00  0.00     0.031 A
ENDBRANCH  19  21
ENDBRANCH   1  19
TORSDOF 6
ENDMDL