MODEL 4
REMARK VINA RESULT: -8.073229821      2.773      4.764
REMARK  6 active torsions:
REMARK  status: ('A' for Active; 'I' for Inactive)
REMARK    1  A    between atoms: C5_5  and  N1_6
REMARK    2  A    between atoms: N1_6  and  C6_7
REMARK    3  A    between atoms: N1_6  and  C13_16
REMARK    4  A    between atoms: C6_7  and  C7_8
REMARK    5  A    between atoms: C10_11  and  O1_12
REMARK    6  A    between atoms: N2_19  and  C16_20
ROOT
HETATM    1  N1  UNL     1      36.590  -8.714  25.888  1.00  0.00    -0.372 N
ENDROOT
BRANCH   1   2
HETATM    2  C5  UNL     1      37.085  -9.699  26.799  1.00  0.00     0.030 A
HETATM    3  C4  UNL     1      38.411  -9.989  26.998  1.00  0.00     0.030 A
HETATM    4  C3  UNL     1      38.807 -10.967  27.881  1.00  0.00     0.009 A
HETATM    5  C2  UNL     1      37.904 -11.708  28.615  1.00  0.00    -0.062 A
HETATM    6  C1  UNL     1      38.335 -12.764  29.576  1.00  0.00     0.048 C
HETATM    7  C24 UNL     1      36.578 -11.405  28.403  1.00  0.00     0.009 A
HETATM    8  C23 UNL     1      36.160 -10.426  27.519  1.00  0.00     0.030 A
ENDBRANCH   1   2
BRANCH   1   9
HETATM    9  C6  UNL     1      37.605  -8.135  25.021  1.00  0.00     0.162 C
BRANCH   9  10
HETATM   10  C7  UNL     1      37.554  -8.546  23.620  1.00  0.00    -0.040 A
HETATM   11  C8  UNL     1      37.221  -7.571  22.664  1.00  0.00     0.011 A
HETATM   12  C9  UNL     1      37.124  -7.829  21.325  1.00  0.00     0.037 A
HETATM   13  C10 UNL     1      37.366  -9.117  20.887  1.00  0.00     0.065 A
HETATM   14  C11 UNL     1      37.696 -10.120  21.776  1.00  0.00     0.037 A
HETATM   15  C12 UNL     1      37.780  -9.805  23.115  1.00  0.00     0.011 A
BRANCH  13  16
HETATM   16  O1  UNL     1      37.275  -9.419  19.526  1.00  0.00    -0.361 OA
ATOM     17  H1  UNL     1      36.892  -8.790  18.926  1.00  0.00     0.217 HD
ENDBRANCH  13  16
ENDBRANCH   9  10
ENDBRANCH   1   9
BRANCH   1  18
HETATM   18  C13 UNL     1      35.256  -8.260  25.746  1.00  0.00     0.088 C
HETATM   19  C14 UNL     1      35.243  -6.731  25.791  1.00  0.00     0.055 C
HETATM   20  C15 UNL     1      33.821  -6.214  25.633  1.00  0.00     0.275 C
HETATM   21  N2  UNL     1      33.091  -6.822  24.573  1.00  0.00     0.093 N
HETATM   22  C21 UNL     1      33.882  -7.719  23.798  1.00  0.00     0.275 C
HETATM   23  C22 UNL     1      34.415  -8.821  24.674  1.00  0.00     0.055 C
BRANCH  21  24
HETATM   24  C16 UNL     1      32.391  -5.897  23.713  1.00  0.00     0.223 C
HETATM   25  C17 UNL     1      31.129  -6.449  23.123  1.00  0.00     0.036 C
HETATM   26  C18 UNL     1      30.783  -5.381  22.095  1.00  0.00     0.002 C
HETATM   27  C19 UNL     1      32.118  -5.006  21.522  1.00  0.00     0.002 C
HETATM   28  C20 UNL     1      33.179  -5.463  22.536  1.00  0.00     0.036 C
ENDBRANCH  21  24
ENDBRANCH   1  18
TORSDOF 6
ENDMDL