MODEL 3
REMARK VINA RESULT: -6.228545194      4.953      9.403
REMARK  7 active torsions:
REMARK  status: ('A' for Active; 'I' for Inactive)
REMARK    1  A    between atoms: C2_2  and  N1_3
REMARK    2  A    between atoms: N1_3  and  C3_5
REMARK    3  A    between atoms: C4_8  and  C5_9
REMARK    4  A    between atoms: C5_9  and  C6_10
REMARK    5  A    between atoms: C9_15  and  S1_16
REMARK    6  A    between atoms: S1_16  and  C10_17
REMARK    7  A    between atoms: C16_23  and  C17_24
ROOT
HETATM    1  C3  UNL     1      38.513  -9.958  26.276  1.00  0.00     0.120 A
HETATM    2  N2  UNL     1      38.412 -10.385  27.532  1.00  0.00    -0.331 N
ATOM      3  H2  UNL     1      39.264 -10.647  28.029  1.00  0.00     0.168 HD
HETATM    4  C4  UNL     1      37.217 -10.486  28.184  1.00  0.00     0.083 A
HETATM    5  N3  UNL     1      36.121 -10.135  27.507  1.00  0.00    -0.340 N
ATOM      6  H3  UNL     1      35.215 -10.201  27.972  1.00  0.00     0.167 HD
HETATM    7  C9  UNL     1      36.167  -9.689  26.210  1.00  0.00     0.086 A
HETATM    8  C16 UNL     1      37.370  -9.588  25.558  1.00  0.00     0.052 A
ENDROOT
BRANCH   7   9
HETATM    9  S1  UNL     1      34.662  -9.224  25.365  1.00  0.00    -0.106 SA
BRANCH   9  10
HETATM   10  C10 UNL     1      34.650  -7.495  24.874  1.00  0.00     0.054 C
HETATM   11  C11 UNL     1      33.996  -7.328  23.516  1.00  0.00     0.015 C
HETATM   12  C12 UNL     1      32.505  -7.606  23.626  1.00  0.00     0.001 C
HETATM   13  C13 UNL     1      31.926  -6.493  24.484  1.00  0.00     0.000 C
HETATM   14  C14 UNL     1      32.504  -6.644  25.864  1.00  0.00     0.001 C
HETATM   15  C15 UNL     1      34.004  -6.604  25.882  1.00  0.00     0.015 C
ENDBRANCH   9  10
ENDBRANCH   7   9
BRANCH   8  16
HETATM   16  C17 UNL     1      37.499  -9.107  24.175  1.00  0.00    -0.019 A
HETATM   17  C18 UNL     1      37.614 -10.035  23.147  1.00  0.00     0.015 A
HETATM   18  C19 UNL     1      37.730  -9.621  21.833  1.00  0.00     0.043 A
HETATM   19  C20 UNL     1      37.740  -8.287  21.489  1.00  0.00     0.116 A
HETATM   20  F1  UNL     1      37.856  -7.916  20.191  1.00  0.00    -0.206 F
HETATM   21  C21 UNL     1      37.628  -7.365  22.507  1.00  0.00     0.043 A
HETATM   22  C22 UNL     1      37.509  -7.776  23.827  1.00  0.00     0.015 A
ENDBRANCH   8  16
BRANCH   4  23
HETATM   23  C5  UNL     1      37.199 -10.950  29.586  1.00  0.00     0.080 C
BRANCH  23  24
HETATM   24  C6  UNL     1      38.490 -11.385  30.156  1.00  0.00    -0.016 C
HETATM   25  C7  UNL     1      39.215 -12.300  29.193  1.00  0.00     0.010 C
HETATM   26  C8  UNL     1      39.342 -10.122  30.350  1.00  0.00     0.010 C
ENDBRANCH  23  24
ENDBRANCH   4  23
BRANCH   1  27
HETATM   27  N1  UNL     1      39.630  -9.855  25.637  1.00  0.00    -0.352 N
ATOM     28  H1  UNL     1      39.844 -10.440  24.830  1.00  0.00     0.166 HD
BRANCH  27  29
HETATM   29  C2  UNL     1      40.556  -8.866  26.128  1.00  0.00     0.079 C
HETATM   30  C1  UNL     1      41.543  -9.190  26.943  1.00  0.00     0.029 C
ENDBRANCH  27  29
ENDBRANCH   1  27
TORSDOF 7
ENDMDL