MODEL 2
REMARK VINA RESULT: -8.521987478      0.991      1.405
REMARK  7 active torsions:
REMARK  status: ('A' for Active; 'I' for Inactive)
REMARK    1  A    between atoms: O1_1  and  C1_3
REMARK    2  A    between atoms: C1_3  and  C2_4
REMARK    3  A    between atoms: C1_3  and  C9_15
REMARK    4  A    between atoms: C5_7  and  C6_8
REMARK    5  A    between atoms: C9_15  and  C10_16
REMARK    6  A    between atoms: C9_15  and  C17_23
REMARK    7  A    between atoms: C10_16  and  C11_17
ROOT
HETATM    1  C9  UNL     1      37.238  -9.048  24.288  1.00  0.00     0.054 C
ENDROOT
BRANCH   1   2
HETATM    2  C1  UNL     1      37.938  -9.343  23.013  1.00  0.00     0.177 C
BRANCH   2   3
HETATM    3  O1  UNL     1      37.811 -10.750  22.832  1.00  0.00    -0.389 OA
ATOM      4  H1  UNL     1      38.323 -11.143  23.528  1.00  0.00     0.210 HD
ENDBRANCH   2   3
BRANCH   2   5
HETATM    5  C2  UNL     1      37.416  -8.743  21.793  1.00  0.00     0.055 A
HETATM    6  C3  UNL     1      36.043  -8.920  21.562  1.00  0.00     0.031 A
HETATM    7  C4  UNL     1      35.435  -8.394  20.441  1.00  0.00     0.029 A
HETATM    8  C5  UNL     1      36.179  -7.681  19.523  1.00  0.00     0.030 A
HETATM    9  N1  UNL     1      37.491  -7.537  19.783  1.00  0.00    -0.304 N
HETATM   10  N2  UNL     1      38.065  -8.045  20.862  1.00  0.00    -0.302 N
ATOM     11  H1  UNL     1      38.066  -7.014  19.123  1.00  0.00     0.186 HD
ATOM     12  H2  UNL     1      39.066  -7.892  20.988  1.00  0.00     0.186 HD
BRANCH   8  13
HETATM   13  C6  UNL     1      35.554  -7.095  18.294  1.00  0.00     0.037 A
HETATM   14  C7  UNL     1      34.079  -6.963  18.251  1.00  0.00     0.011 A
HETATM   15  C8  UNL     1      34.929  -5.762  18.499  1.00  0.00     0.011 A
ENDBRANCH   8  13
ENDBRANCH   2   5
ENDBRANCH   1   2
BRANCH   1  16
HETATM   16  C10 UNL     1      36.743  -7.654  24.465  1.00  0.00     0.017 C
BRANCH  16  17
HETATM   17  C11 UNL     1      35.248  -7.676  24.833  1.00  0.00    -0.014 C
HETATM   18  C12 UNL     1      34.519  -6.912  23.817  1.00  0.00     0.005 C
HETATM   19  C13 UNL     1      33.474  -5.951  24.307  1.00  0.00     0.000 C
HETATM   20  C14 UNL     1      33.063  -6.155  25.729  1.00  0.00     0.000 C
HETATM   21  C15 UNL     1      34.354  -6.052  26.552  1.00  0.00     0.000 C
HETATM   22  C16 UNL     1      35.148  -7.278  26.250  1.00  0.00     0.005 C
ENDBRANCH  16  17
ENDBRANCH   1  16
BRANCH   1  23
HETATM   23  C17 UNL     1      38.238  -9.284  25.373  1.00  0.00    -0.051 A
HETATM   24  C18 UNL     1      37.843 -10.103  26.409  1.00  0.00     0.009 A
HETATM   25  C19 UNL     1      38.693 -10.384  27.467  1.00  0.00     0.024 A
HETATM   26  C20 UNL     1      39.958  -9.847  27.502  1.00  0.00     0.034 A
HETATM   27 CL1  UNL     1      41.042 -10.206  28.850  1.00  0.00    -0.084 Cl
HETATM   28  C21 UNL     1      40.354  -9.024  26.459  1.00  0.00     0.024 A
HETATM   29  C22 UNL     1      39.495  -8.740  25.392  1.00  0.00     0.009 A
ENDBRANCH   1  23
TORSDOF 7
ENDMDL