MODEL 1
REMARK VINA RESULT: -8.028049275      0.000      0.000
REMARK  6 active torsions:
REMARK  status: ('A' for Active; 'I' for Inactive)
REMARK    1  A    between atoms: C2_2  and  N1_4
REMARK    2  A    between atoms: C2_2  and  C10_13
REMARK    3  A    between atoms: N1_4  and  C4_7
REMARK    4  A    between atoms: C4_7  and  C5_8
REMARK    5  A    between atoms: C5_8  and  C6_9
REMARK    6  A    between atoms: C11_14  and  C12_15
ROOT
HETATM    1  C10 UNL     1      36.919  -9.320  24.708  1.00  0.00     0.076 A
HETATM    2  C11 UNL     1      36.868  -9.848  25.997  1.00  0.00     0.041 A
HETATM    3  N2  UNL     1      35.941  -9.134  26.653  1.00  0.00    -0.343 N
ATOM      4  H2  UNL     1      35.672  -9.287  27.625  1.00  0.00     0.167 HD
HETATM    5  C18 UNL     1      35.423  -8.202  25.864  1.00  0.00     0.112 A
HETATM    6  C19 UNL     1      34.461  -7.264  26.161  1.00  0.00     0.051 A
HETATM    7  C20 UNL     1      34.052  -6.354  25.205  1.00  0.00     0.029 A
HETATM    8  C21 UNL     1      34.649  -6.447  23.991  1.00  0.00     0.050 A
HETATM    9 CL1  UNL     1      34.153  -5.301  22.742  1.00  0.00    -0.083 Cl
HETATM   10  C22 UNL     1      35.612  -7.411  23.740  1.00  0.00     0.122 A
HETATM   11  N3  UNL     1      36.034  -8.319  24.655  1.00  0.00    -0.306 N
ENDROOT
BRANCH   1  12
HETATM   12  C2  UNL     1      37.752  -9.857  23.660  1.00  0.00     0.163 C
HETATM   13  C1  UNL     1      39.046  -8.965  23.677  1.00  0.00     0.053 C
HETATM   14  C3  UNL     1      38.251 -11.247  23.869  1.00  0.00     0.053 C
BRANCH  12  15
HETATM   15  N1  UNL     1      37.199  -9.791  22.335  1.00  0.00    -0.061 N
ATOM     16  H12 UNL     1      37.042 -10.726  21.956  1.00  0.00     0.278 HD
ATOM     17  H11 UNL     1      36.235  -9.459  22.355  1.00  0.00     0.278 HD
BRANCH  15  18
HETATM   18  C4  UNL     1      37.993  -9.007  21.451  1.00  0.00     0.234 C
BRANCH  18  19
HETATM   19  C5  UNL     1      37.294  -8.781  20.111  1.00  0.00     0.032 C
BRANCH  19  20
HETATM   20  C6  UNL     1      35.972  -8.104  20.263  1.00  0.00    -0.013 C
HETATM   21  C7  UNL     1      35.616  -7.029  19.284  1.00  0.00     0.005 C
HETATM   22  C8  UNL     1      34.237  -7.657  19.066  1.00  0.00     0.001 C
HETATM   23  C9  UNL     1      34.831  -8.932  19.663  1.00  0.00     0.005 C
ENDBRANCH  19  20
ENDBRANCH  18  19
ENDBRANCH  15  18
ENDBRANCH  12  15
ENDBRANCH   1  12
BRANCH   2  24
HETATM   24  C12 UNL     1      37.671 -10.888  26.683  1.00  0.00     0.038 C
HETATM   25  C13 UNL     1      36.807 -11.415  27.833  1.00  0.00     0.011 C
HETATM   26  C14 UNL     1      37.669 -12.129  28.852  1.00  0.00     0.001 C
HETATM   27  C15 UNL     1      38.342 -10.998  29.597  1.00  0.00     0.000 C
HETATM   28  C16 UNL     1      39.172 -10.223  28.659  1.00  0.00     0.001 C
HETATM   29  C17 UNL     1      38.948 -10.297  27.214  1.00  0.00     0.011 C
ENDBRANCH   2  24
TORSDOF 6
ENDMDL