MODEL 3
REMARK VINA RESULT: -8.980756182      2.729      4.303
REMARK  6 active torsions:
REMARK  status: ('A' for Active; 'I' for Inactive)
REMARK    1  A    between atoms: C2_2  and  N1_3
REMARK    2  A    between atoms: C2_2  and  C19_25
REMARK    3  A    between atoms: N1_3  and  C3_5
REMARK    4  A    between atoms: C3_5  and  C4_6
REMARK    5  A    between atoms: C7_9  and  C8_10
REMARK    6  A    between atoms: C11_14  and  C12_15
ROOT
HETATM    1  C12 UNL     1      34.794  -7.135  21.737  1.00  0.00    -0.009 A
HETATM    2  C13 UNL     1      34.008  -6.161  21.250  1.00  0.00     0.015 A
HETATM    3  C14 UNL     1      33.826  -6.015  19.861  1.00  0.00     0.023 A
HETATM    4  C15 UNL     1      34.418  -6.836  18.944  1.00  0.00     0.044 A
HETATM    5  C16 UNL     1      34.211  -6.692  17.504  1.00  0.00     0.099 C
HETATM    6  N2  UNL     1      34.051  -6.550  16.369  1.00  0.00    -0.191 NA
HETATM    7  C17 UNL     1      35.229  -7.844  19.446  1.00  0.00     0.023 A
HETATM    8  C18 UNL     1      35.417  -7.996  20.784  1.00  0.00     0.015 A
ENDROOT
BRANCH   1   9
HETATM    9  C11 UNL     1      35.120  -7.454  23.138  1.00  0.00     0.049 A
HETATM   10  C7  UNL     1      34.277  -7.136  24.217  1.00  0.00    -0.024 A
HETATM   11  C6  UNL     1      34.747  -7.293  25.499  1.00  0.00     0.012 A
HETATM   12  C5  UNL     1      36.067  -7.777  25.718  1.00  0.00     0.027 A
HETATM   13  C4  UNL     1      36.852  -8.074  24.667  1.00  0.00     0.027 A
HETATM   14  N3  UNL     1      36.332  -7.902  23.430  1.00  0.00    -0.357 N
ATOM     15  H3  UNL     1      36.935  -8.141  22.643  1.00  0.00     0.166 HD
BRANCH  10  16
HETATM   16  C8  UNL     1      32.862  -6.793  23.950  1.00  0.00     0.057 A
HETATM   17  C9  UNL     1      31.723  -7.018  24.853  1.00  0.00     0.050 A
HETATM   18  C10 UNL     1      31.946  -8.106  23.894  1.00  0.00     0.179 A
HETATM   19  F1  UNL     1      31.120  -8.239  22.789  1.00  0.00    -0.249 F
ENDBRANCH  10  16
BRANCH  13  20
HETATM   20  C3  UNL     1      38.327  -8.510  24.756  1.00  0.00     0.171 C
BRANCH  20  21
HETATM   21  N1  UNL     1      38.240  -9.770  25.371  1.00  0.00    -0.412 N
ATOM     22  H1  UNL     1      37.453 -10.384  25.163  1.00  0.00     0.153 HD
BRANCH  21  23
HETATM   23  C2  UNL     1      39.274 -10.204  26.306  1.00  0.00     0.077 C
HETATM   24  C1  UNL     1      40.284  -9.106  26.454  1.00  0.00     0.032 C
BRANCH  23  25
HETATM   25  C19 UNL     1      38.412 -10.368  27.607  1.00  0.00     0.007 C
HETATM   26  C20 UNL     1      39.413 -10.721  28.682  1.00  0.00     0.006 C
HETATM   27  C21 UNL     1      38.807 -11.217  29.956  1.00  0.00     0.000 C
HETATM   28  C22 UNL     1      37.865 -12.383  29.626  1.00  0.00     0.000 C
HETATM   29  C23 UNL     1      36.770 -11.729  28.806  1.00  0.00     0.000 C
HETATM   30  C24 UNL     1      37.351 -11.410  27.454  1.00  0.00     0.006 C
ENDBRANCH  23  25
ENDBRANCH  21  23
ENDBRANCH  20  21
ENDBRANCH  13  20
ENDBRANCH   1   9
TORSDOF 6
ENDMDL