MODEL 5
REMARK VINA RESULT: -8.621992245      1.146      1.576
REMARK  6 active torsions:
REMARK  status: ('A' for Active; 'I' for Inactive)
REMARK    1  A    between atoms: C2_2  and  C3_3
REMARK    2  A    between atoms: C3_3  and  C4_4
REMARK    3  A    between atoms: C14_16  and  N1_17
REMARK    4  A    between atoms: N1_17  and  C15_20
REMARK    5  A    between atoms: C15_20  and  C16_21
REMARK    6  A    between atoms: C16_21  and  C17_22
ROOT
HETATM    1  C4  UNL     1      36.275  -8.704  24.645  1.00  0.00     0.051 C
HETATM    2  C5  UNL     1      36.437  -9.188  26.095  1.00  0.00     0.050 C
HETATM    3  C6  UNL     1      37.455 -10.309  26.134  1.00  0.00     0.097 C
HETATM    4  C7  UNL     1      36.875 -11.586  26.627  1.00  0.00     0.041 C
HETATM    5  C8  UNL     1      36.030 -11.535  27.848  1.00  0.00     0.003 C
HETATM    6  C9  UNL     1      36.659 -10.956  29.066  1.00  0.00     0.000 C
HETATM    7  C10 UNL     1      37.961 -11.688  29.332  1.00  0.00     0.000 C
HETATM    8  C11 UNL     1      39.071 -10.702  29.049  1.00  0.00     0.000 C
HETATM    9  C12 UNL     1      39.485 -10.772  27.571  1.00  0.00     0.003 C
HETATM   10  C13 UNL     1      38.684  -9.821  26.778  1.00  0.00     0.041 C
HETATM   11  O1  UNL     1      37.768 -10.544  24.767  1.00  0.00    -0.228 OA
HETATM   12  O2  UNL     1      38.418  -9.547  24.242  1.00  0.00    -0.206 OA
HETATM   13  C14 UNL     1      37.646  -8.397  24.160  1.00  0.00     0.362 C
ENDROOT
BRANCH  13  14
HETATM   14  N1  UNL     1      37.743  -7.751  22.881  1.00  0.00    -0.045 N
ATOM     15  H12 UNL     1      36.990  -7.073  22.765  1.00  0.00     0.280 HD
ATOM     16  H11 UNL     1      38.546  -7.123  22.857  1.00  0.00     0.280 HD
BRANCH  14  17
HETATM   17  C15 UNL     1      37.780  -8.654  21.771  1.00  0.00     0.240 C
BRANCH  17  18
HETATM   18  C16 UNL     1      37.574  -7.919  20.478  1.00  0.00     0.066 C
BRANCH  18  19
HETATM   19  C17 UNL     1      36.220  -7.958  19.926  1.00  0.00    -0.057 A
HETATM   20  C18 UNL     1      35.659  -6.908  19.209  1.00  0.00     0.009 A
HETATM   21  C19 UNL     1      34.389  -7.015  18.705  1.00  0.00     0.024 A
HETATM   22  C20 UNL     1      33.601  -8.134  18.867  1.00  0.00     0.034 A
HETATM   23 CL1  UNL     1      31.974  -8.237  18.204  1.00  0.00    -0.084 Cl
HETATM   24  C21 UNL     1      34.152  -9.178  19.578  1.00  0.00     0.024 A
HETATM   25  C22 UNL     1      35.421  -9.085  20.087  1.00  0.00     0.009 A
ENDBRANCH  18  19
ENDBRANCH  17  18
ENDBRANCH  14  17
ENDBRANCH  13  14
BRANCH   1  26
HETATM   26  C3  UNL     1      35.379  -7.485  24.700  1.00  0.00     0.035 C
BRANCH  26  27
HETATM   27  C2  UNL     1      34.410  -7.501  23.569  1.00  0.00    -0.036 C
HETATM   28  C1  UNL     1      34.321  -6.500  22.716  1.00  0.00     0.007 C
ENDBRANCH  26  27
ENDBRANCH   1  26
TORSDOF 6
ENDMDL