MODEL 3
REMARK VINA RESULT: -7.078471411      5.397      7.542
REMARK  6 active torsions:
REMARK  status: ('A' for Active; 'I' for Inactive)
REMARK    1  A    between atoms: C1_2  and  C2_3
REMARK    2  A    between atoms: C2_3  and  C3_4
REMARK    3  A    between atoms: C4_6  and  C5_7
REMARK    4  A    between atoms: C5_7  and  O3_8
REMARK    5  A    between atoms: C9_14  and  C10_15
REMARK    6  A    between atoms: C12_22  and  O5_23
ROOT
HETATM    1  C3  UNL     1      -9.983 -41.134  10.146  1.00  0.00     0.366 C
HETATM    2  O2  UNL     1      -9.725 -42.437   9.898  1.00  0.00    -0.348 OA
HETATM    3  C4  UNL     1     -10.347 -43.392  10.615  1.00  0.00     0.163 C
HETATM    4  C6  UNL     1     -11.600 -42.972  11.325  1.00  0.00     0.112 C
HETATM    5  S1  UNL     1     -11.054 -42.240  12.917  1.00  0.00    -0.147 SA
HETATM    6  C7  UNL     1     -11.856 -40.590  12.898  1.00  0.00     0.039 C
HETATM    7  C8  UNL     1     -11.463 -39.784  14.112  1.00  0.00     0.029 C
HETATM    8  C9  UNL     1     -12.693 -38.988  14.391  1.00  0.00     0.014 C
HETATM    9  C13 UNL     1     -13.805 -39.975  14.084  1.00  0.00     0.013 C
HETATM   10  C14 UNL     1     -13.323 -40.832  12.962  1.00  0.00     0.006 C
HETATM   11  C15 UNL     1     -14.003 -40.566  11.649  1.00  0.00     0.008 C
HETATM   12  C16 UNL     1     -13.625 -41.628  10.689  1.00  0.00     0.037 C
HETATM   13  C17 UNL     1     -12.206 -41.866  10.446  1.00  0.00     0.242 C
HETATM   14  N3  UNL     1     -11.315 -40.773  10.499  1.00  0.00     0.125 N
HETATM   15  C18 UNL     1     -11.388 -39.926  11.637  1.00  0.00     0.297 C
ENDROOT
BRANCH   8  16
HETATM   16  C10 UNL     1     -12.768 -38.495  15.817  1.00  0.00     0.139 C
HETATM   17  N1  UNL     1     -14.094 -38.478  16.341  1.00  0.00    -0.334 N
HETATM   18  C11 UNL     1     -14.187 -37.380  17.239  1.00  0.00     0.318 C
ATOM     19  H1  UNL     1     -14.841 -39.134  16.112  1.00  0.00     0.164 HD
HETATM   20  O4  UNL     1     -15.114 -37.143  18.074  1.00  0.00    -0.247 OA
HETATM   21  N2  UNL     1     -13.049 -36.547  17.068  1.00  0.00    -0.315 N
HETATM   22  C12 UNL     1     -12.312 -37.069  15.947  1.00  0.00     0.244 C
ATOM     23  H2  UNL     1     -12.802 -35.733  17.631  1.00  0.00     0.166 HD
BRANCH  22  24
HETATM   24  O5  UNL     1     -10.932 -36.953  16.107  1.00  0.00    -0.375 OA
ATOM     25  H5  UNL     1     -10.683 -36.666  16.977  1.00  0.00     0.212 HD
ENDBRANCH  22  24
ENDBRANCH   8  16
BRANCH   3  26
HETATM   26  C5  UNL     1     -10.725 -44.528   9.667  1.00  0.00     0.197 C
BRANCH  26  27
HETATM   27  O3  UNL     1      -9.944 -44.467   8.501  1.00  0.00    -0.398 OA
ATOM     28  H3  UNL     1     -10.260 -43.775   7.930  1.00  0.00     0.209 HD
ENDBRANCH  26  27
ENDBRANCH   3  26
BRANCH   1  29
HETATM   29  C2  UNL     1      -9.586 -40.333   8.922  1.00  0.00     0.133 C
BRANCH  29  30
HETATM   30  C1  UNL     1      -9.508 -41.193   7.709  1.00  0.00     0.235 C
HETATM   31  O1  UNL     1     -10.550 -41.675   7.282  1.00  0.00    -0.307 OA
ENDBRANCH  29  30
ENDBRANCH   1  29
TORSDOF 6
ENDMDL