MODEL 2
REMARK VINA RESULT: -6.872853436      1.734      2.563
REMARK  11 active torsions:
REMARK  status: ('A' for Active; 'I' for Inactive)
REMARK    1  A    between atoms: C3_3  and  O1_4
REMARK    2  A    between atoms: C10_13  and  O4_14
REMARK    3  A    between atoms: C11_16  and  O5_17
REMARK    4  A    between atoms: C12_19  and  O6_20
REMARK    5  A    between atoms: C13_22  and  C14_23
REMARK    6  A    between atoms: C15_24  and  C16_25
REMARK    7  A    between atoms: C16_25  and  C17_26
REMARK    8  A    between atoms: C17_26  and  C18_27
REMARK    9  A    between atoms: C18_27  and  C19_28
REMARK   10  A    between atoms: C19_28  and  C20_29
REMARK   11  A    between atoms: C22_31  and  O7_32
ROOT
HETATM    1  C1  UNL     1     -16.324 -43.176  10.769  1.00  0.00     0.019 C
HETATM    2  C2  UNL     1     -16.077 -42.631  11.949  1.00  0.00    -0.030 C
HETATM    3  C3  UNL     1     -16.599 -41.254  12.164  1.00  0.00     0.164 C
HETATM    4  C5  UNL     1     -17.318 -41.172  13.519  1.00  0.00     0.115 C
HETATM    5  C6  UNL     1     -18.177 -42.352  13.610  1.00  0.00     0.204 C
HETATM    6  O2  UNL     1     -19.426 -42.355  13.427  1.00  0.00    -0.289 OA
HETATM    7  C7  UNL     1     -17.523 -43.635  13.946  1.00  0.00     0.210 C
HETATM    8  O3  UNL     1     -18.136 -44.714  13.987  1.00  0.00    -0.288 OA
HETATM    9  C8  UNL     1     -16.049 -43.522  14.233  1.00  0.00     0.095 C
HETATM   10  C9  UNL     1     -15.635 -44.680  15.089  1.00  0.00     0.058 C
HETATM   11  C10 UNL     1     -16.113 -44.286  16.465  1.00  0.00     0.151 C
HETATM   12  C11 UNL     1     -16.383 -42.801  16.436  1.00  0.00     0.183 C
HETATM   13  C12 UNL     1     -15.801 -42.345  15.154  1.00  0.00     0.119 C
HETATM   14  C13 UNL     1     -16.301 -41.053  14.622  1.00  0.00     0.117 C
HETATM   15  C22 UNL     1     -15.311 -43.434  12.941  1.00  0.00     0.168 C
ENDROOT
BRANCH  14  16
HETATM   16  C14 UNL     1     -16.824 -40.159  15.686  1.00  0.00    -0.098 C
HETATM   17  C15 UNL     1     -17.237 -39.443  16.565  1.00  0.00    -0.106 C
BRANCH  17  18
HETATM   18  C16 UNL     1     -17.720 -38.583  17.647  1.00  0.00     0.094 C
BRANCH  18  19
HETATM   19  C17 UNL     1     -18.531 -37.476  17.062  1.00  0.00     0.012 C
BRANCH  19  20
HETATM   20  C18 UNL     1     -19.849 -37.935  16.504  1.00  0.00     0.001 C
BRANCH  20  21
HETATM   21  C19 UNL     1     -21.010 -37.591  17.395  1.00  0.00    -0.000 C
BRANCH  21  22
HETATM   22  C20 UNL     1     -22.289 -37.889  16.608  1.00  0.00    -0.005 C
HETATM   23  C21 UNL     1     -21.906 -38.316  15.207  1.00  0.00     0.005 C
ENDBRANCH  21  22
ENDBRANCH  20  21
ENDBRANCH  19  20
ENDBRANCH  18  19
ENDBRANCH  17  18
ENDBRANCH  14  16
BRANCH  13  24
HETATM   24  O6  UNL     1     -14.397 -42.296  15.336  1.00  0.00    -0.384 OA
ATOM     25  H6  UNL     1     -14.265 -41.896  16.187  1.00  0.00     0.210 HD
ENDBRANCH  13  24
BRANCH   3  26
HETATM   26  O1  UNL     1     -17.474 -40.912  11.131  1.00  0.00    -0.385 OA
HETATM   27  C4  UNL     1     -17.223 -39.578  10.809  1.00  0.00     0.202 C
ENDBRANCH   3  26
BRANCH  12  28
HETATM   28  O5  UNL     1     -17.691 -42.481  16.668  1.00  0.00    -0.390 OA
ATOM     29  H5  UNL     1     -17.810 -41.604  17.013  1.00  0.00     0.210 HD
ENDBRANCH  12  28
BRANCH  15  30
HETATM   30  O7  UNL     1     -14.053 -42.840  13.048  1.00  0.00    -0.390 OA
ATOM     31  H7  UNL     1     -13.690 -43.119  13.881  1.00  0.00     0.210 HD
ENDBRANCH  15  30
BRANCH  11  32
HETATM   32  O4  UNL     1     -15.133 -44.614  17.394  1.00  0.00    -0.393 OA
ATOM     33  H4  UNL     1     -15.513 -45.181  18.055  1.00  0.00     0.210 HD
ENDBRANCH  11  32
TORSDOF 11
ENDMDL