MODEL 4
REMARK VINA RESULT: -8.603338632      1.261      1.579
REMARK  11 active torsions:
REMARK  status: ('A' for Active; 'I' for Inactive)
REMARK    1  A    between atoms: C3_3  and  C4_4
REMARK    2  A    between atoms: C4_4  and  O1_6
REMARK    3  A    between atoms: C4_4  and  C6_8
REMARK    4  A    between atoms: C7_9  and  C8_10
REMARK    5  A    between atoms: C8_10  and  C9_11
REMARK    6  A    between atoms: C10_12  and  C11_13
REMARK    7  A    between atoms: C11_13  and  C12_14
REMARK    8  A    between atoms: C12_14  and  C13_15
REMARK    9  A    between atoms: C14_17  and  N1_18
REMARK   10  A    between atoms: C20_28  and  O5_29
REMARK   11  A    between atoms: C21_31  and  O6_32
ROOT
HETATM    1  C1  UNL     1      -9.738 -39.997   9.178  1.00  0.00     0.112 C
HETATM    2  C2  UNL     1     -10.286 -40.337  10.503  1.00  0.00    -0.107 C
HETATM    3  C3  UNL     1     -10.729 -40.627  11.589  1.00  0.00    -0.056 C
ENDROOT
BRANCH   3   4
HETATM    4  C4  UNL     1     -11.260 -40.982  12.911  1.00  0.00     0.181 C
HETATM    5  C5  UNL     1     -12.535 -41.750  12.702  1.00  0.00     0.075 C
BRANCH   4   6
HETATM    6  O1  UNL     1     -10.350 -41.813  13.572  1.00  0.00    -0.367 OA
ATOM      7  H1  UNL     1     -10.743 -42.141  14.372  1.00  0.00     0.212 HD
ENDBRANCH   4   6
BRANCH   4   8
HETATM    8  C6  UNL     1     -11.516 -39.792  13.727  1.00  0.00    -0.055 C
HETATM    9  C7  UNL     1     -11.706 -38.806  14.397  1.00  0.00    -0.099 C
BRANCH   9  10
HETATM   10  C8  UNL     1     -11.913 -37.603  15.205  1.00  0.00     0.120 C
BRANCH  10  11
HETATM   11  C9  UNL     1     -12.662 -37.887  16.458  1.00  0.00    -0.019 C
HETATM   12  C10 UNL     1     -12.970 -36.948  17.321  1.00  0.00    -0.030 C
BRANCH  12  13
HETATM   13  C11 UNL     1     -13.711 -37.223  18.564  1.00  0.00     0.029 C
BRANCH  13  14
HETATM   14  C12 UNL     1     -15.188 -36.914  18.431  1.00  0.00     0.038 C
BRANCH  14  15
HETATM   15  C13 UNL     1     -15.992 -38.182  18.497  1.00  0.00     0.156 C
HETATM   16  O2  UNL     1     -16.851 -38.345  17.439  1.00  0.00    -0.355 OA
HETATM   17  C14 UNL     1     -17.822 -37.377  17.635  1.00  0.00     0.263 C
HETATM   18  C20 UNL     1     -18.044 -37.236  19.106  1.00  0.00     0.198 C
HETATM   19  C21 UNL     1     -16.948 -38.140  19.670  1.00  0.00     0.180 C
BRANCH  17  20
HETATM   20  N1  UNL     1     -19.049 -37.692  16.921  1.00  0.00    -0.279 N
HETATM   21  C15 UNL     1     -20.240 -37.500  17.510  1.00  0.00     0.110 A
HETATM   22  C16 UNL     1     -21.441 -37.792  16.855  1.00  0.00     0.022 A
HETATM   23  C17 UNL     1     -22.751 -37.567  17.541  1.00  0.00     0.056 C
HETATM   24  C18 UNL     1     -21.365 -38.286  15.574  1.00  0.00     0.256 A
HETATM   25  O3  UNL     1     -22.442 -38.558  14.959  1.00  0.00    -0.267 OA
HETATM   26  N2  UNL     1     -20.175 -38.475  14.990  1.00  0.00    -0.275 N
HETATM   27  C19 UNL     1     -19.037 -38.178  15.664  1.00  0.00     0.331 A
ATOM     28  H2  UNL     1     -20.125 -38.841  14.039  1.00  0.00     0.173 HD
HETATM   29  O4  UNL     1     -17.919 -38.354  15.121  1.00  0.00    -0.246 OA
ENDBRANCH  17  20
BRANCH  18  30
HETATM   30  O5  UNL     1     -19.301 -37.675  19.511  1.00  0.00    -0.388 OA
ATOM     31  H5  UNL     1     -19.984 -37.031  19.364  1.00  0.00     0.210 HD
ENDBRANCH  18  30
BRANCH  19  32
HETATM   32  O6  UNL     1     -17.492 -39.421  19.877  1.00  0.00    -0.390 OA
ATOM     33  H6  UNL     1     -17.341 -39.958  19.108  1.00  0.00     0.210 HD
ENDBRANCH  19  32
ENDBRANCH  14  15
ENDBRANCH  13  14
ENDBRANCH  12  13
ENDBRANCH  10  11
ENDBRANCH   9  10
ENDBRANCH   4   8
ENDBRANCH   3   4
TORSDOF 11
ENDMDL