MODEL 5
REMARK VINA RESULT: -7.938519204      1.481      1.916
REMARK  11 active torsions:
REMARK  status: ('A' for Active; 'I' for Inactive)
REMARK    1  A    between atoms: C2_2  and  C3_3
REMARK    2  A    between atoms: C6_6  and  O1_7
REMARK    3  A    between atoms: O1_7  and  C7_8
REMARK       I    between atoms: C7_8  and  N1_10
REMARK    4  A    between atoms: N1_10  and  C8_12
REMARK    5  A    between atoms: C8_12  and  C9_13
REMARK    6  A    between atoms: C11_17  and  O4_18
REMARK    7  A    between atoms: C12_20  and  N3_21
REMARK    8  A    between atoms: N3_21  and  N4_23
REMARK    9  A    between atoms: N4_23  and  N5_24
REMARK   10  A    between atoms: C13_27  and  O5_28
REMARK   11  A    between atoms: C14_30  and  O6_31
ROOT
HETATM    1  C9  UNL     1     -15.681 -41.522  15.179  1.00  0.00     0.121 C
HETATM    2  C10 UNL     1     -17.112 -41.895  15.306  1.00  0.00     0.230 C
HETATM    3  O3  UNL     1     -17.751 -42.439  16.266  1.00  0.00    -0.273 OA
HETATM    4  N2  UNL     1     -17.364 -41.407  14.006  1.00  0.00    -0.315 N
HETATM    5  C11 UNL     1     -18.210 -41.325  12.845  1.00  0.00     0.251 C
HETATM    6  C12 UNL     1     -17.366 -41.749  11.651  1.00  0.00     0.194 C
HETATM    7  C13 UNL     1     -16.225 -40.772  11.507  1.00  0.00     0.178 C
HETATM    8  C14 UNL     1     -15.317 -40.931  12.733  1.00  0.00     0.173 C
HETATM    9  C15 UNL     1     -16.111 -40.689  13.991  1.00  0.00     0.136 C
ENDROOT
BRANCH   1  10
HETATM   10  C8  UNL     1     -15.177 -40.605  16.276  1.00  0.00     0.141 C
BRANCH  10  11
HETATM   11  N1  UNL     1     -15.774 -39.299  16.235  1.00  0.00    -0.336 N
HETATM   12  C7  UNL     1     -16.543 -38.876  17.355  1.00  0.00     0.360 C
HETATM   13  O2  UNL     1     -16.699 -39.622  18.353  1.00  0.00    -0.239 OA
ATOM     14  H1  UNL     1     -15.649 -38.691  15.426  1.00  0.00     0.164 HD
BRANCH  12  15
HETATM   15  O1  UNL     1     -17.144 -37.633  17.381  1.00  0.00    -0.299 OA
BRANCH  15  16
HETATM   16  C6  UNL     1     -18.485 -37.517  16.980  1.00  0.00     0.133 C
HETATM   17  C5  UNL     1     -19.316 -37.374  18.236  1.00  0.00     0.033 C
HETATM   18  C4  UNL     1     -20.686 -37.910  17.965  1.00  0.00     0.007 C
HETATM   19  C3  UNL     1     -21.108 -37.512  16.557  1.00  0.00    -0.015 C
HETATM   20  C17 UNL     1     -20.297 -38.302  15.550  1.00  0.00     0.007 C
HETATM   21  C16 UNL     1     -18.938 -38.689  16.140  1.00  0.00     0.033 C
BRANCH  19  22
HETATM   22  C2  UNL     1     -22.583 -37.856  16.442  1.00  0.00     0.000 C
HETATM   23  C1  UNL     1     -23.357 -37.535  17.678  1.00  0.00     0.005 C
ENDBRANCH  19  22
ENDBRANCH  15  16
ENDBRANCH  12  15
ENDBRANCH  10  11
ENDBRANCH   1  10
BRANCH   8  24
HETATM   24  O6  UNL     1     -14.375 -39.892  12.635  1.00  0.00    -0.391 OA
ATOM     25  H6  UNL     1     -14.057 -39.757  13.520  1.00  0.00     0.210 HD
ENDBRANCH   8  24
BRANCH   5  26
HETATM   26  O4  UNL     1     -19.288 -42.206  12.953  1.00  0.00    -0.374 OA
ATOM     27  H4  UNL     1     -19.616 -42.229  13.844  1.00  0.00     0.212 HD
ENDBRANCH   5  26
BRANCH   7  28
HETATM   28  O5  UNL     1     -16.772 -39.485  11.488  1.00  0.00    -0.391 OA
ATOM     29  H5  UNL     1     -16.104 -38.886  11.801  1.00  0.00     0.210 HD
ENDBRANCH   7  28
BRANCH   6  30
HETATM   30  N3  UNL     1     -18.138 -41.861  10.451  1.00  0.00    -0.241 N
ATOM     31  H3  UNL     1     -18.938 -42.491  10.387  1.00  0.00     0.197 HD
BRANCH  30  32
HETATM   32  N4  UNL     1     -17.786 -41.153   9.487  1.00  0.00    -0.248 NA
BRANCH  32  33
HETATM   33  N5  UNL     1     -17.844 -40.347   8.558  1.00  0.00    -0.261 N
ATOM     34  H52 UNL     1     -17.983 -41.034   7.817  1.00  0.00     0.193 HD
ATOM     35  H51 UNL     1     -17.844 -39.460   8.055  1.00  0.00     0.193 HD
ENDBRANCH  32  33
ENDBRANCH  30  32
ENDBRANCH   6  30
TORSDOF 11
ENDMDL