MODEL 5
REMARK VINA RESULT: -7.573648144      1.091      1.285
REMARK  7 active torsions:
REMARK  status: ('A' for Active; 'I' for Inactive)
REMARK    1  A    between atoms: O1_2  and  C2_3
REMARK    2  A    between atoms: C3_5  and  C4_6
REMARK    3  A    between atoms: C5_9  and  O5_10
REMARK    4  A    between atoms: C7_13  and  N1_14
REMARK       I    between atoms: N1_14  and  C8_16
REMARK    5  A    between atoms: C8_16  and  C9_18
REMARK    6  A    between atoms: C15_25  and  O7_26
REMARK    7  A    between atoms: C15_25  and  N2_28
ROOT
HETATM    1  N1  UNL     1     -13.953 -38.898  15.405  1.00  0.00    -0.351 N
ATOM      2  H1  UNL     1     -14.972 -38.931  15.420  1.00  0.00     0.163 HD
HETATM    3  C8  UNL     1     -13.274 -39.729  14.480  1.00  0.00     0.227 C
HETATM    4  O6  UNL     1     -12.013 -39.741  14.402  1.00  0.00    -0.273 OA
ENDROOT
BRANCH   1   5
HETATM    5  C7  UNL     1     -13.297 -38.013  16.321  1.00  0.00     0.142 C
HETATM    6  C2  UNL     1     -14.342 -37.504  17.291  1.00  0.00     0.283 C
HETATM    7  O2  UNL     1     -13.843 -36.606  18.208  1.00  0.00    -0.341 OA
HETATM    8  C3  UNL     1     -12.515 -36.313  18.076  1.00  0.00     0.254 C
HETATM    9  C5  UNL     1     -12.154 -35.857  16.670  1.00  0.00     0.160 C
HETATM   10  C6  UNL     1     -12.668 -36.819  15.642  1.00  0.00     0.065 C
BRANCH   6  11
HETATM   11  O1  UNL     1     -15.418 -37.043  16.579  1.00  0.00    -0.364 OA
HETATM   12  C1  UNL     1     -16.642 -37.429  17.082  1.00  0.00     0.204 C
ENDBRANCH   6  11
BRANCH   8  13
HETATM   13  C4  UNL     1     -12.174 -35.206  19.002  1.00  0.00     0.205 C
HETATM   14  O3  UNL     1     -12.995 -34.298  19.288  1.00  0.00    -0.646 OA
HETATM   15  O4  UNL     1     -10.919 -35.139  19.590  1.00  0.00    -0.646 OA
ENDBRANCH   8  13
BRANCH   9  16
HETATM   16  O5  UNL     1     -12.658 -34.563  16.432  1.00  0.00    -0.392 OA
ATOM     17  H5  UNL     1     -11.982 -34.010  16.058  1.00  0.00     0.210 HD
ENDBRANCH   9  16
ENDBRANCH   1   5
BRANCH   3  18
HETATM   18  C9  UNL     1     -13.984 -40.635  13.546  1.00  0.00     0.126 C
HETATM   19  C10 UNL     1     -13.370 -40.646  12.163  1.00  0.00     0.065 C
HETATM   20  C11 UNL     1     -14.434 -41.271  11.278  1.00  0.00     0.018 C
HETATM   21  S1  UNL     1     -12.283 -42.127  12.311  1.00  0.00    -0.154 SA
HETATM   22  C12 UNL     1     -14.625 -42.686  11.689  1.00  0.00     0.021 C
HETATM   23  C13 UNL     1     -13.840 -42.980  12.922  1.00  0.00     0.081 C
HETATM   24  C14 UNL     1     -14.040 -42.022  14.065  1.00  0.00    -0.001 C
HETATM   25  C15 UNL     1     -14.997 -42.372  15.083  1.00  0.00     0.141 C
BRANCH  25  26
HETATM   26  O7  UNL     1     -14.504 -43.058  16.098  1.00  0.00    -0.346 OA
ATOM     27  H7  UNL     1     -15.117 -43.225  16.805  1.00  0.00     0.219 HD
ENDBRANCH  25  26
BRANCH  25  28
HETATM   28  N2  UNL     1     -16.359 -42.139  15.229  1.00  0.00    -0.370 N
HETATM   29  C16 UNL     1     -16.927 -41.076  15.985  1.00  0.00     0.151 C
HETATM   30  C17 UNL     1     -17.319 -43.044  14.562  1.00  0.00     0.151 C
ENDBRANCH  25  28
ENDBRANCH   3  18
TORSDOF 7
ENDMDL