MODEL 2
REMARK VINA RESULT: -6.128180368      2.340      3.880
REMARK  8 active torsions:
REMARK  status: ('A' for Active; 'I' for Inactive)
REMARK    1  A    between atoms: C2_2  and  C3_3
REMARK    2  A    between atoms: C8_9  and  C9_10
REMARK    3  A    between atoms: C10_12  and  C11_13
REMARK    4  A    between atoms: C11_13  and  O3_14
REMARK    5  A    between atoms: C18_23  and  C19_24
REMARK    6  A    between atoms: C20_27  and  O7_28
REMARK    7  A    between atoms: C20_27  and  C21_30
REMARK    8  A    between atoms: C21_30  and  O8_31
ROOT
HETATM    1  C3  UNL     1     -16.484 -42.413  10.837  1.00  0.00    -0.022 C
HETATM    2  C4  UNL     1     -15.287 -42.919   9.940  1.00  0.00     0.020 C
HETATM    3  C5  UNL     1     -16.575 -40.948  10.326  1.00  0.00     0.016 C
HETATM    4  C6  UNL     1     -17.204 -40.055  11.349  1.00  0.00     0.034 C
HETATM    5  C7  UNL     1     -16.600 -40.164  12.715  1.00  0.00     0.139 C
HETATM    6  O1  UNL     1     -15.214 -39.928  12.585  1.00  0.00    -0.376 OA
HETATM    7  C8  UNL     1     -14.401 -40.184  13.671  1.00  0.00     0.164 C
HETATM    8  C12 UNL     1     -14.582 -41.477  14.375  1.00  0.00     0.088 C
HETATM    9  C13 UNL     1     -14.434 -42.805  13.862  1.00  0.00     0.023 C
HETATM   10  C14 UNL     1     -15.612 -43.408  13.070  1.00  0.00     0.030 C
HETATM   11  C15 UNL     1     -15.987 -42.324  12.160  1.00  0.00     0.024 C
HETATM   12  C16 UNL     1     -16.733 -41.486  13.210  1.00  0.00     0.068 C
HETATM   13  C17 UNL     1     -16.061 -41.367  14.524  1.00  0.00     0.146 C
HETATM   14  O4  UNL     1     -16.510 -41.205  15.574  1.00  0.00    -0.296 OA
HETATM   15  C18 UNL     1     -17.762 -42.418  13.590  1.00  0.00     0.142 C
HETATM   16  C20 UNL     1     -16.895 -43.599  13.877  1.00  0.00     0.097 C
ENDROOT
BRANCH   7  17
HETATM   17  C9  UNL     1     -12.994 -39.857  13.264  1.00  0.00     0.183 A
HETATM   18  O2  UNL     1     -12.855 -38.474  12.874  1.00  0.00    -0.370 OA
HETATM   19  C10 UNL     1     -12.082 -38.976  14.007  1.00  0.00     0.177 A
BRANCH  19  20
HETATM   20  C11 UNL     1     -12.461 -38.347  15.299  1.00  0.00     0.198 C
BRANCH  20  21
HETATM   21  O3  UNL     1     -11.423 -38.636  16.219  1.00  0.00    -0.398 OA
ATOM     22  H3  UNL     1     -10.826 -37.897  16.206  1.00  0.00     0.209 HD
ENDBRANCH  20  21
ENDBRANCH  19  20
ENDBRANCH   7  17
BRANCH  15  23
HETATM   23  C19 UNL     1     -18.835 -42.035  14.481  1.00  0.00     0.181 C
HETATM   24  O5  UNL     1     -19.309 -42.836  15.305  1.00  0.00    -0.648 OA
HETATM   25  O6  UNL     1     -19.386 -40.781  14.484  1.00  0.00    -0.648 OA
ENDBRANCH  15  23
BRANCH  16  26
HETATM   26  O7  UNL     1     -17.513 -44.673  13.111  1.00  0.00    -0.386 OA
ATOM     27  H7  UNL     1     -16.936 -44.686  12.357  1.00  0.00     0.210 HD
ENDBRANCH  16  26
BRANCH  16  28
HETATM   28  C21 UNL     1     -16.706 -44.223  15.170  1.00  0.00     0.203 C
BRANCH  28  29
HETATM   29  O8  UNL     1     -17.706 -45.077  15.631  1.00  0.00    -0.398 OA
ATOM     30  H8  UNL     1     -18.477 -45.188  15.088  1.00  0.00     0.209 HD
ENDBRANCH  28  29
ENDBRANCH  16  28
BRANCH   1  31
HETATM   31  C2  UNL     1     -17.588 -43.114  10.268  1.00  0.00    -0.027 C
HETATM   32  C1  UNL     1     -18.165 -42.891   9.084  1.00  0.00     0.007 C
ENDBRANCH   1  31
TORSDOF 8
ENDMDL