MODEL 1
REMARK VINA RESULT: -6.410192370      0.000      0.000
REMARK  9 active torsions:
REMARK  status: ('A' for Active; 'I' for Inactive)
REMARK    1  A    between atoms: O1_2  and  C2_3
REMARK    2  A    between atoms: C4_8  and  N2_9
REMARK    3  A    between atoms: C8_13  and  C9_14
REMARK    4  A    between atoms: C9_14  and  N3_15
REMARK    5  A    between atoms: C14_20  and  C15_21
REMARK    6  A    between atoms: C16_22  and  C17_23
REMARK    7  A    between atoms: C17_23  and  O3_25
REMARK    8  A    between atoms: C19_27  and  O4_28
REMARK    9  A    between atoms: C20_30  and  O5_31
ROOT
HETATM    1  C2  UNL     1     -15.012 -37.995  17.325  1.00  0.00     0.254 C
HETATM    2  N1  UNL     1     -15.029 -39.011  16.300  1.00  0.00    -0.327 N
ATOM      3  H1  UNL     1     -14.191 -39.010  15.719  1.00  0.00     0.165 HD
HETATM    4  C3  UNL     1     -15.955 -39.998  15.934  1.00  0.00     0.270 C
HETATM    5  O2  UNL     1     -15.455 -40.991  15.361  1.00  0.00    -0.266 OA
HETATM    6  C4  UNL     1     -17.407 -40.055  16.110  1.00  0.00     0.108 C
HETATM    7  C14 UNL     1     -18.106 -38.887  16.714  1.00  0.00     0.005 C
HETATM    8  C19 UNL     1     -17.378 -37.598  16.765  1.00  0.00     0.186 C
HETATM    9  C20 UNL     1     -16.362 -37.710  17.902  1.00  0.00     0.200 C
ENDROOT
BRANCH   6  10
HETATM   10  N2  UNL     1     -18.157 -40.872  15.234  1.00  0.00    -0.369 N
HETATM   11  C5  UNL     1     -18.271 -42.241  15.704  1.00  0.00     0.123 C
HETATM   12  C6  UNL     1     -17.831 -43.139  14.622  1.00  0.00     0.022 C
HETATM   13  C7  UNL     1     -17.510 -42.246  13.486  1.00  0.00     0.028 C
HETATM   14  C8  UNL     1     -18.047 -40.881  13.878  1.00  0.00     0.113 C
BRANCH  14  15
HETATM   15  C9  UNL     1     -17.291 -39.908  13.069  1.00  0.00     0.297 C
BRANCH  15  16
HETATM   16  N3  UNL     1     -16.825 -40.569  11.865  1.00  0.00     0.090 N
HETATM   17  C10 UNL     1     -17.176 -39.868  10.648  1.00  0.00     0.272 C
HETATM   18  C11 UNL     1     -16.298 -40.540   9.586  1.00  0.00     0.032 C
HETATM   19  C12 UNL     1     -15.036 -40.851  10.350  1.00  0.00     0.032 C
HETATM   20  C13 UNL     1     -15.378 -40.549  11.794  1.00  0.00     0.272 C
ENDBRANCH  15  16
ENDBRANCH  14  15
ENDBRANCH   6  10
BRANCH   7  21
HETATM   21  C15 UNL     1     -19.498 -38.749  16.280  1.00  0.00     0.011 C
HETATM   22  C16 UNL     1     -20.381 -37.955  16.770  1.00  0.00     0.005 C
BRANCH  22  23
HETATM   23  C17 UNL     1     -21.802 -37.917  16.218  1.00  0.00     0.137 C
HETATM   24  C18 UNL     1     -22.699 -37.508  17.359  1.00  0.00     0.043 C
BRANCH  23  25
HETATM   25  O3  UNL     1     -22.177 -39.209  15.831  1.00  0.00    -0.392 OA
ATOM     26  H3  UNL     1     -21.728 -39.840  16.381  1.00  0.00     0.210 HD
ENDBRANCH  23  25
ENDBRANCH  22  23
ENDBRANCH   7  21
BRANCH   8  27
HETATM   27  O4  UNL     1     -16.820 -37.110  15.627  1.00  0.00    -0.388 OA
ATOM     28  H4  UNL     1     -16.989 -37.552  14.803  1.00  0.00     0.210 HD
ENDBRANCH   8  27
BRANCH   1  29
HETATM   29  O1  UNL     1     -14.573 -36.817  16.704  1.00  0.00    -0.369 OA
HETATM   30  C1  UNL     1     -13.209 -36.762  16.584  1.00  0.00     0.204 C
ENDBRANCH   1  29
BRANCH   9  31
HETATM   31  O5  UNL     1     -16.348 -36.512  18.616  1.00  0.00    -0.388 OA
ATOM     32  H5  UNL     1     -15.857 -35.848  18.146  1.00  0.00     0.210 HD
ENDBRANCH   9  31
TORSDOF 9
ENDMDL