MODEL 2
REMARK VINA RESULT: -7.370290079      3.325      5.658
REMARK  6 active torsions:
REMARK  status: ('A' for Active; 'I' for Inactive)
REMARK    1  A    between atoms: C3_4  and  C4_5
REMARK    2  A    between atoms: C4_5  and  N2_6
REMARK    3  A    between atoms: N3_11  and  C9_12
REMARK    4  A    between atoms: C9_12  and  C10_13
REMARK    5  A    between atoms: C14_17  and  N4_18
REMARK    6  A    between atoms: C21_33  and  N8_34
ROOT
HETATM    1  N1  UNL     1     -16.237 -38.489  18.729  1.00  0.00    -0.191 NA
HETATM    2  C1  UNL     1     -17.143 -38.455  18.004  1.00  0.00     0.105 C
HETATM    3  C2  UNL     1     -18.287 -38.423  17.116  1.00  0.00     0.117 A
HETATM    4  C3  UNL     1     -18.196 -39.146  15.906  1.00  0.00     0.088 A
HETATM    5  N5  UNL     1     -19.223 -39.146  15.052  1.00  0.00    -0.189 N
ATOM      6  H5  UNL     1     -19.182 -39.658  14.171  1.00  0.00     0.184 HD
HETATM    7  C20 UNL     1     -20.331 -38.429  15.410  1.00  0.00     0.678 A
HETATM    8  N6  UNL     1     -21.328 -38.438  14.565  1.00  0.00    -0.234 N
ATOM      9  H61 UNL     1     -22.155 -37.904  14.832  1.00  0.00     0.174 HD
ATOM     10  H62 UNL     1     -21.262 -38.961  13.691  1.00  0.00     0.174 HD
HETATM   11  N7  UNL     1     -20.417 -37.742  16.558  1.00  0.00    -0.176 N
ATOM     12  H7  UNL     1     -21.273 -37.227  16.765  1.00  0.00     0.186 HD
HETATM   13  C21 UNL     1     -19.409 -37.714  17.446  1.00  0.00     0.138 A
ENDROOT
BRANCH   4  14
HETATM   14  C4  UNL     1     -16.959 -39.871  15.589  1.00  0.00     0.117 C
BRANCH  14  15
HETATM   15  N2  UNL     1     -16.965 -40.678  14.452  1.00  0.00    -0.385 N
HETATM   16  C5  UNL     1     -17.353 -42.043  14.582  1.00  0.00     0.123 C
HETATM   17  C6  UNL     1     -16.267 -43.047  14.440  1.00  0.00     0.029 C
HETATM   18  C7  UNL     1     -14.930 -42.395  14.639  1.00  0.00     0.058 C
HETATM   19  C8  UNL     1     -13.898 -43.427  14.148  1.00  0.00     0.279 C
HETATM   20  C14 UNL     1     -14.745 -41.324  13.619  1.00  0.00     0.207 C
HETATM   21  N3  UNL     1     -14.323 -43.520  12.764  1.00  0.00     0.091 N
HETATM   22  C13 UNL     1     -14.559 -42.172  12.349  1.00  0.00     0.316 C
HETATM   23  C19 UNL     1     -15.953 -40.428  13.472  1.00  0.00     0.166 C
BRANCH  21  24
HETATM   24  C9  UNL     1     -13.478 -44.300  11.928  1.00  0.00     0.277 C
BRANCH  24  25
HETATM   25  C10 UNL     1     -12.039 -43.840  12.196  1.00  0.00     0.014 A
HETATM   26  C11 UNL     1     -10.989 -44.615  11.385  1.00  0.00     0.007 A
HETATM   27  C12 UNL     1     -11.280 -43.187  11.100  1.00  0.00     0.007 A
ENDBRANCH  24  25
ENDBRANCH  21  24
BRANCH  20  28
HETATM   28  N4  UNL     1     -13.516 -40.603  13.794  1.00  0.00     0.106 N
HETATM   29  C15 UNL     1     -13.598 -39.442  14.649  1.00  0.00     0.299 C
HETATM   30  C16 UNL     1     -12.147 -38.980  14.861  1.00  0.00     0.198 C
HETATM   31  O1  UNL     1     -11.250 -39.746  14.137  1.00  0.00    -0.388 OA
HETATM   32  C17 UNL     1     -11.514 -39.829  12.790  1.00  0.00     0.198 C
HETATM   33  C18 UNL     1     -12.975 -40.126  12.537  1.00  0.00     0.299 C
ENDBRANCH  20  28
ENDBRANCH  14  15
ENDBRANCH   4  14
BRANCH  13  34
HETATM   34  N8  UNL     1     -19.478 -37.051  18.568  1.00  0.00    -0.384 N
ATOM     35  H82 UNL     1     -20.100 -37.323  19.330  1.00  0.00     0.157 HD
ATOM     36  H81 UNL     1     -18.903 -36.223  18.725  1.00  0.00     0.157 HD
ENDBRANCH  13  34
TORSDOF 6
ENDMDL