MODEL 1
REMARK VINA RESULT: -6.584102560      0.000      0.000
REMARK  7 active torsions:
REMARK  status: ('A' for Active; 'I' for Inactive)
REMARK    1  A    between atoms: O1_2  and  C2_3
REMARK    2  A    between atoms: C2_3  and  C3_4
REMARK    3  A    between atoms: C5_8  and  C6_9
REMARK    4  A    between atoms: C7_12  and  C8_13
REMARK    5  A    between atoms: C9_16  and  N1_17
REMARK    6  A    between atoms: C16_24  and  C17_25
REMARK    7  A    between atoms: C17_25  and  O8_26
ROOT
HETATM    1  C2  UNL     1     -17.301 -38.231  18.537  1.00  0.00     0.176 C
HETATM    2  C4  UNL     1     -16.908 -37.075  17.625  1.00  0.00     0.069 C
HETATM    3  C5  UNL     1     -16.155 -37.784  16.496  1.00  0.00     0.114 C
HETATM    4  C7  UNL     1     -16.742 -39.158  16.384  1.00  0.00     0.124 C
HETATM    5  C9  UNL     1     -17.667 -39.243  15.185  1.00  0.00     0.276 C
HETATM    6  C16 UNL     1     -19.041 -39.155  15.783  1.00  0.00     0.180 C
HETATM    7  O9  UNL     1     -18.949 -39.080  17.133  1.00  0.00    -0.371 OA
HETATM    8  C18 UNL     1     -17.663 -39.341  17.535  1.00  0.00     0.190 C
ENDROOT
BRANCH   5   9
HETATM    9  N1  UNL     1     -17.487 -40.402  14.370  1.00  0.00     0.097 N
HETATM   10  C10 UNL     1     -18.447 -41.445  14.519  1.00  0.00     0.273 C
HETATM   11  C11 UNL     1     -18.953 -41.929  13.144  1.00  0.00     0.034 C
HETATM   12  C12 UNL     1     -17.714 -42.298  12.385  1.00  0.00    -0.015 C
HETATM   13  C13 UNL     1     -17.948 -43.181  11.201  1.00  0.00     0.010 C
HETATM   14  C14 UNL     1     -16.929 -41.064  12.072  1.00  0.00     0.034 C
HETATM   15  C15 UNL     1     -17.382 -39.959  12.995  1.00  0.00     0.273 C
ENDBRANCH   5   9
BRANCH   4  16
HETATM   16  C8  UNL     1     -15.683 -40.163  16.318  1.00  0.00     0.188 C
HETATM   17  O6  UNL     1     -15.689 -41.173  17.070  1.00  0.00    -0.647 OA
HETATM   18  O7  UNL     1     -14.622 -40.006  15.393  1.00  0.00    -0.647 OA
ENDBRANCH   4  16
BRANCH   6  19
HETATM   19  C17 UNL     1     -19.860 -38.029  15.238  1.00  0.00     0.198 C
BRANCH  19  20
HETATM   20  O8  UNL     1     -20.650 -37.553  16.303  1.00  0.00    -0.398 OA
ATOM     21  H8  UNL     1     -21.556 -37.664  16.041  1.00  0.00     0.209 HD
ENDBRANCH  19  20
ENDBRANCH   6  19
BRANCH   3  22
HETATM   22  C6  UNL     1     -14.737 -37.681  16.830  1.00  0.00     0.178 C
HETATM   23  O4  UNL     1     -14.052 -38.363  17.604  1.00  0.00    -0.648 OA
HETATM   24  O5  UNL     1     -14.033 -36.642  16.176  1.00  0.00    -0.648 OA
ENDBRANCH   3  22
BRANCH   1  25
HETATM   25  O1  UNL     1     -16.287 -38.706  19.297  1.00  0.00    -0.371 OA
HETATM   26  C1  UNL     1     -15.745 -37.922  20.264  1.00  0.00     0.203 C
ENDBRANCH   1  25
BRANCH   1  27
HETATM   27  C3  UNL     1     -18.502 -37.893  19.317  1.00  0.00     0.212 C
HETATM   28  O2  UNL     1     -19.186 -36.862  19.005  1.00  0.00    -0.646 OA
HETATM   29  O3  UNL     1     -18.880 -38.695  20.375  1.00  0.00    -0.646 OA
ENDBRANCH   1  27
TORSDOF 7
ENDMDL