MODEL 4
REMARK VINA RESULT: -8.244072926      4.749      6.179
REMARK  8 active torsions:
REMARK  status: ('A' for Active; 'I' for Inactive)
REMARK    1  A    between atoms: O1_1  and  C1_3
REMARK    2  A    between atoms: C1_3  and  C6_12
REMARK    3  A    between atoms: C2_4  and  C3_5
REMARK    4  A    between atoms: C3_5  and  C5_9
REMARK    5  A    between atoms: C4_6  and  O2_7
REMARK    6  A    between atoms: C5_9  and  O3_10
REMARK       I    between atoms: N2_18  and  C9_19
REMARK    7  A    between atoms: C9_19  and  O5_21
REMARK    8  A    between atoms: O5_21  and  C10_22
ROOT
HETATM    1  C6  UNL     1     -17.671 -39.585  15.765  1.00  0.00     0.381 C
HETATM    2  N1  UNL     1     -18.198 -40.972  15.531  1.00  0.00    -0.033 N
ATOM      3  H11 UNL     1     -18.873 -41.039  14.770  1.00  0.00     0.281 HD
ATOM      4  H12 UNL     1     -18.820 -41.311  16.265  1.00  0.00     0.281 HD
HETATM    5  C7  UNL     1     -17.024 -41.768  15.345  1.00  0.00     0.255 C
HETATM    6  C8  UNL     1     -16.856 -42.250  13.916  1.00  0.00     0.187 C
HETATM    7  N2  UNL     1     -15.401 -42.249  13.814  1.00  0.00    -0.236 N
HETATM    8  C9  UNL     1     -14.635 -43.095  12.973  1.00  0.00     0.379 C
HETATM    9  O4  UNL     1     -15.222 -43.947  12.222  1.00  0.00    -0.237 OA
HETATM   10  N3  UNL     1     -14.861 -41.297  14.662  1.00  0.00    -0.100 NA
HETATM   11  C20 UNL     1     -15.902 -40.768  15.479  1.00  0.00     0.270 C
HETATM   12  O6  UNL     1     -16.508 -39.618  14.942  1.00  0.00    -0.328 OA
ENDROOT
BRANCH   8  13
HETATM   13  O5  UNL     1     -13.255 -43.053  12.917  1.00  0.00    -0.297 OA
BRANCH  13  14
HETATM   14  C10 UNL     1     -12.532 -42.551  11.831  1.00  0.00     0.142 C
HETATM   15  C11 UNL     1     -13.006 -41.231  11.312  1.00  0.00     0.016 C
HETATM   16  C12 UNL     1     -12.346 -41.003   9.968  1.00  0.00     0.012 C
HETATM   17  C16 UNL     1     -12.612 -40.067  12.199  1.00  0.00     0.012 C
HETATM   18  C13 UNL     1     -10.843 -41.007  10.134  1.00  0.00    -0.013 C
HETATM   19  C14 UNL     1     -10.444 -39.857  11.032  1.00  0.00     0.009 C
HETATM   20  C19 UNL     1     -10.337 -42.271  10.791  1.00  0.00     0.012 C
HETATM   21  C15 UNL     1     -11.110 -40.046  12.384  1.00  0.00    -0.013 C
HETATM   22  C17 UNL     1     -10.691 -41.339  13.036  1.00  0.00     0.012 C
HETATM   23  C18 UNL     1     -11.045 -42.466  12.104  1.00  0.00     0.016 C
ENDBRANCH  13  14
ENDBRANCH   8  13
BRANCH   1  24
HETATM   24  C1  UNL     1     -18.646 -38.625  15.317  1.00  0.00     0.100 C
HETATM   25  C2  UNL     1     -19.666 -37.934  16.015  1.00  0.00     0.047 C
BRANCH  24  26
HETATM   26  O1  UNL     1     -18.568 -38.343  14.036  1.00  0.00    -0.360 OA
ATOM     27  H1  UNL     1     -17.703 -38.089  13.737  1.00  0.00     0.217 HD
ENDBRANCH  24  26
BRANCH  25  28
HETATM   28  C3  UNL     1     -20.159 -37.857  17.188  1.00  0.00    -0.011 C
HETATM   29  C4  UNL     1     -19.640 -37.960  18.529  1.00  0.00     0.140 C
BRANCH  29  30
HETATM   30  O2  UNL     1     -18.351 -38.194  18.799  1.00  0.00    -0.372 OA
ATOM     31  H2  UNL     1     -17.693 -37.509  18.822  1.00  0.00     0.216 HD
ENDBRANCH  29  30
BRANCH  28  32
HETATM   32  C5  UNL     1     -21.697 -37.585  17.217  1.00  0.00     0.204 C
BRANCH  32  33
HETATM   33  O3  UNL     1     -22.260 -38.336  18.241  1.00  0.00    -0.396 OA
ATOM     34  H3  UNL     1     -22.250 -37.818  19.037  1.00  0.00     0.209 HD
ENDBRANCH  32  33
ENDBRANCH  28  32
ENDBRANCH  25  28
ENDBRANCH   1  24
TORSDOF 8
ENDMDL