MODEL 1
REMARK VINA RESULT: -8.724422749      0.000      0.000
REMARK  6 active torsions:
REMARK  status: ('A' for Active; 'I' for Inactive)
REMARK       I    between atoms: C1_2  and  N1_3
REMARK    1  A    between atoms: C1_2  and  C18_29
REMARK    2  A    between atoms: N1_3  and  C2_5
REMARK    3  A    between atoms: C2_5  and  C3_6
REMARK    4  A    between atoms: C2_5  and  C4_9
REMARK       I    between atoms: C4_9  and  N2_11
REMARK    5  A    between atoms: C16_23  and  C17_24
REMARK    6  A    between atoms: C17_24  and  O5_25
ROOT
HETATM    1  C4  UNL     1     -11.297 -38.470  15.121  1.00  0.00     0.253 C
HETATM    2  O4  UNL     1     -10.096 -38.530  15.571  1.00  0.00    -0.270 OA
HETATM    3  N2  UNL     1     -11.640 -39.441  14.180  1.00  0.00    -0.350 N
HETATM    4  C5  UNL     1     -12.927 -39.488  13.546  1.00  0.00     0.129 C
HETATM    5  C6  UNL     1     -12.776 -39.739  12.042  1.00  0.00     0.061 C
HETATM    6  C7  UNL     1     -11.996 -41.013  11.800  1.00  0.00     0.102 C
HETATM    7  C8  UNL     1     -11.426 -41.559  13.084  1.00  0.00     0.061 C
HETATM    8  C9  UNL     1     -10.683 -40.453  13.790  1.00  0.00     0.129 C
HETATM    9  C10 UNL     1     -10.872 -40.806  10.812  1.00  0.00     0.083 C
HETATM   10  C11 UNL     1     -11.309 -41.636   9.627  1.00  0.00     0.105 C
HETATM   11  C12 UNL     1     -11.137 -40.845   8.386  1.00  0.00     0.042 C
HETATM   12  C13 UNL     1      -9.799 -40.856   7.751  1.00  0.00     0.003 C
HETATM   13  C14 UNL     1      -8.728 -41.532   8.554  1.00  0.00     0.001 C
HETATM   14  C15 UNL     1      -9.150 -42.786   9.219  1.00  0.00     0.010 C
HETATM   15  C16 UNL     1     -10.577 -42.919   9.579  1.00  0.00     0.047 C
HETATM   16  O6  UNL     1     -12.671 -41.795   9.882  1.00  0.00    -0.228 OA
HETATM   17  O7  UNL     1     -12.790 -41.975  11.174  1.00  0.00    -0.229 OA
ENDROOT
BRANCH   1  18
HETATM   18  C2  UNL     1     -12.198 -37.422  15.599  1.00  0.00     0.278 C
BRANCH  18  19
HETATM   19  N1  UNL     1     -11.530 -36.457  16.478  1.00  0.00    -0.339 N
HETATM   20  C1  UNL     1     -11.886 -35.119  16.656  1.00  0.00     0.223 C
HETATM   21  O1  UNL     1     -12.846 -34.593  16.066  1.00  0.00    -0.273 OA
ATOM     22  H1  UNL     1     -10.728 -36.796  17.010  1.00  0.00     0.163 HD
BRANCH  20  23
HETATM   23  C18 UNL     1     -11.095 -34.247  17.593  1.00  0.00     0.078 A
HETATM   24  C19 UNL     1     -11.833 -33.587  18.750  1.00  0.00     0.015 A
HETATM   25  C20 UNL     1     -10.912 -34.699  19.000  1.00  0.00     0.015 A
ENDBRANCH  20  23
ENDBRANCH  18  19
BRANCH  18  26
HETATM   26  C3  UNL     1     -13.356 -38.003  16.305  1.00  0.00     0.206 C
HETATM   27  O2  UNL     1     -14.490 -37.495  16.170  1.00  0.00    -0.646 OA
HETATM   28  O3  UNL     1     -13.240 -39.091  17.117  1.00  0.00    -0.646 OA
ENDBRANCH  18  26
ENDBRANCH   1  18
BRANCH  15  29
HETATM   29  C17 UNL     1     -11.269 -43.970   8.737  1.00  0.00     0.172 C
BRANCH  29  30
HETATM   30  O5  UNL     1     -12.337 -44.517   9.438  1.00  0.00    -0.400 OA
ATOM     31  H5  UNL     1     -12.878 -45.037   8.855  1.00  0.00     0.209 HD
ENDBRANCH  29  30
ENDBRANCH  15  29
TORSDOF 6
ENDMDL