MODEL 1
REMARK VINA RESULT: -7.944102064      0.000      0.000
REMARK  11 active torsions:
REMARK  status: ('A' for Active; 'I' for Inactive)
REMARK    1  A    between atoms: C2_2  and  N1_5
REMARK    2  A    between atoms: N1_5  and  C5_7
REMARK    3  A    between atoms: C5_7  and  O1_9
REMARK    4  A    between atoms: O1_9  and  C6_10
REMARK    5  A    between atoms: C6_10  and  C7_12
REMARK    6  A    between atoms: C7_12  and  C8_13
REMARK    7  A    between atoms: C9_15  and  C10_16
REMARK       I    between atoms: C10_16  and  N2_18
REMARK    8  A    between atoms: N2_18  and  C11_20
REMARK    9  A    between atoms: C11_20  and  C12_21
REMARK   10  A    between atoms: C17_27  and  O6_28
REMARK   11  A    between atoms: C18_30  and  O7_31
ROOT
HETATM    1  C8  UNL     1     -18.794 -38.515  17.974  1.00  0.00     0.163 C
HETATM    2  O3  UNL     1     -17.737 -38.493  17.079  1.00  0.00    -0.365 OA
HETATM    3  C9  UNL     1     -16.852 -37.526  17.502  1.00  0.00     0.245 C
HETATM    4  C17 UNL     1     -16.945 -37.442  19.000  1.00  0.00     0.187 C
HETATM    5  C18 UNL     1     -18.249 -38.129  19.322  1.00  0.00     0.179 C
ENDROOT
BRANCH   1   6
HETATM    6  C7  UNL     1     -19.834 -37.538  17.523  1.00  0.00     0.146 C
BRANCH   6   7
HETATM    7  C6  UNL     1     -20.611 -38.145  16.409  1.00  0.00     0.268 C
HETATM    8  O2  UNL     1     -21.689 -38.793  16.644  1.00  0.00    -0.265 OA
BRANCH   7   9
HETATM    9  O1  UNL     1     -20.244 -38.064  15.080  1.00  0.00    -0.251 OA
BRANCH   9  10
HETATM   10  C5  UNL     1     -20.371 -39.186  14.250  1.00  0.00     0.218 C
HETATM   11  S1  UNL     1     -21.053 -38.883  12.785  1.00  0.00    -0.033 SA
BRANCH  10  12
HETATM   12  N1  UNL     1     -19.962 -40.479  14.612  1.00  0.00    -0.353 N
ATOM     13  H1  UNL     1     -20.632 -41.063  15.112  1.00  0.00     0.163 HD
BRANCH  12  14
HETATM   14  C2  UNL     1     -18.673 -41.037  14.330  1.00  0.00     0.022 C
HETATM   15  C1  UNL     1     -17.683 -40.019  13.828  1.00  0.00     0.037 C
HETATM   16  C3  UNL     1     -18.801 -42.110  13.242  1.00  0.00     0.037 C
HETATM   17  C4  UNL     1     -18.062 -41.671  15.583  1.00  0.00     0.037 C
ENDBRANCH  12  14
ENDBRANCH  10  12
ENDBRANCH   9  10
ENDBRANCH   7   9
ENDBRANCH   6   7
ENDBRANCH   1   6
BRANCH   5  18
HETATM   18  O7  UNL     1     -18.089 -39.237  20.131  1.00  0.00    -0.390 OA
ATOM     19  H7  UNL     1     -18.873 -39.773  20.137  1.00  0.00     0.210 HD
ENDBRANCH   5  18
BRANCH   3  20
HETATM   20  C10 UNL     1     -15.511 -37.758  16.991  1.00  0.00     0.249 C
HETATM   21  O4  UNL     1     -15.348 -38.606  16.057  1.00  0.00    -0.271 OA
HETATM   22  N2  UNL     1     -14.388 -37.087  17.487  1.00  0.00    -0.358 N
ATOM     23  H2  UNL     1     -14.504 -36.405  18.236  1.00  0.00     0.162 HD
BRANCH  22  24
HETATM   24  C11 UNL     1     -13.069 -37.340  16.959  1.00  0.00     0.129 C
BRANCH  24  25
HETATM   25  C12 UNL     1     -12.082 -36.305  17.442  1.00  0.00     0.027 C
HETATM   26  C13 UNL     1     -12.539 -35.676  18.756  1.00  0.00     0.010 C
HETATM   27  C14 UNL     1     -11.330 -34.864  19.237  1.00  0.00     0.027 C
HETATM   28  C15 UNL     1     -10.661 -34.227  18.041  1.00  0.00     0.167 C
HETATM   29  O5  UNL     1     -11.517 -34.009  16.990  1.00  0.00    -0.391 OA
HETATM   30  C16 UNL     1     -12.069 -35.140  16.440  1.00  0.00     0.173 C
ENDBRANCH  24  25
ENDBRANCH  22  24
ENDBRANCH   3  20
BRANCH   4  31
HETATM   31  O6  UNL     1     -16.902 -36.125  19.460  1.00  0.00    -0.390 OA
ATOM     32  H6  UNL     1     -17.683 -35.887  19.944  1.00  0.00     0.210 HD
ENDBRANCH   4  31
TORSDOF 11
ENDMDL