MODEL 5
REMARK VINA RESULT: -7.498596640      1.603      2.059
REMARK  5 active torsions:
REMARK  status: ('A' for Active; 'I' for Inactive)
REMARK    1  A    between atoms: C2_2  and  N1_3
REMARK       I    between atoms: N1_3  and  C3_5
REMARK       I    between atoms: C3_5  and  N2_7
REMARK    2  A    between atoms: N2_7  and  C4_9
REMARK    3  A    between atoms: C4_9  and  C5_10
REMARK    4  A    between atoms: C16_28  and  C17_29
REMARK    5  A    between atoms: C17_29  and  N5_30
ROOT
HETATM    1  C5  UNL     1     -16.074 -40.568  13.205  1.00  0.00     0.035 C
HETATM    2  C6  UNL     1     -16.248 -41.276  14.504  1.00  0.00     0.009 C
HETATM    3  C7  UNL     1     -15.815 -40.394  15.686  1.00  0.00     0.002 C
HETATM    4  C8  UNL     1     -17.032 -39.592  16.065  1.00  0.00     0.027 C
HETATM    5  C9  UNL     1     -16.764 -38.537  17.090  1.00  0.00     0.232 C
HETATM    6  N3  UNL     1     -17.972 -38.231  17.872  1.00  0.00    -0.075 N
ATOM      7  H31 UNL     1     -17.831 -37.523  18.593  1.00  0.00     0.277 HD
ATOM      8  H32 UNL     1     -18.258 -38.981  18.502  1.00  0.00     0.277 HD
HETATM    9  C10 UNL     1     -18.986 -37.872  16.873  1.00  0.00     0.234 C
HETATM   10  C11 UNL     1     -20.345 -37.681  17.502  1.00  0.00     0.046 C
HETATM   11  C12 UNL     1     -21.390 -38.181  16.527  1.00  0.00     0.115 C
HETATM   12  N4  UNL     1     -20.994 -38.070  15.158  1.00  0.00    -0.421 N
ATOM     13  H4  UNL     1     -20.671 -37.192  14.749  1.00  0.00     0.153 HD
HETATM   14  C13 UNL     1     -21.086 -39.285  14.404  1.00  0.00     0.123 C
HETATM   15  C14 UNL     1     -20.058 -39.315  13.274  1.00  0.00     0.130 C
HETATM   16  C15 UNL     1     -19.686 -40.718  12.943  1.00  0.00     0.260 C
HETATM   17  O2  UNL     1     -20.666 -41.450  12.638  1.00  0.00    -0.265 OA
HETATM   18  O3  UNL     1     -18.380 -41.073  12.998  1.00  0.00    -0.314 OA
HETATM   19  C16 UNL     1     -17.273 -40.727  12.272  1.00  0.00     0.165 C
ENDROOT
BRANCH   1  20
HETATM   20  C4  UNL     1     -14.792 -40.963  12.513  1.00  0.00     0.131 C
BRANCH  20  21
HETATM   21  N2  UNL     1     -13.867 -39.856  12.426  1.00  0.00    -0.343 N
HETATM   22  C3  UNL     1     -12.846 -39.671  13.393  1.00  0.00     0.316 C
HETATM   23  N1  UNL     1     -11.946 -38.591  13.307  1.00  0.00    -0.344 N
HETATM   24  O1  UNL     1     -12.753 -40.480  14.331  1.00  0.00    -0.247 OA
ATOM     25  H1  UNL     1     -12.022 -37.924  12.539  1.00  0.00     0.164 HD
ATOM     26  H2  UNL     1     -13.951 -39.195  11.653  1.00  0.00     0.164 HD
BRANCH  23  27
HETATM   27  C2  UNL     1     -10.917 -38.428  14.305  1.00  0.00     0.120 C
HETATM   28  C1  UNL     1     -11.449 -37.666  15.508  1.00  0.00     0.026 C
ENDBRANCH  23  27
ENDBRANCH  20  21
ENDBRANCH   1  20
BRANCH  19  29
HETATM   29  C17 UNL     1     -17.344 -39.519  11.424  1.00  0.00     0.305 C
BRANCH  29  30
HETATM   30  N5  UNL     1     -17.786 -39.733  10.077  1.00  0.00     0.095 N
HETATM   31  C18 UNL     1     -16.772 -39.141   9.206  1.00  0.00     0.298 C
HETATM   32  C19 UNL     1     -15.648 -40.104   8.951  1.00  0.00     0.198 C
HETATM   33  O4  UNL     1     -16.119 -41.071   8.060  1.00  0.00    -0.388 OA
HETATM   34  C20 UNL     1     -17.448 -41.390   8.302  1.00  0.00     0.198 C
HETATM   35  C21 UNL     1     -17.843 -41.132   9.744  1.00  0.00     0.298 C
ENDBRANCH  29  30
ENDBRANCH  19  29
TORSDOF 5
ENDMDL