MODEL 4
REMARK VINA RESULT: -7.479635583      5.933     10.046
REMARK  8 active torsions:
REMARK  status: ('A' for Active; 'I' for Inactive)
REMARK    1  A    between atoms: N1_2  and  C2_5
REMARK    2  A    between atoms: C2_5  and  C3_6
REMARK    3  A    between atoms: C3_6  and  N2_7
REMARK       I    between atoms: N2_7  and  C4_9
REMARK    4  A    between atoms: C4_9  and  C5_11
REMARK    5  A    between atoms: C7_14  and  O3_15
REMARK    6  A    between atoms: C14_23  and  O4_24
REMARK    7  A    between atoms: O4_24  and  C15_25
REMARK    8  A    between atoms: C21_32  and  O6_33
ROOT
HETATM    1  C5  UNL     1     -12.678 -38.541  16.085  1.00  0.00     0.242 C
HETATM    2  O2  UNL     1     -13.588 -39.234  15.295  1.00  0.00    -0.366 OA
HETATM    3  C6  UNL     1     -13.162 -39.208  14.002  1.00  0.00     0.156 C
HETATM    4  C7  UNL     1     -13.816 -40.282  13.123  1.00  0.00     0.152 C
HETATM    5  C8  UNL     1     -12.876 -40.288  11.979  1.00  0.00     0.026 C
HETATM    6  C9  UNL     1     -11.485 -40.294  12.631  1.00  0.00    -0.001 C
HETATM    7  C10 UNL     1     -10.579 -39.639  11.668  1.00  0.00     0.006 C
HETATM    8  C11 UNL     1     -10.974 -40.075  10.263  1.00  0.00     0.012 C
HETATM    9  C12 UNL     1     -11.650 -41.404  10.215  1.00  0.00    -0.013 C
HETATM   10  C13 UNL     1     -10.743 -42.575  10.400  1.00  0.00     0.018 C
HETATM   11  C14 UNL     1     -12.530 -41.598   9.005  1.00  0.00     0.141 C
HETATM   12  C17 UNL     1     -13.700 -41.101   9.797  1.00  0.00     0.039 C
HETATM   13  C18 UNL     1     -12.931 -41.439  11.057  1.00  0.00     0.005 C
HETATM   14  C19 UNL     1     -11.704 -39.691  13.934  1.00  0.00     0.024 C
HETATM   15  C20 UNL     1     -10.852 -38.561  14.357  1.00  0.00     0.042 C
HETATM   16  C21 UNL     1     -11.717 -37.695  15.288  1.00  0.00     0.157 C
ENDROOT
BRANCH   1  17
HETATM   17  C4  UNL     1     -13.463 -37.615  16.938  1.00  0.00     0.249 C
HETATM   18  N2  UNL     1     -13.157 -37.360  18.290  1.00  0.00    -0.357 N
ATOM     19  H2  UNL     1     -12.360 -37.824  18.725  1.00  0.00     0.162 HD
HETATM   20  O1  UNL     1     -14.445 -37.037  16.417  1.00  0.00    -0.271 OA
BRANCH  18  21
HETATM   21  C3  UNL     1     -13.962 -36.450  19.061  1.00  0.00     0.150 C
BRANCH  21  22
HETATM   22  C2  UNL     1     -13.119 -35.309  19.537  1.00  0.00     0.251 C
BRANCH  22  23
HETATM   23  N1  UNL     1     -11.748 -35.402  19.041  1.00  0.00    -0.077 N
HETATM   24  C1  UNL     1     -10.829 -34.912  20.039  1.00  0.00     0.267 C
ATOM     25  H12 UNL     1     -11.632 -34.925  18.147  1.00  0.00     0.276 HD
ATOM     26  H11 UNL     1     -11.515 -36.347  18.737  1.00  0.00     0.276 HD
ENDBRANCH  22  23
ENDBRANCH  21  22
ENDBRANCH  18  21
ENDBRANCH   1  17
BRANCH  16  27
HETATM   27  O6  UNL     1     -10.895 -37.035  16.179  1.00  0.00    -0.392 OA
ATOM     28  H6  UNL     1     -10.590 -36.239  15.759  1.00  0.00     0.210 HD
ENDBRANCH  16  27
BRANCH   4  29
HETATM   29  O3  UNL     1     -13.899 -41.490  13.796  1.00  0.00    -0.393 OA
ATOM     30  H3  UNL     1     -14.631 -42.006  13.479  1.00  0.00     0.210 HD
ENDBRANCH   4  29
BRANCH  11  31
HETATM   31  O4  UNL     1     -12.183 -40.811   7.884  1.00  0.00    -0.316 OA
BRANCH  31  32
HETATM   32  C15 UNL     1     -13.039 -40.804   6.790  1.00  0.00     0.255 C
HETATM   33  C16 UNL     1     -13.829 -39.572   6.464  1.00  0.00     0.126 C
HETATM   34  O5  UNL     1     -13.138 -41.842   6.087  1.00  0.00    -0.266 OA
ENDBRANCH  31  32
ENDBRANCH  11  31
TORSDOF 8
ENDMDL