MODEL 5
REMARK VINA RESULT: -7.295167423      2.857      7.091
REMARK  7 active torsions:
REMARK  status: ('A' for Active; 'I' for Inactive)
REMARK       I    between atoms: C2_2  and  N1_4
REMARK    1  A    between atoms: N1_4  and  C3_6
REMARK    2  A    between atoms: C5_8  and  C6_9
REMARK    3  A    between atoms: C6_9  and  C7_11
REMARK    4  A    between atoms: C10_14  and  O3_15
REMARK    5  A    between atoms: C11_17  and  O4_18
REMARK    6  A    between atoms: C12_20  and  N2_21
REMARK    7  A    between atoms: C19_29  and  C20_30
ROOT
HETATM    1  C3  UNL     1     -19.916 -38.635  16.154  1.00  0.00     0.124 C
HETATM    2  C4  UNL     1     -18.872 -38.195  17.175  1.00  0.00     0.045 C
HETATM    3  C5  UNL     1     -17.515 -38.788  16.914  1.00  0.00     0.117 C
HETATM    4  C12 UNL     1     -17.605 -39.616  15.644  1.00  0.00     0.371 C
HETATM    5  O5  UNL     1     -18.127 -38.921  14.573  1.00  0.00    -0.338 OA
HETATM    6  C19 UNL     1     -19.335 -38.309  14.800  1.00  0.00     0.247 C
ENDROOT
BRANCH   3   7
HETATM    7  C6  UNL     1     -16.407 -37.828  16.891  1.00  0.00     0.142 C
HETATM    8  O2  UNL     1     -16.712 -36.714  16.395  1.00  0.00    -0.297 OA
BRANCH   7   9
HETATM    9  C7  UNL     1     -15.049 -37.970  17.346  1.00  0.00     0.087 C
HETATM   10  C8  UNL     1     -14.613 -37.052  18.473  1.00  0.00     0.017 C
HETATM   11  C9  UNL     1     -13.094 -37.261  18.504  1.00  0.00     0.035 C
HETATM   12  C10 UNL     1     -12.761 -38.109  17.272  1.00  0.00     0.147 C
HETATM   13  C11 UNL     1     -13.942 -37.680  16.359  1.00  0.00     0.158 C
BRANCH  12  14
HETATM   14  O3  UNL     1     -11.572 -37.737  16.682  1.00  0.00    -0.393 OA
ATOM     15  H3  UNL     1     -11.617 -36.874  16.286  1.00  0.00     0.210 HD
ENDBRANCH  12  14
BRANCH  13  16
HETATM   16  O4  UNL     1     -13.736 -36.299  16.227  1.00  0.00    -0.392 OA
ATOM     17  H4  UNL     1     -14.494 -35.812  16.530  1.00  0.00     0.210 HD
ENDBRANCH  13  16
ENDBRANCH   7   9
ENDBRANCH   3   7
BRANCH   4  18
HETATM   18  N2  UNL     1     -16.345 -40.158  15.254  1.00  0.00     0.118 N
HETATM   19  C13 UNL     1     -15.965 -41.263  16.069  1.00  0.00     0.276 C
HETATM   20  C14 UNL     1     -14.728 -41.967  15.611  1.00  0.00     0.030 C
HETATM   21  C15 UNL     1     -14.813 -42.691  14.329  1.00  0.00     0.002 C
HETATM   22  C16 UNL     1     -16.196 -42.906  13.795  1.00  0.00     0.002 C
HETATM   23  C17 UNL     1     -16.936 -41.660  13.463  1.00  0.00     0.030 C
HETATM   24  C18 UNL     1     -16.204 -40.397  13.858  1.00  0.00     0.276 C
ENDBRANCH   4  18
BRANCH   1  25
HETATM   25  N1  UNL     1     -21.055 -37.749  16.344  1.00  0.00    -0.354 N
HETATM   26  C2  UNL     1     -21.855 -37.816  17.506  1.00  0.00     0.214 C
HETATM   27  C1  UNL     1     -23.020 -36.909  17.701  1.00  0.00     0.117 C
HETATM   28  O1  UNL     1     -21.554 -38.671  18.382  1.00  0.00    -0.274 OA
ATOM     29  H1  UNL     1     -21.280 -37.064  15.622  1.00  0.00     0.162 HD
ENDBRANCH   1  25
BRANCH   6  30
HETATM   30  C20 UNL     1     -20.314 -38.656  13.751  1.00  0.00     0.205 C
HETATM   31  O6  UNL     1     -21.120 -39.598  13.980  1.00  0.00    -0.646 OA
HETATM   32  O7  UNL     1     -20.412 -38.017  12.526  1.00  0.00    -0.646 OA
ENDBRANCH   6  30
TORSDOF 7
ENDMDL