MODEL 3
REMARK VINA RESULT: -6.764950434      4.855      8.254
REMARK  9 active torsions:
REMARK  status: ('A' for Active; 'I' for Inactive)
REMARK    1  A    between atoms: C2_2  and  C3_3
REMARK    2  A    between atoms: C3_3  and  C4_4
REMARK    3  A    between atoms: C6_8  and  O2_9
REMARK    4  A    between atoms: N2_11  and  C7_12
REMARK    5  A    between atoms: C10_16  and  O4_17
REMARK    6  A    between atoms: C11_19  and  O5_20
REMARK    7  A    between atoms: C12_22  and  O6_23
REMARK    8  A    between atoms: C13_25  and  S1_26
REMARK    9  A    between atoms: S1_26  and  C14_27
ROOT
HETATM    1  C4  UNL     1     -12.194 -39.888  13.085  1.00  0.00     0.094 C
HETATM    2  C5  UNL     1     -13.568 -40.162  13.642  1.00  0.00     0.231 C
HETATM    3  O1  UNL     1     -14.346 -39.208  13.868  1.00  0.00    -0.273 OA
HETATM    4  N1  UNL     1     -14.063 -41.479  13.939  1.00  0.00    -0.264 N
HETATM    5  C6  UNL     1     -14.925 -41.706  15.082  1.00  0.00     0.339 C
HETATM    6  N2  UNL     1     -14.913 -43.136  15.260  1.00  0.00    -0.304 N
HETATM    7  C9  UNL     1     -14.531 -43.700  14.026  1.00  0.00     0.282 C
HETATM    8  O3  UNL     1     -14.771 -44.905  13.686  1.00  0.00    -0.268 OA
HETATM    9  C10 UNL     1     -13.808 -42.667  13.195  1.00  0.00     0.252 C
HETATM   10  C11 UNL     1     -12.397 -43.105  13.100  1.00  0.00     0.214 C
HETATM   11  C12 UNL     1     -11.406 -42.224  12.489  1.00  0.00     0.166 C
HETATM   12  C13 UNL     1     -11.854 -40.865  12.016  1.00  0.00     0.092 C
ENDROOT
BRANCH  12  13
HETATM   13  S1  UNL     1     -10.554 -40.258  10.943  1.00  0.00    -0.156 SA
BRANCH  13  14
HETATM   14  C14 UNL     1     -10.314 -41.084   9.403  1.00  0.00     0.048 C
HETATM   15  C15 UNL     1      -9.867 -40.157   8.321  1.00  0.00     0.015 C
HETATM   16  C16 UNL     1      -8.879 -40.851   7.384  1.00  0.00     0.001 C
HETATM   17  C17 UNL     1      -9.349 -42.278   7.145  1.00  0.00     0.000 C
HETATM   18  C18 UNL     1      -9.161 -43.087   8.428  1.00  0.00     0.001 C
HETATM   19  C19 UNL     1      -9.209 -42.138   9.608  1.00  0.00     0.015 C
ENDBRANCH  13  14
ENDBRANCH  12  13
BRANCH   1  20
HETATM   20  C3  UNL     1     -11.240 -39.776  14.213  1.00  0.00     0.015 C
BRANCH  20  21
HETATM   21  C2  UNL     1     -10.954 -38.336  14.546  1.00  0.00    -0.004 C
HETATM   22  C1  UNL     1     -11.681 -37.830  15.756  1.00  0.00     0.005 C
ENDBRANCH  20  21
ENDBRANCH   1  20
BRANCH  11  23
HETATM   23  O6  UNL     1     -10.210 -42.064  13.184  1.00  0.00    -0.392 OA
ATOM     24  H6  UNL     1      -9.414 -42.104  12.667  1.00  0.00     0.210 HD
ENDBRANCH  11  23
BRANCH  10  25
HETATM   25  O5  UNL     1     -11.965 -43.448  14.401  1.00  0.00    -0.387 OA
ATOM     26  H5  UNL     1     -11.190 -42.933  14.593  1.00  0.00     0.210 HD
ENDBRANCH  10  25
BRANCH   9  27
HETATM   27  O4  UNL     1     -14.479 -42.694  11.965  1.00  0.00    -0.361 OA
ATOM     28  H4  UNL     1     -15.286 -43.193  11.996  1.00  0.00     0.213 HD
ENDBRANCH   9  27
BRANCH   5  29
HETATM   29  O2  UNL     1     -14.529 -41.062  16.227  1.00  0.00    -0.359 OA
ATOM     30  H2  UNL     1     -13.683 -41.338  16.560  1.00  0.00     0.214 HD
ENDBRANCH   5  29
BRANCH   6  31
HETATM   31  C7  UNL     1     -15.237 -43.859  16.493  1.00  0.00     0.126 C
HETATM   32  C8  UNL     1     -16.707 -43.820  16.740  1.00  0.00     0.026 C
ENDBRANCH   6  31
TORSDOF 9
ENDMDL