MODEL 4
REMARK VINA RESULT: -7.806869723      2.246      3.839
REMARK  8 active torsions:
REMARK  status: ('A' for Active; 'I' for Inactive)
REMARK    1  A    between atoms: O1_1  and  C1_3
REMARK    2  A    between atoms: C4_6  and  N1_7
REMARK    3  A    between atoms: N1_7  and  C5_8
REMARK    4  A    between atoms: N3_13  and  C7_14
REMARK    5  A    between atoms: C11_18  and  N4_19
REMARK    6  A    between atoms: N4_19  and  C12_21
REMARK    7  A    between atoms: C12_21  and  C13_22
REMARK    8  A    between atoms: C13_22  and  N5_23
ROOT
HETATM    1  C5  UNL     1     -14.813 -37.570  17.527  1.00  0.00     0.270 A
HETATM    2  N2  UNL     1     -15.843 -37.034  18.237  1.00  0.00    -0.292 N
ATOM      3  H2  UNL     1     -15.652 -36.331  18.951  1.00  0.00     0.172 HD
HETATM    4  C6  UNL     1     -17.106 -37.421  18.006  1.00  0.00     0.197 A
HETATM    5  S1  UNL     1     -18.289 -36.732  18.894  1.00  0.00    -0.040 SA
HETATM    6  N3  UNL     1     -17.421 -38.336  17.083  1.00  0.00    -0.153 N
HETATM    7  C11 UNL     1     -16.396 -38.876  16.370  1.00  0.00     0.686 A
HETATM    8  N7  UNL     1     -15.127 -38.496  16.594  1.00  0.00    -0.149 N
ATOM      9  H7  UNL     1     -14.380 -38.918  16.043  1.00  0.00     0.188 HD
ENDROOT
BRANCH   7  10
HETATM   10  N4  UNL     1     -16.605 -39.762  15.460  1.00  0.00    -0.224 N
ATOM     11  H4  UNL     1     -17.575 -39.965  15.220  1.00  0.00     0.177 HD
BRANCH  10  12
HETATM   12  C12 UNL     1     -15.595 -40.484  14.757  1.00  0.00     0.168 C
BRANCH  12  13
HETATM   13  C13 UNL     1     -16.074 -40.764  13.354  1.00  0.00     0.292 C
BRANCH  13  14
HETATM   14  N5  UNL     1     -17.507 -40.583  13.224  1.00  0.00     0.093 N
HETATM   15  C14 UNL     1     -17.730 -39.655  12.132  1.00  0.00     0.300 C
HETATM   16  C15 UNL     1     -19.198 -39.487  11.828  1.00  0.00     0.262 C
HETATM   17  N6  UNL     1     -20.015 -40.436  12.557  1.00  0.00    -0.072 N
HETATM   18  C16 UNL     1     -19.468 -41.754  12.340  1.00  0.00     0.262 C
ATOM     19  H62 UNL     1     -20.102 -40.203  13.547  1.00  0.00     0.277 HD
ATOM     20  H61 UNL     1     -21.003 -40.374  12.314  1.00  0.00     0.277 HD
HETATM   21  C17 UNL     1     -18.098 -41.872  12.976  1.00  0.00     0.300 C
ENDBRANCH  13  14
ENDBRANCH  12  13
ENDBRANCH  10  12
ENDBRANCH   7  10
BRANCH   6  22
HETATM   22  C7  UNL     1     -18.747 -38.778  16.801  1.00  0.00     0.110 C
HETATM   23  C8  UNL     1     -19.876 -38.043  17.502  1.00  0.00     0.026 C
HETATM   24  C9  UNL     1     -20.693 -38.246  16.218  1.00  0.00     0.004 C
HETATM   25  C10 UNL     1     -19.349 -38.315  15.484  1.00  0.00     0.026 C
ENDBRANCH   6  22
BRANCH   1  26
HETATM   26  N1  UNL     1     -13.686 -37.229  17.725  1.00  0.00    -0.409 NA
BRANCH  26  27
HETATM   27  C4  UNL     1     -12.508 -36.637  17.913  1.00  0.00     0.167 C
HETATM   28  C3  UNL     1     -12.507 -35.538  18.980  1.00  0.00     0.042 C
HETATM   29  C2  UNL     1     -11.284 -34.689  18.867  1.00  0.00     0.035 C
HETATM   30  C1  UNL     1     -11.282 -33.839  17.612  1.00  0.00     0.118 C
HETATM   31  C19 UNL     1     -12.161 -34.531  16.586  1.00  0.00     0.035 C
HETATM   32  C18 UNL     1     -11.835 -36.029  16.681  1.00  0.00     0.042 C
BRANCH  30  33
HETATM   33  O1  UNL     1     -11.771 -32.556  17.835  1.00  0.00    -0.396 OA
ATOM     34  H1  UNL     1     -11.079 -31.922  17.981  1.00  0.00     0.210 HD
ENDBRANCH  30  33
ENDBRANCH  26  27
ENDBRANCH   1  26
TORSDOF 8
ENDMDL