MODEL 5
REMARK VINA RESULT: -7.900938504      2.236      7.661
REMARK  9 active torsions:
REMARK  status: ('A' for Active; 'I' for Inactive)
REMARK    1  A    between atoms: O1_2  and  C2_3
REMARK    2  A    between atoms: C2_3  and  C3_4
REMARK    3  A    between atoms: N1_8  and  N2_9
REMARK    4  A    between atoms: N2_9  and  C7_11
REMARK    5  A    between atoms: C8_14  and  N4_15
REMARK    6  A    between atoms: N4_15  and  C9_17
REMARK    7  A    between atoms: C14_24  and  N6_25
REMARK    8  A    between atoms: N6_25  and  C15_27
REMARK    9  A    between atoms: C20_32  and  O2_34
ROOT
HETATM    1  C7  UNL     1     -14.352 -38.944  16.302  1.00  0.00     0.725 A
HETATM    2  N3  UNL     1     -15.614 -38.597  16.592  1.00  0.00    -0.020 N
ATOM      3  H3  UNL     1     -16.387 -39.110  16.169  1.00  0.00     0.203 HD
HETATM    4  C8  UNL     1     -15.878 -37.569  17.446  1.00  0.00     0.707 A
HETATM    5  N5  UNL     1     -14.834 -36.919  17.982  1.00  0.00    -0.021 N
ATOM      6  H5  UNL     1     -15.018 -36.147  18.622  1.00  0.00     0.203 HD
HETATM    7  C14 UNL     1     -13.541 -37.239  17.713  1.00  0.00     0.707 A
HETATM    8  N7  UNL     1     -13.344 -38.261  16.864  1.00  0.00    -0.020 N
ATOM      9  H7  UNL     1     -12.386 -38.529  16.638  1.00  0.00     0.203 HD
ENDROOT
BRANCH   7  10
HETATM   10  N6  UNL     1     -12.564 -36.594  18.242  1.00  0.00    -0.217 N
ATOM     11  H6  UNL     1     -12.455 -36.648  19.255  1.00  0.00     0.178 HD
BRANCH  10  12
HETATM   12  C15 UNL     1     -11.606 -35.796  17.506  1.00  0.00     0.133 C
HETATM   13  C16 UNL     1     -12.089 -35.368  16.170  1.00  0.00     0.029 C
HETATM   14  C17 UNL     1     -12.559 -33.980  16.029  1.00  0.00     0.002 C
HETATM   15  C18 UNL     1     -11.909 -32.964  16.891  1.00  0.00     0.003 C
HETATM   16  C19 UNL     1     -12.017 -33.468  18.335  1.00  0.00     0.040 C
HETATM   17  C20 UNL     1     -11.124 -34.675  18.385  1.00  0.00     0.075 C
HETATM   18  C21 UNL     1     -10.941 -35.095  19.800  1.00  0.00     0.048 C
BRANCH  17  19
HETATM   19  O2  UNL     1      -9.874 -34.282  17.887  1.00  0.00    -0.388 OA
ATOM     20  H2  UNL     1      -9.872 -34.489  16.960  1.00  0.00     0.210 HD
ENDBRANCH  17  19
ENDBRANCH  10  12
ENDBRANCH   7  10
BRANCH   4  21
HETATM   21  N4  UNL     1     -17.099 -37.248  17.712  1.00  0.00    -0.220 N
ATOM     22  H4  UNL     1     -17.302 -36.322  18.088  1.00  0.00     0.178 HD
BRANCH  21  23
HETATM   23  C9  UNL     1     -18.164 -38.158  17.491  1.00  0.00     0.099 C
HETATM   24  C10 UNL     1     -19.344 -37.988  18.411  1.00  0.00     0.026 C
HETATM   25  C11 UNL     1     -20.560 -37.737  17.580  1.00  0.00     0.002 C
HETATM   26  C12 UNL     1     -20.165 -38.332  16.223  1.00  0.00     0.002 C
HETATM   27  C13 UNL     1     -18.745 -37.838  16.113  1.00  0.00     0.026 C
ENDBRANCH  21  23
ENDBRANCH   4  21
BRANCH   1  28
HETATM   28  N2  UNL     1     -14.204 -39.915  15.497  1.00  0.00    -0.133 N
ATOM     29  H2  UNL     1     -14.760 -40.745  15.699  1.00  0.00     0.205 HD
BRANCH  28  30
HETATM   30  N1  UNL     1     -13.389 -39.998  14.381  1.00  0.00    -0.307 N
HETATM   31  C3  UNL     1     -13.657 -40.777  13.190  1.00  0.00     0.126 C
HETATM   32  C4  UNL     1     -12.846 -40.155  12.071  1.00  0.00     0.030 C
HETATM   33  C5  UNL     1     -12.200 -38.944  12.708  1.00  0.00     0.024 C
HETATM   34  C6  UNL     1     -12.110 -39.354  14.156  1.00  0.00     0.143 C
BRANCH  31  35
HETATM   35  C2  UNL     1     -13.295 -42.231  13.376  1.00  0.00     0.193 C
BRANCH  35  36
HETATM   36  O1  UNL     1     -13.613 -42.735  14.622  1.00  0.00    -0.394 OA
HETATM   37  C1  UNL     1     -14.746 -43.522  14.651  1.00  0.00     0.201 C
ENDBRANCH  35  36
ENDBRANCH  31  35
ENDBRANCH  28  30
ENDBRANCH   1  28
TORSDOF 9
ENDMDL