MODEL 1
REMARK VINA RESULT: -7.630779476      0.000      0.000
REMARK  8 active torsions:
REMARK  status: ('A' for Active; 'I' for Inactive)
REMARK    1  A    between atoms: C2_2  and  C3_3
REMARK       I    between atoms: C3_3  and  N1_5
REMARK    2  A    between atoms: C4_7  and  C5_8
REMARK    3  A    between atoms: C5_8  and  N2_9
REMARK    4  A    between atoms: C11_16  and  O3_17
REMARK    5  A    between atoms: C12_19  and  O4_20
REMARK    6  A    between atoms: C13_22  and  C14_23
REMARK    7  A    between atoms: C17_27  and  O6_28
REMARK    8  A    between atoms: C19_31  and  O7_32
ROOT
HETATM    1  N2  UNL     1     -16.825 -38.971  16.751  1.00  0.00    -0.386 N
HETATM    2  C6  UNL     1     -18.177 -38.846  16.971  1.00  0.00     0.091 C
HETATM    3  C7  UNL     1     -19.147 -39.186  15.904  1.00  0.00     0.175 C
HETATM    4  O2  UNL     1     -19.263 -38.178  14.911  1.00  0.00    -0.366 OA
HETATM    5  C8  UNL     1     -19.585 -38.789  13.712  1.00  0.00     0.087 C
HETATM    6  C9  UNL     1     -20.983 -38.263  13.355  1.00  0.00     0.049 C
HETATM    7  C10 UNL     1     -18.636 -38.636  12.586  1.00  0.00     0.075 C
HETATM    8  C11 UNL     1     -17.795 -39.805  12.202  1.00  0.00     0.156 C
HETATM    9  C12 UNL     1     -16.994 -40.463  13.313  1.00  0.00     0.100 C
HETATM   10  C13 UNL     1     -17.215 -41.966  13.328  1.00  0.00     0.095 C
HETATM   11  C16 UNL     1     -18.245 -42.422  14.259  1.00  0.00     0.163 C
HETATM   12  O5  UNL     1     -18.845 -43.454  14.024  1.00  0.00    -0.295 OA
HETATM   13  C17 UNL     1     -18.622 -41.671  15.523  1.00  0.00     0.202 C
HETATM   14  C18 UNL     1     -18.626 -40.289  15.079  1.00  0.00     0.060 C
HETATM   15  C19 UNL     1     -19.731 -40.236  14.005  1.00  0.00     0.167 C
HETATM   16  C20 UNL     1     -17.301 -39.778  14.565  1.00  0.00     0.058 C
HETATM   17  C21 UNL     1     -16.324 -39.775  15.681  1.00  0.00     0.131 C
ENDROOT
BRANCH   1  18
HETATM   18  C5  UNL     1     -15.977 -37.894  17.169  1.00  0.00     0.166 C
BRANCH  18  19
HETATM   19  C4  UNL     1     -14.557 -38.095  16.861  1.00  0.00     0.083 C
HETATM   20  N1  UNL     1     -13.550 -37.528  17.387  1.00  0.00    -0.339 N
HETATM   21  C3  UNL     1     -13.467 -36.569  18.383  1.00  0.00     0.220 C
ATOM     22  H1  UNL     1     -12.650 -37.829  17.012  1.00  0.00     0.167 HD
HETATM   23  O1  UNL     1     -14.301 -36.535  19.318  1.00  0.00    -0.273 OA
BRANCH  21  24
HETATM   24  C2  UNL     1     -12.399 -35.511  18.432  1.00  0.00     0.098 C
HETATM   25  C1  UNL     1     -12.430 -34.735  19.715  1.00  0.00     0.014 C
ENDBRANCH  21  24
ENDBRANCH  18  19
ENDBRANCH   1  18
BRANCH   9  26
HETATM   26  O4  UNL     1     -15.636 -40.327  12.941  1.00  0.00    -0.386 OA
ATOM     27  H4  UNL     1     -15.132 -40.551  13.714  1.00  0.00     0.210 HD
ENDBRANCH   9  26
BRANCH  13  28
HETATM   28  O6  UNL     1     -17.871 -42.037  16.600  1.00  0.00    -0.387 OA
ATOM     29  H6  UNL     1     -18.267 -41.789  17.427  1.00  0.00     0.210 HD
ENDBRANCH  13  28
BRANCH  15  30
HETATM   30  O7  UNL     1     -20.933 -40.478  14.696  1.00  0.00    -0.392 OA
ATOM     31  H7  UNL     1     -21.083 -41.412  14.782  1.00  0.00     0.210 HD
ENDBRANCH  15  30
BRANCH   8  32
HETATM   32  O3  UNL     1     -16.944 -39.297  11.185  1.00  0.00    -0.392 OA
ATOM     33  H3  UNL     1     -16.284 -39.972  11.079  1.00  0.00     0.210 HD
ENDBRANCH   8  32
BRANCH  10  34
HETATM   34  C14 UNL     1     -15.977 -42.770  13.550  1.00  0.00     0.011 C
HETATM   35  C15 UNL     1     -15.770 -43.748  12.411  1.00  0.00     0.006 C
ENDBRANCH  10  34
TORSDOF 8
ENDMDL