MODEL 1
REMARK VINA RESULT: -7.565962333      0.000      0.000
REMARK  10 active torsions:
REMARK  status: ('A' for Active; 'I' for Inactive)
REMARK    1  A    between atoms: N1_2  and  C2_4
REMARK    2  A    between atoms: C3_7  and  C4_8
REMARK    3  A    between atoms: C4_8  and  C5_9
REMARK    4  A    between atoms: C4_8  and  C11_18
REMARK    5  A    between atoms: C6_10  and  S1_11
REMARK    6  A    between atoms: S1_11  and  C7_12
REMARK    7  A    between atoms: C9_14  and  C10_15
REMARK    8  A    between atoms: C10_15  and  O1_16
REMARK    9  A    between atoms: C16_27  and  N5_28
REMARK   10  A    between atoms: N5_28  and  C17_30
ROOT
HETATM    1  C2  UNL     1      13.493 -39.272 -14.869  1.00  0.00     0.679 A
HETATM    2  N2  UNL     1      14.642 -39.773 -15.323  1.00  0.00    -0.191 N
ATOM      3  H2  UNL     1      14.995 -40.649 -14.937  1.00  0.00     0.184 HD
HETATM    4  C3  UNL     1      15.350 -39.136 -16.291  1.00  0.00     0.090 A
HETATM    5  C15 UNL     1      14.866 -37.975 -16.792  1.00  0.00     0.185 A
HETATM    6  F1  UNL     1      15.531 -37.274 -17.771  1.00  0.00    -0.200 F
HETATM    7  C16 UNL     1      13.652 -37.431 -16.324  1.00  0.00     0.158 A
HETATM    8  N7  UNL     1      13.018 -38.117 -15.371  1.00  0.00    -0.174 N
ATOM      9  H7  UNL     1      12.137 -37.751 -15.008  1.00  0.00     0.186 HD
ENDROOT
BRANCH   4  10
HETATM   10  C4  UNL     1      16.630 -39.678 -16.793  1.00  0.00     0.170 C
BRANCH  10  11
HETATM   11  C5  UNL     1      16.539 -41.138 -16.709  1.00  0.00    -0.077 C
HETATM   12  C6  UNL     1      16.472 -42.357 -16.612  1.00  0.00    -0.033 C
BRANCH  12  13
HETATM   13  S1  UNL     1      16.433 -44.087 -16.464  1.00  0.00    -0.073 SA
BRANCH  13  14
HETATM   14  C7  UNL     1      16.997 -44.740 -14.923  1.00  0.00     0.067 A
HETATM   15  C8  UNL     1      16.685 -43.985 -13.676  1.00  0.00     0.024 A
HETATM   16  C9  UNL     1      18.143 -44.278 -14.121  1.00  0.00     0.025 A
BRANCH  16  17
HETATM   17  C10 UNL     1      18.952 -43.055 -14.427  1.00  0.00     0.170 C
BRANCH  17  18
HETATM   18  O1  UNL     1      19.817 -43.284 -15.519  1.00  0.00    -0.400 OA
ATOM     19  H1  UNL     1      20.270 -42.486 -15.765  1.00  0.00     0.209 HD
ENDBRANCH  17  18
ENDBRANCH  16  17
ENDBRANCH  13  14
ENDBRANCH  12  13
ENDBRANCH  10  11
BRANCH  10  20
HETATM   20  C11 UNL     1      17.825 -39.155 -16.123  1.00  0.00     0.049 A
HETATM   21  C12 UNL     1      18.141 -39.410 -14.801  1.00  0.00     0.115 A
HETATM   22  N3  UNL     1      19.292 -38.767 -14.544  1.00  0.00    -0.360 N
HETATM   23  C13 UNL     1      19.693 -38.119 -15.678  1.00  0.00     0.182 A
ATOM     24  H3  UNL     1      19.785 -38.762 -13.651  1.00  0.00     0.166 HD
HETATM   25  N4  UNL     1      18.794 -38.368 -16.615  1.00  0.00    -0.348 N
HETATM   26  C14 UNL     1      18.824 -37.874 -17.980  1.00  0.00     0.157 C
ENDBRANCH  10  20
ENDBRANCH   4  10
BRANCH   1  27
HETATM   27  N1  UNL     1      12.830 -39.906 -13.934  1.00  0.00    -0.230 N
HETATM   28  C1  UNL     1      12.158 -39.171 -12.896  1.00  0.00     0.165 C
ATOM     29  H1  UNL     1      12.791 -40.925 -13.942  1.00  0.00     0.177 HD
ENDBRANCH   1  27
BRANCH   7  30
HETATM   30  N5  UNL     1      13.243 -36.365 -16.820  1.00  0.00    -0.369 N
ATOM     31  H5  UNL     1      13.702 -35.573 -16.368  1.00  0.00     0.161 HD
BRANCH  30  32
HETATM   32  C17 UNL     1      12.360 -35.911 -17.791  1.00  0.00     0.086 C
HETATM   33  C18 UNL     1      11.628 -34.630 -17.376  1.00  0.00     0.052 C
HETATM   34  C19 UNL     1      10.557 -34.351 -18.391  1.00  0.00     0.234 C
HETATM   35  N6  UNL     1      10.991 -34.524 -19.756  1.00  0.00    -0.075 N
HETATM   36  C20 UNL     1      12.443 -34.457 -19.832  1.00  0.00     0.234 C
ATOM     37  H62 UNL     1      10.627 -35.385 -20.166  1.00  0.00     0.277 HD
ATOM     38  H61 UNL     1      10.544 -33.858 -20.387  1.00  0.00     0.277 HD
HETATM   39  C21 UNL     1      12.968 -35.721 -19.149  1.00  0.00     0.052 C
ENDBRANCH  30  32
ENDBRANCH   7  30
TORSDOF 10
ENDMDL