MODEL 2
REMARK VINA RESULT: -6.760166789      3.701      5.347
REMARK  8 active torsions:
REMARK  status: ('A' for Active; 'I' for Inactive)
REMARK    1  A    between atoms: N1_1  and  C1_5
REMARK    2  A    between atoms: C1_5  and  C2_6
REMARK    3  A    between atoms: C2_6  and  O1_7
REMARK    4  A    between atoms: C2_6  and  C3_9
REMARK    5  A    between atoms: C2_6  and  C10_26
REMARK       I    between atoms: C3_9  and  N2_11
REMARK    6  A    between atoms: N2_11  and  C4_13
REMARK    7  A    between atoms: C7_18  and  O3_19
REMARK    8  A    between atoms: C7_18  and  C8_21
ROOT
HETATM    1  C3  UNL     1      12.769 -37.897 -16.568  1.00  0.00     0.254 C
HETATM    2  O2  UNL     1      12.547 -38.998 -17.130  1.00  0.00    -0.270 OA
HETATM    3  N2  UNL     1      12.592 -37.763 -15.170  1.00  0.00    -0.351 N
ATOM      4  H2  UNL     1      12.774 -36.866 -14.719  1.00  0.00     0.163 HD
ENDROOT
BRANCH   1   5
HETATM    5  C2  UNL     1      13.221 -36.721 -17.358  1.00  0.00     0.165 C
BRANCH   5   6
HETATM    6  C1  UNL     1      14.259 -37.097 -18.386  1.00  0.00     0.277 C
BRANCH   6   7
HETATM    7  N1  UNL     1      15.465 -37.613 -17.768  1.00  0.00    -0.076 N
ATOM      8  H13 UNL     1      15.263 -38.057 -16.872  1.00  0.00     0.274 HD
ATOM      9  H12 UNL     1      15.822 -38.425 -18.272  1.00  0.00     0.274 HD
ATOM     10  H11 UNL     1      16.180 -36.892 -17.673  1.00  0.00     0.274 HD
ENDBRANCH   6   7
ENDBRANCH   5   6
BRANCH   5  11
HETATM   11  O1  UNL     1      13.751 -35.739 -16.544  1.00  0.00    -0.378 OA
ATOM     12  H1  UNL     1      13.757 -34.921 -17.028  1.00  0.00     0.211 HD
ENDBRANCH   5  11
BRANCH   5  13
HETATM   13  C10 UNL     1      12.016 -36.188 -18.095  1.00  0.00     0.031 C
HETATM   14  C11 UNL     1      11.315 -35.098 -17.324  1.00  0.00     0.008 C
HETATM   15  C12 UNL     1      10.551 -34.351 -18.376  1.00  0.00     0.001 C
HETATM   16  C13 UNL     1      11.115 -34.750 -19.716  1.00  0.00     0.001 C
HETATM   17  C14 UNL     1      12.411 -35.464 -19.369  1.00  0.00     0.008 C
ENDBRANCH   5  13
ENDBRANCH   1   5
BRANCH   3  18
HETATM   18  C4  UNL     1      12.158 -38.882 -14.384  1.00  0.00     0.114 A
HETATM   19  C5  UNL     1      12.217 -38.741 -12.859  1.00  0.00     0.088 A
HETATM   20  S1  UNL     1      10.833 -39.376 -11.976  1.00  0.00    -0.140 SA
HETATM   21  C9  UNL     1      13.115 -39.646 -13.529  1.00  0.00     0.090 A
HETATM   22  C6  UNL     1      10.779 -41.136 -11.752  1.00  0.00     0.175 C
HETATM   23 BR1  UNL     1       9.734 -41.652 -10.193  1.00  0.00    -0.075 Br
HETATM   24  C7  UNL     1      12.136 -41.776 -11.737  1.00  0.00     0.218 C
HETATM   25  S2  UNL     1      12.954 -41.393 -13.281  1.00  0.00    -0.110 SA
BRANCH  24  26
HETATM   26  O3  UNL     1      11.930 -43.160 -11.671  1.00  0.00    -0.368 OA
ATOM     27  H3  UNL     1      11.502 -43.413 -12.480  1.00  0.00     0.212 HD
ENDBRANCH  24  26
BRANCH  24  28
HETATM   28  C8  UNL     1      12.888 -41.383 -10.531  1.00  0.00     0.222 C
HETATM   29  O4  UNL     1      12.590 -41.844  -9.377  1.00  0.00    -0.645 OA
HETATM   30  O5  UNL     1      13.946 -40.506 -10.571  1.00  0.00    -0.645 OA
ENDBRANCH  24  28
ENDBRANCH   3  18
TORSDOF 8
ENDMDL