MODEL 3
REMARK VINA RESULT: -6.960459493      3.982      8.176
REMARK  8 active torsions:
REMARK  status: ('A' for Active; 'I' for Inactive)
REMARK    1  A    between atoms: N2_6  and  C4_8
REMARK    2  A    between atoms: C9_14  and  C10_15
REMARK    3  A    between atoms: C10_15  and  O1_16
REMARK    4  A    between atoms: C11_20  and  N5_21
REMARK    5  A    between atoms: N5_21  and  C12_23
REMARK    6  A    between atoms: N7_27  and  C14_28
REMARK    7  A    between atoms: C14_28  and  C15_29
REMARK    8  A    between atoms: C15_29  and  O2_30
ROOT
HETATM    1  C4  UNL     1      12.229 -36.127 -18.031  1.00  0.00     0.123 C
HETATM    2  C5  UNL     1      12.195 -35.563 -19.460  1.00  0.00     0.116 C
HETATM    3  C6  UNL     1      10.811 -35.334 -19.875  1.00  0.00     0.066 C
HETATM    4  N3  UNL     1       9.734 -35.149 -20.214  1.00  0.00    -0.197 NA
HETATM    5  C7  UNL     1      12.880 -34.217 -19.336  1.00  0.00     0.022 C
HETATM    6  C8  UNL     1      12.325 -33.698 -18.055  1.00  0.00     0.010 C
HETATM    7  C9  UNL     1      12.166 -34.901 -17.165  1.00  0.00     0.034 C
ENDROOT
BRANCH   1   8
HETATM    8  N2  UNL     1      13.465 -36.848 -17.877  1.00  0.00    -0.220 N
HETATM    9  C3  UNL     1      13.619 -37.703 -16.929  1.00  0.00     0.680 A
HETATM   10  N1  UNL     1      12.706 -38.026 -16.004  1.00  0.00    -0.195 N
HETATM   11  N4  UNL     1      14.813 -38.368 -16.822  1.00  0.00    -0.175 N
HETATM   12  C2  UNL     1      12.885 -38.919 -15.025  1.00  0.00     0.043 A
ATOM     13  H1  UNL     1      11.803 -37.554 -16.050  1.00  0.00     0.184 HD
HETATM   14  C1  UNL     1      11.821 -39.236 -14.020  1.00  0.00     0.070 C
HETATM   15  C17 UNL     1      14.089 -39.572 -14.938  1.00  0.00     0.078 A
HETATM   16  C11 UNL     1      15.072 -39.275 -15.873  1.00  0.00     0.141 A
HETATM   17 BR1  UNL     1      14.393 -40.857 -13.556  1.00  0.00    -0.045 Br
ATOM     18  H4  UNL     1      15.544 -38.160 -17.503  1.00  0.00     0.186 HD
ATOM     19  H2  UNL     1      14.231 -36.679 -18.530  1.00  0.00     0.178 HD
BRANCH  16  20
HETATM   20  N5  UNL     1      16.206 -39.885 -15.795  1.00  0.00    -0.339 N
ATOM     21  H5  UNL     1      16.247 -40.885 -15.597  1.00  0.00     0.167 HD
BRANCH  20  22
HETATM   22  C12 UNL     1      17.384 -39.146 -15.990  1.00  0.00     0.068 A
HETATM   23  C13 UNL     1      18.169 -38.594 -15.006  1.00  0.00     0.138 A
HETATM   24  N6  UNL     1      19.188 -37.977 -15.612  1.00  0.00    -0.308 N
HETATM   25  N7  UNL     1      19.061 -38.128 -16.935  1.00  0.00    -0.299 N
ATOM     26  H6  UNL     1      19.941 -37.474 -15.142  1.00  0.00     0.186 HD
HETATM   27  C16 UNL     1      17.961 -38.843 -17.220  1.00  0.00     0.141 A
BRANCH  25  28
HETATM   28  C14 UNL     1      19.997 -37.582 -17.895  1.00  0.00     0.174 C
BRANCH  28  29
HETATM   29  C15 UNL     1      21.386 -37.669 -17.290  1.00  0.00     0.185 C
BRANCH  29  30
HETATM   30  O2  UNL     1      22.175 -38.399 -18.197  1.00  0.00    -0.399 OA
ATOM     31  H2  UNL     1      22.780 -37.782 -18.590  1.00  0.00     0.209 HD
ENDBRANCH  29  30
ENDBRANCH  28  29
ENDBRANCH  25  28
ENDBRANCH  20  22
ENDBRANCH  16  20
ENDBRANCH   1   8
BRANCH   7  32
HETATM   32  C10 UNL     1      10.836 -34.742 -16.443  1.00  0.00     0.170 C
BRANCH  32  33
HETATM   33  O1  UNL     1       9.990 -34.065 -17.321  1.00  0.00    -0.400 OA
ATOM     34  H1  UNL     1      10.530 -33.784 -18.050  1.00  0.00     0.209 HD
ENDBRANCH  32  33
ENDBRANCH   7  32
TORSDOF 8
ENDMDL