MODEL 4
REMARK VINA RESULT: -7.019763559      3.101      6.233
REMARK  11 active torsions:
REMARK  status: ('A' for Active; 'I' for Inactive)
REMARK    1  A    between atoms: O1_2  and  C2_3
REMARK    2  A    between atoms: C5_6  and  O2_7
REMARK    3  A    between atoms: C6_9  and  C7_10
REMARK    4  A    between atoms: C7_10  and  O3_11
REMARK    5  A    between atoms: C7_10  and  C8_13
REMARK    6  A    between atoms: C8_13  and  O4_14
REMARK    7  A    between atoms: C9_16  and  C10_17
REMARK    8  A    between atoms: C10_17  and  C11_18
REMARK    9  A    between atoms: C11_18  and  C12_19
REMARK   10  A    between atoms: C12_19  and  N1_20
REMARK   11  A    between atoms: C20_29  and  O6_31
ROOT
HETATM    1  C2  UNL     1      17.571 -40.480 -15.293  1.00  0.00     0.149 C
HETATM    2  C3  UNL     1      16.265 -39.848 -15.469  1.00  0.00    -0.002 A
HETATM    3  C4  UNL     1      15.291 -40.444 -14.773  1.00  0.00    -0.011 A
HETATM    4  C5  UNL     1      13.972 -39.935 -14.897  1.00  0.00     0.086 A
HETATM    5  C6  UNL     1      13.756 -38.828 -15.748  1.00  0.00     0.039 A
HETATM    6  C9  UNL     1      14.797 -38.225 -16.473  1.00  0.00    -0.017 A
HETATM    7  C17 UNL     1      16.079 -38.770 -16.301  1.00  0.00    -0.037 A
HETATM    8  C18 UNL     1      17.256 -38.160 -16.942  1.00  0.00     0.043 C
HETATM    9  C19 UNL     1      18.587 -38.417 -16.216  1.00  0.00     0.045 C
HETATM   10  C20 UNL     1      18.533 -39.321 -15.054  1.00  0.00     0.093 C
HETATM   11  C21 UNL     1      19.937 -39.899 -14.846  1.00  0.00     0.049 C
HETATM   12  C22 UNL     1      15.879 -41.556 -13.967  1.00  0.00     0.083 C
HETATM   13  C23 UNL     1      17.385 -41.265 -14.036  1.00  0.00     0.216 C
HETATM   14  F1  UNL     1      18.063 -42.447 -14.074  1.00  0.00    -0.245 F
ENDROOT
BRANCH   6  15
HETATM   15  C10 UNL     1      14.587 -37.345 -17.386  1.00  0.00    -0.012 C
BRANCH  15  16
HETATM   16  C11 UNL     1      14.059 -37.252 -18.729  1.00  0.00     0.047 C
BRANCH  16  17
HETATM   17  C12 UNL     1      13.627 -35.773 -19.043  1.00  0.00     0.120 C
BRANCH  17  18
HETATM   18  N1  UNL     1      12.379 -35.448 -18.466  1.00  0.00    -0.408 N
HETATM   19  C13 UNL     1      11.251 -35.340 -19.315  1.00  0.00     0.143 C
HETATM   20  C14 UNL     1      10.371 -34.177 -18.905  1.00  0.00     0.187 C
HETATM   21  O5  UNL     1      10.035 -34.177 -17.576  1.00  0.00    -0.388 OA
HETATM   22  C15 UNL     1      10.974 -34.676 -16.711  1.00  0.00     0.187 C
HETATM   23  C16 UNL     1      12.387 -34.656 -17.287  1.00  0.00     0.143 C
ENDBRANCH  17  18
ENDBRANCH  16  17
ENDBRANCH  15  16
ENDBRANCH   6  15
BRANCH   5  24
HETATM   24  C7  UNL     1      12.535 -38.337 -15.791  1.00  0.00     0.080 C
BRANCH  24  25
HETATM   25  O3  UNL     1      11.643 -38.653 -16.803  1.00  0.00    -0.362 OA
ATOM     26  H3  UNL     1      10.733 -38.867 -16.631  1.00  0.00     0.217 HD
ENDBRANCH  24  25
BRANCH  24  27
HETATM   27  C8  UNL     1      11.941 -37.396 -14.787  1.00  0.00     0.229 C
BRANCH  27  28
HETATM   28  O4  UNL     1      10.653 -37.659 -14.444  1.00  0.00    -0.394 OA
ATOM     29  H4  UNL     1      10.545 -38.225 -13.689  1.00  0.00     0.209 HD
ENDBRANCH  27  28
ENDBRANCH  24  27
ENDBRANCH   5  24
BRANCH   4  30
HETATM   30  O2  UNL     1      13.072 -40.574 -14.179  1.00  0.00    -0.359 OA
ATOM     31  H2  UNL     1      13.121 -41.520 -14.239  1.00  0.00     0.217 HD
ENDBRANCH   4  30
BRANCH   1  32
HETATM   32  O1  UNL     1      18.032 -41.162 -16.380  1.00  0.00    -0.374 OA
HETATM   33  C1  UNL     1      17.234 -42.120 -16.930  1.00  0.00     0.203 C
ENDBRANCH   1  32
BRANCH  10  34
HETATM   34  O6  UNL     1      18.094 -38.673 -13.904  1.00  0.00    -0.387 OA
ATOM     35  H6  UNL     1      18.870 -38.345 -13.466  1.00  0.00     0.210 HD
ENDBRANCH  10  34
TORSDOF 11
ENDMDL