MODEL 3
REMARK VINA RESULT: -7.383868444      1.577      2.698
REMARK  9 active torsions:
REMARK  status: ('A' for Active; 'I' for Inactive)
REMARK    1  A    between atoms: C2_2  and  C3_3
REMARK    2  A    between atoms: C3_3  and  C4_4
REMARK    3  A    between atoms: N1_7  and  C7_8
REMARK    4  A    between atoms: C7_8  and  C8_9
REMARK    5  A    between atoms: C9_11  and  C10_12
REMARK    6  A    between atoms: C10_12  and  O2_13
REMARK    7  A    between atoms: C11_15  and  O3_16
REMARK    8  A    between atoms: C12_18  and  O4_19
REMARK    9  A    between atoms: C13_21  and  O5_22
ROOT
HETATM    1  C8  UNL     1      13.863 -39.017 -15.572  1.00  0.00     0.171 C
HETATM    2  O1  UNL     1      13.452 -39.576 -14.407  1.00  0.00    -0.371 OA
HETATM    3  C9  UNL     1      12.192 -39.230 -13.983  1.00  0.00     0.176 C
HETATM    4  C11 UNL     1      11.800 -37.816 -14.262  1.00  0.00     0.180 C
HETATM    5  C12 UNL     1      12.111 -37.351 -15.667  1.00  0.00     0.180 C
HETATM    6  C13 UNL     1      12.652 -38.558 -16.400  1.00  0.00     0.180 C
ENDROOT
BRANCH   1   7
HETATM    7  C7  UNL     1      14.749 -39.829 -16.451  1.00  0.00     0.166 C
BRANCH   7   8
HETATM    8  N1  UNL     1      16.115 -39.382 -16.510  1.00  0.00    -0.314 N
HETATM    9  C6  UNL     1      17.012 -39.927 -15.668  1.00  0.00     0.022 A
HETATM   10  C5  UNL     1      18.347 -39.479 -15.697  1.00  0.00    -0.028 A
HETATM   11  C16 UNL     1      16.955 -40.997 -14.639  1.00  0.00     0.058 C
HETATM   12  C4  UNL     1      18.719 -38.488 -16.587  1.00  0.00    -0.027 A
HETATM   13  C18 UNL     1      19.139 -40.229 -14.713  1.00  0.00     0.041 C
HETATM   14  C15 UNL     1      17.765 -37.963 -17.429  1.00  0.00     0.086 A
HETATM   15  C14 UNL     1      16.471 -38.421 -17.375  1.00  0.00     0.266 A
HETATM   16 BR1  UNL     1      18.268 -36.630 -18.690  1.00  0.00    -0.045 Br
HETATM   17  O6  UNL     1      15.640 -37.890 -18.184  1.00  0.00    -0.267 OA
HETATM   18  C17 UNL     1      18.065 -40.614 -13.685  1.00  0.00     0.011 C
BRANCH  12  19
HETATM   19  C3  UNL     1      20.087 -37.966 -16.661  1.00  0.00     0.040 C
BRANCH  19  20
HETATM   20  C2  UNL     1      20.825 -37.980 -15.371  1.00  0.00     0.000 C
HETATM   21  C1  UNL     1      22.339 -38.009 -15.532  1.00  0.00     0.005 C
ENDBRANCH  19  20
ENDBRANCH  12  19
ENDBRANCH   7   8
ENDBRANCH   1   7
BRANCH   6  22
HETATM   22  O5  UNL     1      12.996 -38.294 -17.699  1.00  0.00    -0.390 OA
ATOM     23  H5  UNL     1      12.307 -38.544 -18.303  1.00  0.00     0.210 HD
ENDBRANCH   6  22
BRANCH   3  24
HETATM   24  C10 UNL     1      12.203 -39.389 -12.454  1.00  0.00     0.198 C
BRANCH  24  25
HETATM   25  O2  UNL     1      13.458 -39.752 -12.027  1.00  0.00    -0.398 OA
ATOM     26  H2  UNL     1      13.949 -38.981 -11.767  1.00  0.00     0.209 HD
ENDBRANCH  24  25
ENDBRANCH   3  24
BRANCH   5  27
HETATM   27  O4  UNL     1      11.000 -36.807 -16.302  1.00  0.00    -0.390 OA
ATOM     28  H4  UNL     1      11.054 -35.862 -16.378  1.00  0.00     0.210 HD
ENDBRANCH   5  27
BRANCH   4  29
HETATM   29  O3  UNL     1      10.394 -37.740 -14.125  1.00  0.00    -0.390 OA
ATOM     30  H3  UNL     1      10.145 -36.840 -14.297  1.00  0.00     0.210 HD
ENDBRANCH   4  29
TORSDOF 9
ENDMDL