MODEL 2
REMARK VINA RESULT: -9.420675892      2.801      8.434
REMARK  5 active torsions:
REMARK  status: ('A' for Active; 'I' for Inactive)
REMARK    1  A    between atoms: N1_2  and  C3_4
REMARK    2  A    between atoms: N3_6  and  C4_7
REMARK    3  A    between atoms: C5_12  and  C6_13
REMARK    4  A    between atoms: C8_15  and  C9_16
REMARK    5  A    between atoms: N8_28  and  C16_30
ROOT
HETATM    1  C6  UNL     1      16.457 -39.489 -16.013  1.00  0.00     0.054 A
HETATM    2  C7  UNL     1      17.840 -39.491 -16.033  1.00  0.00     0.028 A
HETATM    3  C8  UNL     1      18.603 -38.432 -16.450  1.00  0.00    -0.037 A
HETATM    4  C14 UNL     1      17.921 -37.314 -16.870  1.00  0.00     0.097 A
HETATM    5  N7  UNL     1      16.569 -37.276 -16.865  1.00  0.00    -0.351 N
ATOM      6  H7  UNL     1      16.093 -36.431 -17.183  1.00  0.00     0.166 HD
HETATM    7  C15 UNL     1      15.827 -38.343 -16.444  1.00  0.00     0.115 A
HETATM    8  N8  UNL     1      14.574 -38.190 -16.480  1.00  0.00    -0.371 N
ATOM      9  H8  UNL     1      14.005 -38.976 -16.166  1.00  0.00     0.161 HD
ENDROOT
BRANCH   1  10
HETATM   10  C5  UNL     1      15.689 -40.633 -15.577  1.00  0.00     0.150 A
HETATM   11  N5  UNL     1      15.668 -41.771 -16.344  1.00  0.00    -0.270 N
HETATM   12  N4  UNL     1      14.900 -42.667 -15.761  1.00  0.00    -0.129 N
ATOM     13  H5  UNL     1      16.166 -41.901 -17.225  1.00  0.00     0.189 HD
HETATM   14  C4  UNL     1      14.397 -42.160 -14.607  1.00  0.00     0.712 A
ATOM     15  H4  UNL     1      14.712 -43.602 -16.122  1.00  0.00     0.205 HD
HETATM   16  N9  UNL     1      14.913 -40.903 -14.536  1.00  0.00    -0.172 N
ATOM     17  H9  UNL     1      14.726 -40.248 -13.776  1.00  0.00     0.186 HD
BRANCH  14  18
HETATM   18  N3  UNL     1      13.528 -42.843 -13.726  1.00  0.00    -0.122 N
HETATM   19  N2  UNL     1      12.440 -42.338 -13.015  1.00  0.00    -0.084 NA
HETATM   20  C3  UNL     1      11.845 -43.412 -12.304  1.00  0.00     0.369 C
HETATM   21  C22 UNL     1      12.986 -44.381 -12.095  1.00  0.00     0.241 C
HETATM   22  C21 UNL     1      13.679 -44.278 -13.439  1.00  0.00     0.204 C
HETATM   23  F1  UNL     1      13.877 -43.836 -11.171  1.00  0.00    -0.244 F
BRANCH  20  24
HETATM   24  N1  UNL     1      11.322 -43.059 -10.999  1.00  0.00     0.104 N
HETATM   25  C1  UNL     1      10.515 -44.144 -10.467  1.00  0.00     0.311 C
HETATM   26  C2  UNL     1      10.466 -41.890 -11.069  1.00  0.00     0.311 C
ENDBRANCH  20  24
ENDBRANCH  14  18
ENDBRANCH   1  10
BRANCH   3  27
HETATM   27  C9  UNL     1      20.068 -38.434 -16.470  1.00  0.00     0.023 C
HETATM   28  C10 UNL     1      20.675 -37.416 -17.406  1.00  0.00     0.037 C
HETATM   29  C11 UNL     1      22.086 -37.918 -17.723  1.00  0.00     0.233 C
HETATM   30  N6  UNL     1      22.585 -38.635 -16.587  1.00  0.00    -0.075 N
HETATM   31  C12 UNL     1      22.176 -38.073 -15.315  1.00  0.00     0.233 C
ATOM     32  H62 UNL     1      22.330 -39.621 -16.644  1.00  0.00     0.277 HD
ATOM     33  H61 UNL     1      23.601 -38.718 -16.633  1.00  0.00     0.277 HD
HETATM   34  C13 UNL     1      20.678 -38.212 -15.105  1.00  0.00     0.037 C
ENDBRANCH   3  27
BRANCH   8  35
HETATM   35  C16 UNL     1      13.873 -37.023 -16.918  1.00  0.00     0.087 C
HETATM   36  C17 UNL     1      13.377 -37.169 -18.354  1.00  0.00     0.051 C
HETATM   37  C18 UNL     1      12.596 -35.917 -18.690  1.00  0.00     0.169 C
HETATM   38  O1  UNL     1      12.455 -35.100 -17.576  1.00  0.00    -0.391 OA
HETATM   39  C19 UNL     1      11.826 -35.754 -16.518  1.00  0.00     0.169 C
HETATM   40  C20 UNL     1      12.586 -36.972 -16.064  1.00  0.00     0.051 C
ENDBRANCH   8  35
TORSDOF 5
ENDMDL