MODEL 1
REMARK VINA RESULT: -7.568576686      0.000      0.000
REMARK  8 active torsions:
REMARK  status: ('A' for Active; 'I' for Inactive)
REMARK    1  A    between atoms: N1_1  and  C1_4
REMARK    2  A    between atoms: N3_7  and  C2_8
REMARK    3  A    between atoms: C4_10  and  O1_11
REMARK    4  A    between atoms: C5_13  and  C6_14
REMARK    5  A    between atoms: C6_14  and  O2_15
REMARK    6  A    between atoms: C7_18  and  C8_19
REMARK    7  A    between atoms: C8_19  and  N4_20
REMARK    8  A    between atoms: N5_23  and  C11_24
ROOT
HETATM    1  C1  UNL     1      20.873 -37.595 -17.286  1.00  0.00     0.133 A
HETATM    2  N2  UNL     1      19.686 -37.604 -17.883  1.00  0.00    -0.280 N
ATOM      3  H2  UNL     1      19.504 -37.242 -18.819  1.00  0.00     0.189 HD
HETATM    4  N3  UNL     1      18.758 -38.157 -17.083  1.00  0.00    -0.262 N
HETATM    5  C7  UNL     1      19.328 -38.536 -15.982  1.00  0.00     0.081 A
HETATM    6  C17 UNL     1      20.710 -38.172 -16.072  1.00  0.00     0.081 A
HETATM    7 BR1  UNL     1      22.057 -38.418 -14.723  1.00  0.00    -0.045 Br
ENDROOT
BRANCH   5   8
HETATM    8  C8  UNL     1      18.895 -39.211 -14.747  1.00  0.00     0.332 C
BRANCH   8   9
HETATM    9  N4  UNL     1      18.599 -40.646 -14.869  1.00  0.00     0.097 N
HETATM   10  C9  UNL     1      19.393 -41.370 -13.868  1.00  0.00     0.303 C
HETATM   11  C10 UNL     1      18.462 -42.205 -13.023  1.00  0.00     0.303 C
HETATM   12  N5  UNL     1      17.818 -41.236 -12.144  1.00  0.00     0.096 N
HETATM   13  C15 UNL     1      16.958 -40.414 -13.009  1.00  0.00     0.303 C
HETATM   14  C16 UNL     1      17.179 -40.798 -14.433  1.00  0.00     0.303 C
BRANCH  12  15
HETATM   15  C11 UNL     1      17.155 -41.700 -11.017  1.00  0.00     0.223 C
HETATM   16  C12 UNL     1      16.289 -40.902 -10.119  1.00  0.00     0.036 C
HETATM   17  C13 UNL     1      17.348 -41.124  -9.004  1.00  0.00     0.004 C
HETATM   18  C14 UNL     1      17.811 -42.333  -9.836  1.00  0.00     0.036 C
ENDBRANCH  12  15
ENDBRANCH   8   9
ENDBRANCH   5   8
BRANCH   4  19
HETATM   19  C2  UNL     1      17.305 -38.070 -17.409  1.00  0.00     0.247 C
HETATM   20  C3  UNL     1      16.886 -39.164 -18.338  1.00  0.00     0.089 C
HETATM   21  C4  UNL     1      17.121 -38.603 -19.709  1.00  0.00     0.153 C
HETATM   22  C5  UNL     1      16.928 -37.137 -19.442  1.00  0.00     0.176 C
HETATM   23  O3  UNL     1      17.089 -36.874 -18.113  1.00  0.00    -0.355 OA
BRANCH  21  24
HETATM   24  O1  UNL     1      18.331 -38.795 -20.308  1.00  0.00    -0.393 OA
ATOM     25  H1  UNL     1      18.370 -39.256 -21.139  1.00  0.00     0.210 HD
ENDBRANCH  21  24
BRANCH  22  26
HETATM   26  C6  UNL     1      15.532 -36.761 -19.897  1.00  0.00     0.198 C
BRANCH  26  27
HETATM   27  O2  UNL     1      14.989 -37.692 -20.794  1.00  0.00    -0.398 OA
ATOM     28  H2  UNL     1      15.057 -37.409 -21.699  1.00  0.00     0.209 HD
ENDBRANCH  26  27
ENDBRANCH  22  26
ENDBRANCH   4  19
BRANCH   1  29
HETATM   29  N1  UNL     1      22.033 -37.186 -17.752  1.00  0.00    -0.383 N
ATOM     30  H12 UNL     1      22.699 -37.793 -18.230  1.00  0.00     0.157 HD
ATOM     31  H11 UNL     1      22.423 -36.244 -17.769  1.00  0.00     0.157 HD
ENDBRANCH   1  29
TORSDOF 8
ENDMDL