MODEL 3
REMARK VINA RESULT: -7.417406656      1.484      1.873
REMARK  9 active torsions:
REMARK  status: ('A' for Active; 'I' for Inactive)
REMARK    1  A    between atoms: C2_2  and  C3_3
REMARK    2  A    between atoms: C4_4  and  C5_5
REMARK    3  A    between atoms: C5_5  and  O1_6
REMARK    4  A    between atoms: C6_8  and  O2_9
REMARK    5  A    between atoms: C7_11  and  O3_12
REMARK    6  A    between atoms: C8_14  and  O4_15
REMARK    7  A    between atoms: O4_15  and  C9_16
REMARK    8  A    between atoms: C21_31  and  C22_32
REMARK    9  A    between atoms: C22_32  and  O7_33
ROOT
HETATM    1  C9  UNL     1      16.621 -40.917 -15.325  1.00  0.00     0.140 C
HETATM    2  C10 UNL     1      15.743 -40.630 -14.116  1.00  0.00     0.022 C
HETATM    3  C11 UNL     1      16.396 -40.982 -12.828  1.00  0.00     0.010 C
HETATM    4  C12 UNL     1      16.232 -42.359 -12.340  1.00  0.00     0.034 C
HETATM    5  C13 UNL     1      16.157 -43.408 -13.424  1.00  0.00     0.102 C
HETATM    6 CL1  UNL     1      16.645 -44.957 -12.655  1.00  0.00    -0.110 Cl
HETATM    7  C14 UNL     1      17.220 -43.082 -14.411  1.00  0.00     0.160 C
HETATM    8  O5  UNL     1      18.373 -43.419 -14.189  1.00  0.00    -0.295 OA
HETATM    9  C15 UNL     1      16.797 -42.350 -15.633  1.00  0.00     0.116 C
HETATM   10  C16 UNL     1      15.654 -43.013 -16.325  1.00  0.00     0.141 C
HETATM   11  O6  UNL     1      16.099 -44.213 -16.925  1.00  0.00    -0.384 OA
HETATM   12  C17 UNL     1      15.492 -45.019 -15.934  1.00  0.00     0.175 C
HETATM   13  C18 UNL     1      14.756 -43.812 -15.473  1.00  0.00     0.046 C
HETATM   14  C19 UNL     1      14.794 -43.502 -14.006  1.00  0.00     0.025 C
HETATM   15  C20 UNL     1      13.908 -42.329 -13.729  1.00  0.00     0.014 C
HETATM   16  C21 UNL     1      14.336 -41.040 -14.294  1.00  0.00     0.016 C
ENDROOT
BRANCH   1  17
HETATM   17  O4  UNL     1      16.111 -40.239 -16.434  1.00  0.00    -0.376 OA
BRANCH  17  18
HETATM   18  C8  UNL     1      16.512 -38.903 -16.415  1.00  0.00     0.161 C
HETATM   19  C3  UNL     1      17.833 -38.835 -17.187  1.00  0.00     0.048 C
HETATM   20  C4  UNL     1      17.352 -38.624 -18.588  1.00  0.00     0.051 C
HETATM   21  C6  UNL     1      16.302 -37.555 -18.422  1.00  0.00     0.156 C
HETATM   22  C7  UNL     1      15.573 -38.016 -17.171  1.00  0.00     0.176 C
BRANCH  19  23
HETATM   23  C2  UNL     1      18.572 -37.670 -16.651  1.00  0.00    -0.029 C
HETATM   24  C1  UNL     1      19.721 -37.861 -16.046  1.00  0.00     0.007 C
ENDBRANCH  19  23
BRANCH  20  25
HETATM   25  C5  UNL     1      18.460 -38.202 -19.526  1.00  0.00     0.172 C
BRANCH  25  26
HETATM   26  O1  UNL     1      18.444 -38.964 -20.672  1.00  0.00    -0.400 OA
ATOM     27  H1  UNL     1      17.861 -38.583 -21.319  1.00  0.00     0.209 HD
ENDBRANCH  25  26
ENDBRANCH  20  25
BRANCH  21  28
HETATM   28  O2  UNL     1      15.408 -37.534 -19.513  1.00  0.00    -0.392 OA
ATOM     29  H2  UNL     1      15.049 -36.666 -19.652  1.00  0.00     0.210 HD
ENDBRANCH  21  28
BRANCH  22  30
HETATM   30  O3  UNL     1      15.187 -36.926 -16.395  1.00  0.00    -0.390 OA
ATOM     31  H3  UNL     1      15.660 -36.143 -16.651  1.00  0.00     0.210 HD
ENDBRANCH  22  30
ENDBRANCH  17  18
ENDBRANCH   1  17
BRANCH  16  32
HETATM   32  C22 UNL     1      13.387 -39.966 -13.734  1.00  0.00     0.169 C
BRANCH  32  33
HETATM   33  O7  UNL     1      13.556 -38.815 -14.501  1.00  0.00    -0.400 OA
ATOM     34  H7  UNL     1      13.177 -38.090 -14.018  1.00  0.00     0.209 HD
ENDBRANCH  32  33
ENDBRANCH  16  32
TORSDOF 9
ENDMDL