MODEL 5
REMARK VINA RESULT: -6.934193414      1.894      2.912
REMARK  9 active torsions:
REMARK  status: ('A' for Active; 'I' for Inactive)
REMARK    1  A    between atoms: C2_2  and  C3_3
REMARK    2  A    between atoms: C3_3  and  C4_4
REMARK    3  A    between atoms: C5_5  and  O1_6
REMARK    4  A    between atoms: C7_9  and  O2_10
REMARK    5  A    between atoms: C8_12  and  O3_13
REMARK    6  A    between atoms: C9_15  and  N1_16
REMARK       I    between atoms: N1_16  and  C10_18
REMARK    7  A    between atoms: C10_18  and  C11_20
REMARK    8  A    between atoms: C18_29  and  O6_30
REMARK    9  A    between atoms: O6_30  and  C19_31
ROOT
HETATM    1  N1  UNL     1      15.907 -39.331 -15.830  1.00  0.00    -0.353 N
ATOM      2  H1  UNL     1      16.518 -38.922 -15.123  1.00  0.00     0.163 HD
HETATM    3  C10 UNL     1      14.893 -40.215 -15.412  1.00  0.00     0.226 C
HETATM    4  O4  UNL     1      14.141 -40.721 -16.265  1.00  0.00    -0.273 OA
ENDROOT
BRANCH   1   5
HETATM    5  C9  UNL     1      16.119 -38.977 -17.217  1.00  0.00     0.122 C
HETATM    6  C4  UNL     1      17.596 -38.785 -17.422  1.00  0.00     0.043 C
HETATM    7  C5  UNL     1      17.826 -38.354 -18.858  1.00  0.00     0.127 C
HETATM    8  C6  UNL     1      17.174 -37.004 -19.026  1.00  0.00     0.066 C
HETATM    9  C7  UNL     1      15.682 -37.115 -18.838  1.00  0.00     0.151 C
HETATM   10  C8  UNL     1      15.306 -37.768 -17.537  1.00  0.00     0.170 C
BRANCH   6  11
HETATM   11  C3  UNL     1      18.241 -37.850 -16.441  1.00  0.00     0.035 C
BRANCH  11  12
HETATM   12  C2  UNL     1      19.698 -37.841 -16.724  1.00  0.00    -0.036 C
HETATM   13  C1  UNL     1      20.627 -37.960 -15.805  1.00  0.00     0.007 C
ENDBRANCH  11  12
ENDBRANCH   6  11
BRANCH   7  14
HETATM   14  O1  UNL     1      17.174 -39.254 -19.678  1.00  0.00    -0.395 OA
ATOM     15  H1  UNL     1      17.802 -39.575 -20.314  1.00  0.00     0.210 HD
ENDBRANCH   7  14
BRANCH   9  16
HETATM   16  O2  UNL     1      15.164 -37.776 -19.942  1.00  0.00    -0.393 OA
ATOM     17  H2  UNL     1      14.291 -37.436 -20.099  1.00  0.00     0.210 HD
ENDBRANCH   9  16
BRANCH  10  18
HETATM   18  O3  UNL     1      15.330 -36.876 -16.470  1.00  0.00    -0.391 OA
ATOM     19  H3  UNL     1      14.860 -37.205 -15.712  1.00  0.00     0.210 HD
ENDBRANCH  10  18
ENDBRANCH   1   5
BRANCH   3  20
HETATM   20  C11 UNL     1      14.736 -40.529 -13.988  1.00  0.00     0.129 C
HETATM   21  C12 UNL     1      13.956 -41.816 -13.780  1.00  0.00     0.107 C
HETATM   22 CL1  UNL     1      14.191 -42.951 -15.113  1.00  0.00    -0.123 Cl
HETATM   23  C13 UNL     1      14.472 -42.420 -12.513  1.00  0.00     0.070 C
HETATM   24  C14 UNL     1      15.693 -41.646 -12.085  1.00  0.00     0.161 C
HETATM   25  C15 UNL     1      13.854 -41.956 -11.234  1.00  0.00     0.062 C
HETATM   26  O5  UNL     1      14.947 -41.114 -11.054  1.00  0.00    -0.372 OA
HETATM   27  C18 UNL     1      15.992 -40.659 -13.210  1.00  0.00     0.175 C
HETATM   28  C16 UNL     1      12.524 -41.285 -11.315  1.00  0.00     0.046 C
HETATM   29  C17 UNL     1      13.797 -43.106 -10.232  1.00  0.00     0.046 C
BRANCH  27  30
HETATM   30  O6  UNL     1      17.072 -41.133 -13.964  1.00  0.00    -0.313 OA
BRANCH  30  31
HETATM   31  C19 UNL     1      18.304 -40.463 -13.926  1.00  0.00     0.255 C
HETATM   32  C20 UNL     1      19.579 -41.180 -14.177  1.00  0.00     0.126 C
HETATM   33  O7  UNL     1      18.326 -39.237 -13.679  1.00  0.00    -0.266 OA
ENDBRANCH  30  31
ENDBRANCH  27  30
ENDBRANCH   3  20
TORSDOF 9
ENDMDL