MODEL 1
REMARK VINA RESULT: -9.138506593      0.000      0.000
REMARK  8 active torsions:
REMARK  status: ('A' for Active; 'I' for Inactive)
REMARK    1  A    between atoms: C2_2  and  N1_3
REMARK    2  A    between atoms: N1_3  and  C3_5
REMARK    3  A    between atoms: C6_13  and  N4_14
REMARK    4  A    between atoms: N5_17  and  C7_18
REMARK    5  A    between atoms: N6_20  and  C9_21
REMARK    6  A    between atoms: C14_26  and  C15_27
REMARK    7  A    between atoms: C15_27  and  N7_28
REMARK       I    between atoms: N7_28  and  C16_30
REMARK    8  A    between atoms: C16_30  and  C17_32
ROOT
HETATM    1  C3  UNL     1      11.812 -36.761 -16.012  1.00  0.00     0.682 A
HETATM    2  N2  UNL     1      11.141 -35.999 -16.898  1.00  0.00    -0.154 N
ATOM      3  H2  UNL     1      10.217 -35.639 -16.657  1.00  0.00     0.187 HD
HETATM    4  C4  UNL     1      11.679 -35.707 -18.105  1.00  0.00     0.290 A
HETATM    5  O1  UNL     1      11.076 -35.000 -18.947  1.00  0.00    -0.265 OA
HETATM    6  C5  UNL     1      12.926 -36.218 -18.374  1.00  0.00     0.163 A
HETATM    7  N3  UNL     1      13.728 -36.124 -19.448  1.00  0.00    -0.180 N
ATOM      8  H3  UNL     1      13.511 -35.611 -20.302  1.00  0.00     0.184 HD
HETATM    9  C6  UNL     1      14.846 -36.802 -19.224  1.00  0.00     0.712 A
HETATM   10  N5  UNL     1      14.811 -37.361 -18.000  1.00  0.00    -0.134 N
HETATM   11  C19 UNL     1      13.617 -37.000 -17.469  1.00  0.00     0.174 A
HETATM   12  N8  UNL     1      13.037 -37.253 -16.302  1.00  0.00    -0.173 N
ATOM     13  H8  UNL     1      13.524 -37.827 -15.614  1.00  0.00     0.186 HD
ENDROOT
BRANCH  10  14
HETATM   14  C7  UNL     1      15.813 -38.182 -17.349  1.00  0.00     0.276 C
HETATM   15  C8  UNL     1      15.201 -39.265 -16.487  1.00  0.00     0.328 C
HETATM   16  N6  UNL     1      16.195 -39.710 -15.535  1.00  0.00     0.103 N
HETATM   17  C13 UNL     1      17.543 -39.416 -15.961  1.00  0.00     0.307 C
HETATM   18  C14 UNL     1      17.740 -37.935 -16.116  1.00  0.00     0.170 C
HETATM   19  O3  UNL     1      16.531 -37.351 -16.490  1.00  0.00    -0.355 OA
BRANCH  16  20
HETATM   20  C9  UNL     1      16.013 -41.084 -15.159  1.00  0.00     0.149 C
HETATM   21  C10 UNL     1      14.639 -41.363 -14.647  1.00  0.00     0.048 C
HETATM   22  C11 UNL     1      16.249 -41.943 -16.392  1.00  0.00     0.048 C
HETATM   23  C12 UNL     1      17.008 -41.534 -14.107  1.00  0.00     0.048 C
ENDBRANCH  16  20
BRANCH  18  24
HETATM   24  C15 UNL     1      18.830 -37.608 -17.111  1.00  0.00     0.156 C
BRANCH  24  25
HETATM   25  N7  UNL     1      20.131 -37.641 -16.497  1.00  0.00    -0.359 N
HETATM   26  C16 UNL     1      21.324 -37.916 -17.190  1.00  0.00     0.217 C
HETATM   27  O2  UNL     1      21.377 -38.167 -18.441  1.00  0.00    -0.274 OA
ATOM     28  H7  UNL     1      20.192 -37.453 -15.496  1.00  0.00     0.162 HD
BRANCH  26  29
HETATM   29  C17 UNL     1      22.603 -37.909 -16.404  1.00  0.00     0.098 C
HETATM   30  C18 UNL     1      22.375 -38.177 -14.953  1.00  0.00     0.014 C
ENDBRANCH  26  29
ENDBRANCH  24  25
ENDBRANCH  18  24
ENDBRANCH  10  14
BRANCH   9  31
HETATM   31  N4  UNL     1      15.820 -36.907 -20.062  1.00  0.00    -0.054 N
HETATM   32  F1  UNL     1      16.197 -38.057 -20.615  1.00  0.00    -0.086 F
ATOM     33  H4  UNL     1      16.329 -36.060 -20.315  1.00  0.00     0.218 HD
ENDBRANCH   9  31
BRANCH   1  34
HETATM   34  N1  UNL     1      11.324 -37.049 -14.871  1.00  0.00    -0.226 N
ATOM     35  H1  UNL     1      11.181 -36.276 -14.221  1.00  0.00     0.177 HD
BRANCH  34  36
HETATM   36  C2  UNL     1      10.955 -38.360 -14.416  1.00  0.00     0.133 C
HETATM   37  C1  UNL     1      11.832 -38.756 -13.262  1.00  0.00     0.027 C
ENDBRANCH  34  36
ENDBRANCH   1  34
TORSDOF 8
ENDMDL