MODEL 2
REMARK VINA RESULT: -7.517860967      1.917      2.625
REMARK  10 active torsions:
REMARK  status: ('A' for Active; 'I' for Inactive)
REMARK    1  A    between atoms: C3_3  and  C4_4
REMARK    2  A    between atoms: C5_5  and  C6_6
REMARK    3  A    between atoms: C6_6  and  O2_8
REMARK    4  A    between atoms: O2_8  and  C7_9
REMARK    5  A    between atoms: C7_9  and  C8_10
REMARK    6  A    between atoms: C8_10  and  C9_11
REMARK    7  A    between atoms: C9_11  and  O3_12
REMARK    8  A    between atoms: C13_17  and  O4_18
REMARK    9  A    between atoms: C14_20  and  O5_21
REMARK   10  A    between atoms: C21_29  and  O6_30
ROOT
HETATM    1  C8  UNL     1       4.025 -25.500 -17.235  1.00  0.00     0.022 C
HETATM    2  C10 UNL     1       4.043 -24.038 -16.883  1.00  0.00    -0.006 C
HETATM    3  C11 UNL     1       3.326 -23.337 -16.008  1.00  0.00    -0.038 A
HETATM    4  C12 UNL     1       2.517 -22.607 -15.033  1.00  0.00     0.088 A
HETATM    5  C13 UNL     1       1.013 -22.647 -15.107  1.00  0.00     0.164 C
HETATM    6  C14 UNL     1       0.344 -23.390 -16.164  1.00  0.00     0.085 C
HETATM    7  C15 UNL     1      -0.482 -24.604 -15.737  1.00  0.00     0.041 C
HETATM    8  C16 UNL     1       0.239 -25.852 -16.290  1.00  0.00     0.013 C
HETATM    9  C17 UNL     1       1.640 -25.204 -16.488  1.00  0.00    -0.033 C
HETATM   10  C18 UNL     1       2.600 -26.040 -17.201  1.00  0.00     0.027 C
HETATM   11  C19 UNL     1       1.154 -24.063 -17.234  1.00  0.00     0.050 C
HETATM   12  C20 UNL     1       2.033 -25.081 -15.057  1.00  0.00     0.053 C
HETATM   13  C21 UNL     1       2.931 -23.981 -14.722  1.00  0.00     0.092 A
ENDROOT
BRANCH   1  14
HETATM   14  C7  UNL     1       4.394 -25.538 -18.698  1.00  0.00     0.194 C
BRANCH  14  15
HETATM   15  O2  UNL     1       3.775 -26.293 -19.608  1.00  0.00    -0.317 OA
BRANCH  15  16
HETATM   16  C6  UNL     1       4.124 -27.487 -20.225  1.00  0.00     0.282 C
HETATM   17  O1  UNL     1       4.158 -27.476 -21.474  1.00  0.00    -0.260 OA
BRANCH  16  18
HETATM   18  C5  UNL     1       4.430 -28.673 -19.435  1.00  0.00     0.082 C
HETATM   19  C4  UNL     1       3.621 -29.620 -19.181  1.00  0.00     0.006 C
BRANCH  19  20
HETATM   20  C3  UNL     1       2.246 -29.771 -19.586  1.00  0.00    -0.004 C
HETATM   21  C2  UNL     1       1.764 -30.979 -19.935  1.00  0.00    -0.031 C
HETATM   22  C1  UNL     1       0.367 -31.100 -20.340  1.00  0.00     0.036 C
ENDBRANCH  19  20
ENDBRANCH  16  18
ENDBRANCH  15  16
ENDBRANCH  14  15
ENDBRANCH   1  14
BRANCH   1  23
HETATM   23  C9  UNL     1       4.943 -26.255 -16.377  1.00  0.00     0.179 C
BRANCH  23  24
HETATM   24  O3  UNL     1       6.268 -26.325 -16.874  1.00  0.00    -0.400 OA
ATOM     25  H3  UNL     1       6.931 -26.401 -16.197  1.00  0.00     0.209 HD
ENDBRANCH  23  24
ENDBRANCH   1  23
BRANCH  13  26
HETATM   26  O6  UNL     1       3.889 -24.170 -13.721  1.00  0.00    -0.384 OA
ATOM     27  H6  UNL     1       3.610 -24.286 -12.820  1.00  0.00     0.211 HD
ENDBRANCH  13  26
BRANCH   5  28
HETATM   28  O4  UNL     1       0.578 -21.317 -15.128  1.00  0.00    -0.392 OA
ATOM     29  H4  UNL     1      -0.195 -21.276 -14.578  1.00  0.00     0.210 HD
ENDBRANCH   5  28
BRANCH   6  30
HETATM   30  O5  UNL     1      -0.575 -22.568 -16.881  1.00  0.00    -0.387 OA
ATOM     31  H5  UNL     1      -0.749 -22.914 -17.749  1.00  0.00     0.210 HD
ENDBRANCH   6  30
TORSDOF 10
ENDMDL