MODEL 1
REMARK VINA RESULT: -7.315702763      0.000      0.000
REMARK  12 active torsions:
REMARK  status: ('A' for Active; 'I' for Inactive)
REMARK    1  A    between atoms: C2_2  and  C4_4
REMARK    2  A    between atoms: C2_2  and  N1_23
REMARK    3  A    between atoms: C4_4  and  C5_5
REMARK    4  A    between atoms: C5_5  and  O1_6
REMARK    5  A    between atoms: C5_5  and  C6_8
REMARK    6  A    between atoms: C7_9  and  C8_10
REMARK    7  A    between atoms: C8_10  and  O2_11
REMARK    8  A    between atoms: C8_10  and  C9_13
REMARK    9  A    between atoms: C10_14  and  C11_15
REMARK   10  A    between atoms: C11_15  and  O3_16
REMARK   11  A    between atoms: O3_16  and  C12_17
REMARK   12  A    between atoms: N1_23  and  C18_25
ROOT
HETATM    1  C5  UNL     1       3.005 -25.118 -14.846  1.00  0.00     0.199 C
ENDROOT
BRANCH   1   2
HETATM    2  C4  UNL     1       3.813 -25.092 -13.610  1.00  0.00     0.075 C
BRANCH   2   3
HETATM    3  C2  UNL     1       3.809 -26.275 -12.724  1.00  0.00     0.043 C
HETATM    4  C1  UNL     1       2.478 -27.016 -13.017  1.00  0.00     0.039 C
HETATM    5  C3  UNL     1       3.873 -25.902 -11.261  1.00  0.00     0.039 C
BRANCH   3   6
HETATM    6  N1  UNL     1       4.902 -27.152 -12.997  1.00  0.00    -0.218 N
ATOM      7  H1  UNL     1       4.689 -28.112 -13.268  1.00  0.00     0.178 HD
BRANCH   6   8
HETATM    8  C18 UNL     1       6.273 -26.769 -12.916  1.00  0.00     0.670 C
HETATM    9  N2  UNL     1       6.944 -27.068 -11.855  1.00  0.00    -0.227 N
HETATM   10  C19 UNL     1       8.336 -26.658 -11.816  1.00  0.00     0.139 C
ATOM     11  H2  UNL     1       6.516 -27.570 -11.077  1.00  0.00     0.177 HD
HETATM   12  C20 UNL     1       9.042 -26.913 -13.128  1.00  0.00     0.040 C
HETATM   13  C21 UNL     1       8.324 -26.275 -14.297  1.00  0.00     0.139 C
HETATM   14  N3  UNL     1       6.922 -26.078 -13.956  1.00  0.00    -0.227 N
ATOM     15  H3  UNL     1       6.382 -25.405 -14.499  1.00  0.00     0.177 HD
ENDBRANCH   6   8
ENDBRANCH   3   6
ENDBRANCH   2   3
ENDBRANCH   1   2
BRANCH   1  16
HETATM   16  O1  UNL     1       2.448 -23.896 -15.140  1.00  0.00    -0.383 OA
ATOM     17  H1  UNL     1       1.802 -23.624 -14.499  1.00  0.00     0.211 HD
ENDBRANCH   1  16
BRANCH   1  18
HETATM   18  C6  UNL     1       3.920 -25.428 -15.982  1.00  0.00    -0.071 C
HETATM   19  C7  UNL     1       4.647 -25.694 -16.906  1.00  0.00    -0.059 C
BRANCH  19  20
HETATM   20  C8  UNL     1       5.533 -26.040 -18.023  1.00  0.00     0.277 C
BRANCH  20  21
HETATM   21  O2  UNL     1       6.768 -26.443 -17.582  1.00  0.00    -0.372 OA
ATOM     22  H2  UNL     1       6.805 -27.384 -17.460  1.00  0.00     0.212 HD
ENDBRANCH  20  21
BRANCH  20  23
HETATM   23  C9  UNL     1       4.826 -27.093 -18.784  1.00  0.00    -0.060 C
HETATM   24  C10 UNL     1       4.269 -27.961 -19.409  1.00  0.00    -0.077 C
BRANCH  24  25
HETATM   25  C11 UNL     1       3.612 -29.029 -20.165  1.00  0.00     0.261 C
BRANCH  25  26
HETATM   26  O3  UNL     1       3.224 -30.027 -19.275  1.00  0.00    -0.374 OA
BRANCH  26  27
HETATM   27  C12 UNL     1       1.960 -29.821 -18.760  1.00  0.00     0.122 C
HETATM   28  C13 UNL     1       1.920 -30.467 -17.393  1.00  0.00     0.032 C
HETATM   29  C14 UNL     1       0.599 -31.135 -17.114  1.00  0.00     0.002 C
HETATM   30  C15 UNL     1       0.456 -32.287 -18.081  1.00  0.00     0.000 C
HETATM   31  C16 UNL     1       0.825 -31.903 -19.489  1.00  0.00     0.002 C
HETATM   32  C17 UNL     1       0.864 -30.389 -19.633  1.00  0.00     0.032 C
ENDBRANCH  26  27
ENDBRANCH  25  26
ENDBRANCH  24  25
ENDBRANCH  20  23
ENDBRANCH  19  20
ENDBRANCH   1  18
TORSDOF 12
ENDMDL