MODEL 5
REMARK VINA RESULT: -6.713397168      4.812      7.211
REMARK  9 active torsions:
REMARK  status: ('A' for Active; 'I' for Inactive)
REMARK    1  A    between atoms: C2_2  and  O1_3
REMARK    2  A    between atoms: O1_3  and  C3_4
REMARK    3  A    between atoms: C3_4  and  C4_6
REMARK    4  A    between atoms: C4_6  and  N1_7
REMARK       I    between atoms: N1_7  and  C5_9
REMARK       I    between atoms: C5_9  and  N2_11
REMARK    5  A    between atoms: C9_15  and  C10_16
REMARK       I    between atoms: C10_16  and  N3_18
REMARK    6  A    between atoms: N3_18  and  N4_20
REMARK    7  A    between atoms: N4_20  and  C11_22
REMARK    8  A    between atoms: C11_22  and  S1_26
REMARK    9  A    between atoms: S1_26  and  C12_27
ROOT
HETATM    1  N1  UNL     1       6.886 -25.904 -14.503  1.00  0.00    -0.334 N
ATOM      2  H1  UNL     1       6.418 -25.848 -13.598  1.00  0.00     0.164 HD
HETATM    3  C5  UNL     1       6.102 -25.882 -15.670  1.00  0.00     0.318 C
HETATM    4  O3  UNL     1       6.640 -25.948 -16.796  1.00  0.00    -0.247 OA
HETATM    5  N2  UNL     1       4.667 -25.785 -15.615  1.00  0.00    -0.334 N
HETATM    6  C6  UNL     1       4.011 -25.834 -16.906  1.00  0.00     0.127 C
HETATM    7  C7  UNL     1       3.246 -24.569 -17.128  1.00  0.00     0.021 C
HETATM    8  C8  UNL     1       3.509 -23.490 -16.102  1.00  0.00     0.015 C
HETATM    9  C9  UNL     1       2.676 -23.679 -14.860  1.00  0.00     0.081 C
HETATM   10  C14 UNL     1       2.678 -25.118 -14.396  1.00  0.00     0.034 C
HETATM   11  C15 UNL     1       4.095 -25.649 -14.300  1.00  0.00     0.128 C
ENDROOT
BRANCH   9  12
HETATM   12  C10 UNL     1       1.291 -23.172 -15.057  1.00  0.00     0.240 C
HETATM   13  O4  UNL     1       0.341 -23.960 -15.349  1.00  0.00    -0.271 OA
HETATM   14  N3  UNL     1       1.063 -21.787 -14.907  1.00  0.00    -0.268 N
ATOM     15  H3  UNL     1       1.834 -21.159 -14.680  1.00  0.00     0.190 HD
BRANCH  14  16
HETATM   16  N4  UNL     1      -0.220 -21.289 -15.072  1.00  0.00    -0.278 N
ATOM     17  H4  UNL     1      -0.527 -20.982 -15.995  1.00  0.00     0.189 HD
BRANCH  16  18
HETATM   18  C11 UNL     1      -1.104 -21.203 -13.977  1.00  0.00     0.152 C
HETATM   19  N5  UNL     1      -0.785 -20.571 -12.882  1.00  0.00    -0.379 N
ATOM     20  H52 UNL     1       0.131 -20.125 -12.825  1.00  0.00     0.158 HD
ATOM     21  H51 UNL     1      -1.425 -20.509 -12.090  1.00  0.00     0.158 HD
BRANCH  18  22
HETATM   22  S1  UNL     1      -2.699 -21.979 -14.077  1.00  0.00    -0.093 SA
BRANCH  22  23
HETATM   23  C12 UNL     1      -2.670 -23.504 -13.108  1.00  0.00     0.078 C
HETATM   24  C13 UNL     1      -3.073 -23.161 -11.689  1.00  0.00     0.016 C
ENDBRANCH  22  23
ENDBRANCH  18  22
ENDBRANCH  16  18
ENDBRANCH  14  16
ENDBRANCH   9  12
BRANCH   1  25
HETATM   25  C4  UNL     1       8.304 -26.001 -14.533  1.00  0.00     0.235 C
BRANCH  25  26
HETATM   26  C3  UNL     1       9.002 -25.646 -13.276  1.00  0.00     0.276 C
HETATM   27  O2  UNL     1       9.297 -24.455 -13.049  1.00  0.00    -0.263 OA
BRANCH  26  28
HETATM   28  O1  UNL     1       9.344 -26.578 -12.328  1.00  0.00    -0.321 OA
BRANCH  28  29
HETATM   29  C2  UNL     1       8.571 -27.648 -11.879  1.00  0.00     0.174 C
HETATM   30  C1  UNL     1       9.146 -29.013 -12.278  1.00  0.00     0.034 C
ENDBRANCH  28  29
ENDBRANCH  26  28
ENDBRANCH  25  26
ENDBRANCH   1  25
TORSDOF 9
ENDMDL