MODEL 4
REMARK VINA RESULT: -7.403407777      1.933      6.497
REMARK  8 active torsions:
REMARK  status: ('A' for Active; 'I' for Inactive)
REMARK    1  A    between atoms: N1_1  and  C1_5
REMARK    2  A    between atoms: C6_10  and  O1_11
REMARK    3  A    between atoms: O1_11  and  C7_12
REMARK    4  A    between atoms: C9_14  and  N2_15
REMARK    5  A    between atoms: N2_15  and  C10_17
REMARK    6  A    between atoms: C10_17  and  C11_18
REMARK    7  A    between atoms: C13_23  and  O2_24
REMARK    8  A    between atoms: N5_29  and  C15_31
ROOT
HETATM    1  C7  UNL     1       2.186 -26.117 -12.287  1.00  0.00     0.161 A
HETATM    2  C8  UNL     1       3.431 -26.284 -11.681  1.00  0.00     0.105 A
HETATM    3  C9  UNL     1       4.527 -26.691 -12.399  1.00  0.00     0.121 A
HETATM    4  N4  UNL     1       4.354 -26.925 -13.718  1.00  0.00    -0.177 N
ATOM      5  H4  UNL     1       5.152 -27.229 -14.276  1.00  0.00     0.185 HD
HETATM    6  C14 UNL     1       3.158 -26.768 -14.316  1.00  0.00     0.682 A
HETATM    7  N5  UNL     1       2.983 -26.986 -15.569  1.00  0.00    -0.221 N
ATOM      8  H5  UNL     1       2.052 -26.849 -15.965  1.00  0.00     0.178 HD
HETATM    9  N6  UNL     1       2.066 -26.361 -13.599  1.00  0.00    -0.170 N
ATOM     10  H6  UNL     1       1.165 -26.244 -14.062  1.00  0.00     0.186 HD
ENDROOT
BRANCH   1  11
HETATM   11  O1  UNL     1       1.109 -25.710 -11.553  1.00  0.00    -0.328 OA
BRANCH  11  12
HETATM   12  C6  UNL     1      -0.221 -26.067 -11.674  1.00  0.00     0.161 C
HETATM   13  C1  UNL     1      -1.053 -25.114 -10.841  1.00  0.00     0.212 C
HETATM   14  C2  UNL     1      -0.319 -24.999  -9.513  1.00  0.00     0.035 C
HETATM   15  C3  UNL     1       0.005 -26.305  -8.896  1.00  0.00     0.002 C
HETATM   16  C4  UNL     1      -0.437 -27.513  -9.622  1.00  0.00     0.003 C
HETATM   17  C5  UNL     1      -0.426 -27.444 -11.106  1.00  0.00     0.035 C
BRANCH  13  18
HETATM   18  N1  UNL     1      -2.408 -25.558 -10.676  1.00  0.00    -0.073 N
ATOM     19  H13 UNL     1      -2.442 -26.496 -10.276  1.00  0.00     0.274 HD
ATOM     20  H12 UNL     1      -2.875 -25.046  -9.929  1.00  0.00     0.274 HD
ATOM     21  H11 UNL     1      -2.938 -25.508 -11.546  1.00  0.00     0.274 HD
ENDBRANCH  13  18
ENDBRANCH  11  12
ENDBRANCH   1  11
BRANCH   3  22
HETATM   22  N2  UNL     1       5.694 -26.855 -11.864  1.00  0.00    -0.374 N
ATOM     23  H2  UNL     1       5.874 -26.591 -10.895  1.00  0.00     0.161 HD
BRANCH  22  24
HETATM   24  C10 UNL     1       6.729 -27.424 -12.692  1.00  0.00     0.157 C
BRANCH  24  25
HETATM   25  C11 UNL     1       7.860 -26.443 -12.933  1.00  0.00     0.233 C
HETATM   26  N3  UNL     1       7.921 -25.980 -14.307  1.00  0.00    -0.064 N
HETATM   27  C12 UNL     1       9.366 -26.027 -14.211  1.00  0.00     0.266 C
ATOM     28  H32 UNL     1       7.431 -26.479 -15.049  1.00  0.00     0.277 HD
ATOM     29  H31 UNL     1       7.444 -25.124 -14.591  1.00  0.00     0.277 HD
HETATM   30  C13 UNL     1       9.200 -27.098 -13.152  1.00  0.00     0.176 C
BRANCH  30  31
HETATM   31  O2  UNL     1      10.087 -26.996 -12.089  1.00  0.00    -0.392 OA
ATOM     32  H2  UNL     1       9.685 -26.939 -11.230  1.00  0.00     0.210 HD
ENDBRANCH  30  31
ENDBRANCH  24  25
ENDBRANCH  22  24
ENDBRANCH   3  22
BRANCH   7  33
HETATM   33  C15 UNL     1       4.038 -27.415 -16.433  1.00  0.00     0.099 C
HETATM   34  C16 UNL     1       3.611 -28.537 -17.360  1.00  0.00     0.026 C
HETATM   35  C17 UNL     1       4.739 -28.529 -18.383  1.00  0.00     0.002 C
HETATM   36  C18 UNL     1       4.961 -27.071 -18.614  1.00  0.00     0.002 C
HETATM   37  C19 UNL     1       4.361 -26.324 -17.458  1.00  0.00     0.026 C
ENDBRANCH   7  33
TORSDOF 8
ENDMDL