MODEL 5
REMARK VINA RESULT: -7.499648797      1.841      2.998
REMARK  9 active torsions:
REMARK  status: ('A' for Active; 'I' for Inactive)
REMARK    1  A    between atoms: C2_2  and  C3_3
REMARK    2  A    between atoms: C10_11  and  C12_13
REMARK    3  A    between atoms: C12_13  and  C13_14
REMARK    4  A    between atoms: C13_14  and  C14_15
REMARK    5  A    between atoms: C15_17  and  C16_18
REMARK    6  A    between atoms: C16_18  and  O3_19
REMARK    7  A    between atoms: C17_21  and  O4_22
REMARK    8  A    between atoms: C18_24  and  O5_25
REMARK    9  A    between atoms: C19_27  and  O6_28
ROOT
HETATM    1  C14 UNL     1       6.871 -27.016 -13.521  1.00  0.00     0.153 C
HETATM    2  O2  UNL     1       7.410 -25.783 -13.202  1.00  0.00    -0.373 OA
HETATM    3  C15 UNL     1       8.778 -25.766 -13.120  1.00  0.00     0.176 C
HETATM    4  C17 UNL     1       9.380 -27.075 -12.706  1.00  0.00     0.180 C
HETATM    5  C18 UNL     1       8.408 -27.752 -11.762  1.00  0.00     0.180 C
HETATM    6  C19 UNL     1       7.127 -28.080 -12.501  1.00  0.00     0.178 C
ENDROOT
BRANCH   1   7
HETATM    7  C13 UNL     1       5.406 -26.854 -13.861  1.00  0.00     0.035 C
BRANCH   7   8
HETATM    8  C12 UNL     1       5.211 -25.829 -14.919  1.00  0.00     0.012 C
BRANCH   8   9
HETATM    9  C10 UNL     1       3.869 -25.879 -15.618  1.00  0.00    -0.035 C
HETATM   10  C9  UNL     1       4.076 -25.622 -17.121  1.00  0.00     0.013 C
HETATM   11  C8  UNL     1       4.688 -24.267 -17.380  1.00  0.00     0.028 C
HETATM   12  C7  UNL     1       3.732 -23.284 -16.782  1.00  0.00    -0.023 C
HETATM   13  C6  UNL     1       2.954 -23.578 -15.791  1.00  0.00    -0.071 C
HETATM   14  C5  UNL     1       1.922 -22.800 -15.017  1.00  0.00     0.113 C
HETATM   15  C20 UNL     1       2.886 -24.926 -15.088  1.00  0.00     0.037 C
HETATM   16  C4  UNL     1       0.835 -23.832 -14.947  1.00  0.00     0.139 C
HETATM   17  C3  UNL     1       1.442 -25.200 -15.204  1.00  0.00     0.086 C
HETATM   18  O1  UNL     1      -0.319 -23.542 -14.718  1.00  0.00    -0.297 OA
HETATM   19  C11 UNL     1       3.444 -27.330 -15.561  1.00  0.00     0.016 C
BRANCH  17  20
HETATM   20  C2  UNL     1       0.828 -26.089 -14.212  1.00  0.00    -0.024 C
HETATM   21  C1  UNL     1       1.227 -26.064 -12.967  1.00  0.00     0.008 C
ENDBRANCH  17  20
ENDBRANCH   8   9
ENDBRANCH   7   8
ENDBRANCH   1   7
BRANCH   6  22
HETATM   22  O6  UNL     1       7.365 -29.311 -13.152  1.00  0.00    -0.390 OA
ATOM     23  H6  UNL     1       8.260 -29.588 -12.991  1.00  0.00     0.210 HD
ENDBRANCH   6  22
BRANCH   3  24
HETATM   24  C16 UNL     1       9.457 -25.266 -14.372  1.00  0.00     0.198 C
BRANCH  24  25
HETATM   25  O3  UNL     1      10.166 -26.294 -14.990  1.00  0.00    -0.398 OA
ATOM     26  H3  UNL     1      10.900 -25.946 -15.482  1.00  0.00     0.209 HD
ENDBRANCH  24  25
ENDBRANCH   3  24
BRANCH   5  27
HETATM   27  O5  UNL     1       8.197 -26.928 -10.673  1.00  0.00    -0.390 OA
ATOM     28  H5  UNL     1       8.418 -27.403  -9.881  1.00  0.00     0.210 HD
ENDBRANCH   5  27
BRANCH   4  29
HETATM   29  O4  UNL     1      10.568 -26.809 -12.025  1.00  0.00    -0.390 OA
ATOM     30  H4  UNL     1      10.396 -26.123 -11.390  1.00  0.00     0.210 HD
ENDBRANCH   4  29
TORSDOF 9
ENDMDL