MODEL 4
REMARK VINA RESULT: -7.866504860      1.704      2.201
REMARK  5 active torsions:
REMARK  status: ('A' for Active; 'I' for Inactive)
REMARK       I    between atoms: N1_4  and  C3_5
REMARK       I    between atoms: C3_5  and  N2_7
REMARK    1  A    between atoms: N2_7  and  C4_9
REMARK    2  A    between atoms: C4_9  and  C5_10
REMARK    3  A    between atoms: C5_10  and  C6_11
REMARK    4  A    between atoms: C6_11  and  C7_12
REMARK    5  A    between atoms: C7_12  and  C8_13
ROOT
HETATM    1  O1  UNL     1       3.026 -25.685 -13.784  1.00  0.00    -0.263 OA
HETATM    2  C1  UNL     1       1.798 -25.752 -14.047  1.00  0.00     0.277 C
HETATM    3  C2  UNL     1       1.340 -26.794 -14.989  1.00  0.00     0.238 C
HETATM    4  N1  UNL     1       1.866 -26.640 -16.323  1.00  0.00    -0.325 N
HETATM    5  C3  UNL     1       3.154 -27.121 -16.608  1.00  0.00     0.318 C
HETATM    6  O2  UNL     1       3.838 -27.680 -15.708  1.00  0.00    -0.247 OA
HETATM    7  N2  UNL     1       3.704 -26.988 -17.903  1.00  0.00    -0.343 N
ATOM      8  H2  UNL     1       3.136 -26.532 -18.616  1.00  0.00     0.164 HD
HETATM    9  C13 UNL     1       1.087 -26.002 -17.354  1.00  0.00     0.129 C
HETATM   10  C14 UNL     1       1.522 -24.611 -17.661  1.00  0.00     0.039 C
HETATM   11  C15 UNL     1       0.622 -23.552 -17.084  1.00  0.00     0.115 C
HETATM   12  N4  UNL     1      -0.773 -23.743 -17.316  1.00  0.00    -0.420 N
ATOM     13  H4  UNL     1      -1.166 -23.778 -18.256  1.00  0.00     0.153 HD
HETATM   14  C16 UNL     1      -1.583 -23.883 -16.151  1.00  0.00     0.133 C
HETATM   15  C17 UNL     1      -1.548 -22.736 -15.211  1.00  0.00     0.133 C
HETATM   16  N5  UNL     1      -0.775 -22.915 -14.039  1.00  0.00    -0.418 N
ATOM     17  H5  UNL     1       0.063 -22.361 -13.863  1.00  0.00     0.153 HD
HETATM   18  C18 UNL     1      -1.218 -23.896 -13.122  1.00  0.00     0.140 C
HETATM   19  C19 UNL     1      -0.332 -25.084 -12.969  1.00  0.00     0.198 C
HETATM   20  O3  UNL     1       0.961 -24.834 -13.428  1.00  0.00    -0.319 OA
ENDROOT
BRANCH   7  21
HETATM   21  C4  UNL     1       5.026 -27.459 -18.288  1.00  0.00     0.124 C
BRANCH  21  22
HETATM   22  C5  UNL     1       4.990 -28.654 -19.181  1.00  0.00     0.020 C
BRANCH  22  23
HETATM   23  C6  UNL     1       3.578 -28.745 -19.763  1.00  0.00     0.004 C
BRANCH  23  24
HETATM   24  C7  UNL     1       3.317 -30.130 -20.289  1.00  0.00     0.033 C
BRANCH  24  25
HETATM   25  C8  UNL     1       2.221 -30.807 -19.533  1.00  0.00     0.185 C
HETATM   26  C9  UNL     1       1.925 -30.199 -18.195  1.00  0.00     0.033 C
HETATM   27  C10 UNL     1       1.038 -31.167 -17.439  1.00  0.00     0.004 C
HETATM   28  C11 UNL     1       0.455 -32.218 -18.341  1.00  0.00     0.027 C
HETATM   29  C12 UNL     1       0.008 -31.653 -19.666  1.00  0.00     0.232 C
HETATM   30  N3  UNL     1       0.984 -30.822 -20.296  1.00  0.00    -0.071 N
ATOM     31  H32 UNL     1       0.629 -29.880 -20.456  1.00  0.00     0.277 HD
ATOM     32  H31 UNL     1       1.142 -31.095 -21.265  1.00  0.00     0.277 HD
ENDBRANCH  24  25
ENDBRANCH  23  24
ENDBRANCH  22  23
ENDBRANCH  21  22
ENDBRANCH   7  21
TORSDOF 5
ENDMDL