MODEL 3
REMARK VINA RESULT: -8.181026350      5.985      9.821
REMARK  7 active torsions:
REMARK  status: ('A' for Active; 'I' for Inactive)
REMARK    1  A    between atoms: C3_5  and  N2_6
REMARK    2  A    between atoms: N2_6  and  C4_8
REMARK    3  A    between atoms: C7_13  and  N4_14
REMARK    4  A    between atoms: N4_14  and  C8_16
REMARK    5  A    between atoms: C11_19  and  C12_20
REMARK    6  A    between atoms: C12_20  and  N5_21
REMARK    7  A    between atoms: N5_21  and  N6_22
ROOT
HETATM    1  C1  UNL     1       4.755 -26.069 -18.624  1.00  0.00     0.182 A
HETATM    2  N1  UNL     1       5.782 -26.007 -17.761  1.00  0.00    -0.346 N
ATOM      3  H1  UNL     1       6.768 -26.005 -18.020  1.00  0.00     0.167 HD
HETATM    4  C2  UNL     1       5.312 -25.947 -16.508  1.00  0.00     0.123 A
HETATM    5  C3  UNL     1       5.920 -25.871 -15.273  1.00  0.00     0.148 A
HETATM    6  N3  UNL     1       5.203 -25.821 -14.137  1.00  0.00    -0.175 N
ATOM      7  H3  UNL     1       5.656 -25.765 -13.226  1.00  0.00     0.186 HD
HETATM    8  C7  UNL     1       3.844 -25.847 -14.255  1.00  0.00     0.681 A
HETATM    9  N8  UNL     1       3.247 -25.922 -15.456  1.00  0.00    -0.174 N
ATOM     10  H8  UNL     1       2.227 -25.941 -15.493  1.00  0.00     0.186 HD
HETATM   11  C19 UNL     1       3.937 -25.974 -16.620  1.00  0.00     0.152 A
HETATM   12  N9  UNL     1       3.612 -26.049 -17.915  1.00  0.00    -0.336 N
ATOM     13  H9  UNL     1       2.667 -26.086 -18.297  1.00  0.00     0.168 HD
ENDROOT
BRANCH   8  14
HETATM   14  N4  UNL     1       3.089 -25.804 -13.231  1.00  0.00    -0.220 N
ATOM     15  H4  UNL     1       2.468 -25.002 -13.122  1.00  0.00     0.178 HD
BRANCH  14  16
HETATM   16  C8  UNL     1       3.065 -26.846 -12.198  1.00  0.00     0.117 C
HETATM   17  C9  UNL     1       3.542 -26.183 -10.928  1.00  0.00     0.033 C
HETATM   18  C10 UNL     1       2.319 -25.765 -10.143  1.00  0.00     0.055 C
HETATM   19  C11 UNL     1       1.609 -27.020  -9.799  1.00  0.00    -0.002 C
HETATM   20  N7  UNL     1       1.279 -27.771 -10.776  1.00  0.00    -0.393 N
HETATM   21  C18 UNL     1       1.635 -27.318 -12.115  1.00  0.00     0.145 C
ATOM     22  H7  UNL     1       0.786 -28.651 -10.627  1.00  0.00     0.159 HD
BRANCH  19  23
HETATM   23  C12 UNL     1       1.273 -27.431  -8.420  1.00  0.00     0.180 C
BRANCH  23  24
HETATM   24  N5  UNL     1       0.455 -26.399  -7.818  1.00  0.00    -0.159 NA
BRANCH  24  25
HETATM   25  N6  UNL     1      -0.395 -26.847  -6.845  1.00  0.00    -0.234 NA
HETATM   26  C13 UNL     1      -1.497 -25.958  -6.554  1.00  0.00     0.109 C
HETATM   27  C14 UNL     1      -1.989 -26.309  -5.156  1.00  0.00     0.016 C
HETATM   28  C15 UNL     1      -2.325 -27.765  -5.023  1.00  0.00     0.002 C
HETATM   29  C16 UNL     1      -1.317 -28.682  -5.637  1.00  0.00     0.016 C
HETATM   30  C17 UNL     1      -0.909 -28.164  -7.021  1.00  0.00     0.109 C
ENDBRANCH  24  25
ENDBRANCH  23  24
ENDBRANCH  19  23
ENDBRANCH  14  16
ENDBRANCH   8  14
BRANCH   5  31
HETATM   31  N2  UNL     1       7.196 -25.847 -15.205  1.00  0.00    -0.369 N
ATOM     32  H2  UNL     1       7.702 -25.645 -16.068  1.00  0.00     0.161 HD
BRANCH  31  33
HETATM   33  C4  UNL     1       7.978 -26.077 -14.032  1.00  0.00     0.083 A
HETATM   34  C5  UNL     1       8.974 -25.057 -13.551  1.00  0.00     0.027 A
HETATM   35  C6  UNL     1       9.478 -26.218 -14.295  1.00  0.00     0.027 A
ENDBRANCH  31  33
ENDBRANCH   5  31
TORSDOF 7
ENDMDL