MODEL 2
REMARK VINA RESULT: -7.686819743      3.012      6.450
REMARK  9 active torsions:
REMARK  status: ('A' for Active; 'I' for Inactive)
REMARK    1  A    between atoms: C1_2  and  C2_4
REMARK    2  A    between atoms: C2_4  and  C3_5
REMARK    3  A    between atoms: C10_12  and  C11_13
REMARK    4  A    between atoms: C11_13  and  O3_14
REMARK    5  A    between atoms: C14_18  and  O4_19
REMARK    6  A    between atoms: O4_19  and  C15_20
REMARK    7  A    between atoms: C18_24  and  O6_25
REMARK    8  A    between atoms: C19_27  and  C20_28
REMARK    9  A    between atoms: C20_28  and  O7_29
ROOT
HETATM    1  C3  UNL     1       4.034 -27.282 -17.586  1.00  0.00     0.008 C
HETATM    2  C4  UNL     1       3.549 -27.652 -16.200  1.00  0.00     0.015 C
HETATM    3  C5  UNL     1       4.513 -26.552 -15.790  1.00  0.00     0.020 C
HETATM    4  C6  UNL     1       4.328 -25.883 -14.556  1.00  0.00    -0.025 C
HETATM    5  C7  UNL     1       3.878 -24.699 -14.239  1.00  0.00    -0.023 C
HETATM    6  C8  UNL     1       3.390 -23.611 -15.050  1.00  0.00     0.038 C
HETATM    7  C9  UNL     1       3.712 -23.575 -16.491  1.00  0.00     0.023 C
HETATM    8  C10 UNL     1       3.306 -24.845 -17.254  1.00  0.00    -0.008 C
HETATM    9  C12 UNL     1       1.869 -25.006 -17.013  1.00  0.00     0.015 C
HETATM   10  C13 UNL     1       1.300 -24.711 -15.646  1.00  0.00     0.034 C
HETATM   11  C14 UNL     1       1.874 -23.536 -14.940  1.00  0.00     0.132 C
HETATM   12  C19 UNL     1       4.283 -25.885 -17.094  1.00  0.00     0.002 C
ENDROOT
BRANCH  11  13
HETATM   13  O4  UNL     1       1.373 -22.334 -15.385  1.00  0.00    -0.352 OA
BRANCH  13  14
HETATM   14  C15 UNL     1      -0.009 -22.318 -15.494  1.00  0.00     0.298 C
HETATM   15  O5  UNL     1      -0.547 -22.269 -14.177  1.00  0.00    -0.330 OA
HETATM   16  C16 UNL     1      -1.157 -21.037 -13.974  1.00  0.00     0.137 C
HETATM   17  C17 UNL     1      -1.188 -20.323 -15.066  1.00  0.00     0.033 C
HETATM   18  C18 UNL     1      -0.548 -21.099 -16.156  1.00  0.00     0.198 C
BRANCH  18  19
HETATM   19  O6  UNL     1       0.419 -20.361 -16.833  1.00  0.00    -0.387 OA
ATOM     20  H6  UNL     1       0.732 -19.609 -16.345  1.00  0.00     0.210 HD
ENDBRANCH  18  19
ENDBRANCH  13  14
ENDBRANCH  11  13
BRANCH   8  21
HETATM   21  C11 UNL     1       3.413 -24.352 -18.724  1.00  0.00     0.174 C
BRANCH  21  22
HETATM   22  O3  UNL     1       3.077 -23.001 -18.798  1.00  0.00    -0.400 OA
ATOM     23  H3  UNL     1       2.136 -22.896 -18.711  1.00  0.00     0.209 HD
ENDBRANCH  21  22
ENDBRANCH   8  21
BRANCH  12  24
HETATM   24  C20 UNL     1       5.667 -25.414 -17.567  1.00  0.00     0.175 C
BRANCH  24  25
HETATM   25  O7  UNL     1       6.522 -26.528 -17.726  1.00  0.00    -0.400 OA
ATOM     26  H7  UNL     1       6.490 -26.831 -18.626  1.00  0.00     0.209 HD
ENDBRANCH  24  25
ENDBRANCH  12  24
BRANCH   1  27
HETATM   27  C2  UNL     1       3.268 -27.674 -18.735  1.00  0.00     0.118 C
BRANCH  27  28
HETATM   28  C1  UNL     1       4.277 -28.066 -19.805  1.00  0.00     0.172 C
HETATM   29  O1  UNL     1       5.296 -28.748 -19.535  1.00  0.00    -0.648 OA
HETATM   30  O2  UNL     1       4.099 -27.678 -21.123  1.00  0.00    -0.648 OA
ENDBRANCH  27  28
ENDBRANCH   1  27
TORSDOF 9
ENDMDL