MODEL 4
REMARK VINA RESULT: -7.666645139      4.613      5.422
REMARK  8 active torsions:
REMARK  status: ('A' for Active; 'I' for Inactive)
REMARK    1  A    between atoms: C3_3  and  C8_14
REMARK    2  A    between atoms: N1_4  and  N2_6
REMARK       I    between atoms: N2_6  and  C4_8
REMARK    3  A    between atoms: C4_8  and  O2_10
REMARK    4  A    between atoms: O2_10  and  C5_11
REMARK    5  A    between atoms: C5_11  and  C6_12
REMARK       I    between atoms: C8_14  and  N3_16
REMARK    6  A    between atoms: N3_16  and  N4_18
REMARK       I    between atoms: N4_18  and  C9_20
REMARK       I    between atoms: C9_20  and  N5_22
REMARK    7  A    between atoms: N5_22  and  C10_24
REMARK    8  A    between atoms: C10_24  and  C11_26
ROOT
HETATM    1  C1  UNL     1       6.795 -27.438 -12.580  1.00  0.00     0.019 C
HETATM    2  C2  UNL     1       5.658 -27.094 -12.709  1.00  0.00    -0.053 C
HETATM    3  C3  UNL     1       4.283 -26.689 -12.838  1.00  0.00     0.170 C
HETATM    4  N1  UNL     1       3.718 -26.837 -13.982  1.00  0.00    -0.283 N
ATOM      5  H1  UNL     1       2.745 -26.551 -14.083  1.00  0.00     0.188 HD
ENDROOT
BRANCH   3   6
HETATM    6  C8  UNL     1       3.591 -26.156 -11.681  1.00  0.00     0.296 C
HETATM    7  O3  UNL     1       4.257 -25.557 -10.808  1.00  0.00    -0.263 OA
HETATM    8  N3  UNL     1       2.197 -26.305 -11.533  1.00  0.00    -0.260 N
ATOM      9  H3  UNL     1       1.649 -26.799 -12.237  1.00  0.00     0.190 HD
BRANCH   8  10
HETATM   10  N4  UNL     1       1.577 -25.759 -10.396  1.00  0.00    -0.248 N
HETATM   11  C9  UNL     1       0.474 -26.357  -9.762  1.00  0.00     0.339 C
HETATM   12  O4  UNL     1       0.027 -27.435 -10.215  1.00  0.00    -0.245 OA
HETATM   13  N5  UNL     1      -0.138 -25.764  -8.630  1.00  0.00    -0.301 N
ATOM     14  H5  UNL     1       0.241 -24.884  -8.278  1.00  0.00     0.171 HD
ATOM     15  H4  UNL     1       1.944 -24.887 -10.012  1.00  0.00     0.192 HD
BRANCH  13  16
HETATM   16  C10 UNL     1      -1.245 -26.329  -7.968  1.00  0.00     0.085 C
HETATM   17  S1  UNL     1      -2.717 -26.236  -8.636  1.00  0.00    -0.065 SA
BRANCH  16  18
HETATM   18  C11 UNL     1      -1.078 -26.997  -6.661  1.00  0.00     0.047 C
HETATM   19  C12 UNL     1      -1.602 -28.418  -6.690  1.00  0.00     0.011 C
HETATM   20  C13 UNL     1      -1.484 -28.943  -5.267  1.00  0.00     0.001 C
HETATM   21  C14 UNL     1      -2.607 -28.314  -4.482  1.00  0.00     0.000 C
HETATM   22  C15 UNL     1      -2.927 -26.920  -4.947  1.00  0.00     0.001 C
HETATM   23  C16 UNL     1      -1.752 -26.213  -5.561  1.00  0.00     0.011 C
ENDBRANCH  16  18
ENDBRANCH  13  16
ENDBRANCH   8  10
ENDBRANCH   3   6
BRANCH   4  24
HETATM   24  N2  UNL     1       4.361 -27.361 -15.072  1.00  0.00    -0.244 N
HETATM   25  C4  UNL     1       4.634 -26.566 -16.214  1.00  0.00     0.379 C
HETATM   26  O1  UNL     1       4.291 -25.355 -16.238  1.00  0.00    -0.237 OA
ATOM     27  H2  UNL     1       4.648 -28.340 -15.063  1.00  0.00     0.192 HD
BRANCH  25  28
HETATM   28  O2  UNL     1       5.274 -27.070 -17.331  1.00  0.00    -0.299 OA
BRANCH  28  29
HETATM   29  C5  UNL     1       4.734 -27.176 -18.624  1.00  0.00     0.207 C
BRANCH  29  30
HETATM   30  C6  UNL     1       4.893 -28.572 -19.101  1.00  0.00    -0.011 C
HETATM   31  C7  UNL     1       3.849 -29.281 -19.477  1.00  0.00     0.009 C
ENDBRANCH  29  30
ENDBRANCH  28  29
ENDBRANCH  25  28
ENDBRANCH   4  24
TORSDOF 8
ENDMDL