MODEL 4
REMARK VINA RESULT: -7.989894569      3.130      5.301
REMARK  8 active torsions:
REMARK  status: ('A' for Active; 'I' for Inactive)
REMARK    1  A    between atoms: C3_3  and  C4_4
REMARK    2  A    between atoms: C5_5  and  C6_6
REMARK    3  A    between atoms: C6_6  and  C7_7
REMARK    4  A    between atoms: C8_9  and  N1_10
REMARK    5  A    between atoms: N1_10  and  C9_12
REMARK    6  A    between atoms: C12_17  and  C13_18
REMARK    7  A    between atoms: C16_25  and  O2_26
REMARK    8  A    between atoms: C17_28  and  C18_29
ROOT
HETATM    1  C7  UNL     1       3.174 -27.726 -17.842  1.00  0.00     0.180 C
HETATM    2  O1  UNL     1       2.973 -26.658 -18.702  1.00  0.00    -0.355 OA
HETATM    3  C8  UNL     1       4.074 -25.884 -18.951  1.00  0.00     0.248 C
HETATM    4  C15 UNL     1       5.002 -25.691 -17.789  1.00  0.00     0.288 C
HETATM    5  N3  UNL     1       4.291 -25.977 -16.563  1.00  0.00    -0.042 N
ATOM      6  H31 UNL     1       3.481 -25.376 -16.409  1.00  0.00     0.280 HD
ATOM      7  H32 UNL     1       4.802 -25.710 -15.721  1.00  0.00     0.280 HD
HETATM    8  C16 UNL     1       3.962 -27.408 -16.624  1.00  0.00     0.348 C
ENDROOT
BRANCH   3   9
HETATM    9  N1  UNL     1       3.562 -24.577 -19.390  1.00  0.00    -0.343 N
ATOM     10  H1  UNL     1       3.861 -24.164 -20.273  1.00  0.00     0.164 HD
BRANCH   9  11
HETATM   11  C9  UNL     1       2.708 -23.958 -18.605  1.00  0.00     0.147 A
HETATM   12  N2  UNL     1       1.478 -24.351 -18.271  1.00  0.00    -0.340 N
HETATM   13  C10 UNL     1       0.777 -23.598 -17.474  1.00  0.00     0.020 A
ATOM     14  H2  UNL     1       1.095 -25.225 -18.632  1.00  0.00     0.168 HD
HETATM   15  C11 UNL     1      -0.637 -23.953 -17.029  1.00  0.00     0.069 C
HETATM   16  C12 UNL     1       1.335 -22.442 -17.019  1.00  0.00     0.008 A
HETATM   17  S1  UNL     1       2.872 -22.479 -17.764  1.00  0.00    -0.057 SA
BRANCH  16  18
HETATM   18  C13 UNL     1       0.824 -21.383 -16.121  1.00  0.00     0.043 C
HETATM   19  C14 UNL     1       0.145 -20.259 -16.796  1.00  0.00     0.010 C
ENDBRANCH  16  18
ENDBRANCH   9  11
ENDBRANCH   3   9
BRANCH   1  20
HETATM   20  C6  UNL     1       3.694 -28.886 -18.635  1.00  0.00     0.042 C
BRANCH  20  21
HETATM   21  C5  UNL     1       2.730 -29.343 -19.704  1.00  0.00     0.011 A
HETATM   22  C4  UNL     1       2.293 -30.818 -19.575  1.00  0.00     0.027 A
HETATM   23  C17 UNL     1       3.164 -30.372 -20.680  1.00  0.00     0.099 A
BRANCH  22  24
HETATM   24  C3  UNL     1       0.856 -31.127 -19.801  1.00  0.00    -0.025 C
HETATM   25  C2  UNL     1       0.122 -31.837 -18.989  1.00  0.00    -0.035 C
HETATM   26  C1  UNL     1       0.679 -32.414 -17.733  1.00  0.00     0.036 C
ENDBRANCH  22  24
BRANCH  23  27
HETATM   27  C18 UNL     1       2.692 -30.222 -22.052  1.00  0.00     0.178 C
HETATM   28  O3  UNL     1       1.889 -29.313 -22.353  1.00  0.00    -0.648 OA
HETATM   29  O4  UNL     1       3.114 -31.076 -23.052  1.00  0.00    -0.648 OA
ENDBRANCH  23  27
ENDBRANCH  20  21
ENDBRANCH   1  20
BRANCH   8  30
HETATM   30  O2  UNL     1       3.257 -27.676 -15.428  1.00  0.00    -0.368 OA
ATOM     31  H2  UNL     1       3.811 -27.642 -14.657  1.00  0.00     0.212 HD
ENDBRANCH   8  30
TORSDOF 8
ENDMDL