MODEL 2
REMARK VINA RESULT: -6.863951834      5.983      8.654
REMARK  5 active torsions:
REMARK  status: ('A' for Active; 'I' for Inactive)
REMARK       I    between atoms: C2_2  and  N1_4
REMARK    1  A    between atoms: N1_4  and  N2_6
REMARK    2  A    between atoms: N2_6  and  S1_8
REMARK    3  A    between atoms: S1_8  and  C3_11
REMARK    4  A    between atoms: C6_14  and  N3_15
REMARK       I    between atoms: N3_15  and  C7_17
REMARK    5  A    between atoms: C7_17  and  C8_19
ROOT
HETATM    1  C3  UNL     1       6.587  -3.599  -5.047  1.00  0.00     0.081 A
HETATM    2  C4  UNL     1       5.905  -3.684  -6.239  1.00  0.00     0.027 A
HETATM    3  C5  UNL     1       6.116  -2.798  -7.274  1.00  0.00     0.031 A
HETATM    4  C6  UNL     1       7.052  -1.768  -7.130  1.00  0.00     0.035 A
HETATM    5  C12 UNL     1       7.737  -1.672  -5.951  1.00  0.00     0.031 A
HETATM    6  C13 UNL     1       7.494  -2.595  -4.917  1.00  0.00     0.027 A
ENDROOT
BRANCH   1   7
HETATM    7  S1  UNL     1       6.247  -4.768  -3.798  1.00  0.00     0.276 S
HETATM    8  O2  UNL     1       6.397  -4.064  -2.477  1.00  0.00    -0.199 OA
HETATM    9  O3  UNL     1       4.804  -5.179  -3.953  1.00  0.00    -0.199 OA
BRANCH   7  10
HETATM   10  N2  UNL     1       7.278  -6.155  -3.906  1.00  0.00    -0.220 N
ATOM     11  H2  UNL     1       6.981  -7.125  -4.011  1.00  0.00     0.200 HD
BRANCH  10  12
HETATM   12  N1  UNL     1       8.597  -5.694  -3.820  1.00  0.00    -0.261 N
HETATM   13  C2  UNL     1       9.444  -6.139  -2.782  1.00  0.00     0.232 C
HETATM   14  C1  UNL     1      10.847  -5.630  -2.715  1.00  0.00     0.119 C
HETATM   15  O1  UNL     1       9.080  -6.948  -1.899  1.00  0.00    -0.272 OA
ATOM     16  H1  UNL     1       8.948  -5.032  -4.513  1.00  0.00     0.190 HD
ENDBRANCH  10  12
ENDBRANCH   7  10
ENDBRANCH   1   7
BRANCH   4  17
HETATM   17  N3  UNL     1       7.227  -0.908  -8.260  1.00  0.00    -0.322 N
HETATM   18  C7  UNL     1       8.351  -0.809  -9.065  1.00  0.00     0.264 C
HETATM   19  O4  UNL     1       9.342  -1.539  -8.782  1.00  0.00    -0.267 OA
ATOM     20  H3  UNL     1       6.440  -0.305  -8.499  1.00  0.00     0.169 HD
BRANCH  18  21
HETATM   21  C8  UNL     1       8.496   0.063 -10.210  1.00  0.00     0.090 A
HETATM   22  S2  UNL     1       7.566  -0.127 -11.692  1.00  0.00    -0.095 SA
HETATM   23  C9  UNL     1       8.189   1.160 -12.589  1.00  0.00     0.052 A
HETATM   24  C10 UNL     1       9.094   1.708 -11.743  1.00  0.00     0.028 A
HETATM   25  C11 UNL     1       9.255   1.149 -10.522  1.00  0.00     0.034 A
HETATM   26 BR1  UNL     1      10.551   1.906  -9.264  1.00  0.00    -0.049 Br
ENDBRANCH  18  21
ENDBRANCH   4  17
TORSDOF 5
ENDMDL