MODEL 4
REMARK VINA RESULT: -7.660030499      6.990      9.960
REMARK  8 active torsions:
REMARK  status: ('A' for Active; 'I' for Inactive)
REMARK    1  A    between atoms: C6_6  and  C7_7
REMARK    2  A    between atoms: C7_7  and  O2_9
REMARK    3  A    between atoms: O2_9  and  C8_10
REMARK    4  A    between atoms: C8_10  and  C9_11
REMARK       I    between atoms: C9_11  and  N1_13
REMARK    5  A    between atoms: N1_13  and  N2_15
REMARK       I    between atoms: N2_15  and  C10_17
REMARK       I    between atoms: C10_17  and  N3_19
REMARK    6  A    between atoms: N3_19  and  C11_21
REMARK    7  A    between atoms: C11_21  and  O5_22
REMARK    8  A    between atoms: C11_21  and  C12_24
ROOT
HETATM    1  N2  UNL     1      10.078   1.779 -11.229  1.00  0.00    -0.249 N
ATOM      2  H2  UNL     1       9.452   1.578 -10.449  1.00  0.00     0.192 HD
HETATM    3  C10 UNL     1      11.397   2.156 -10.946  1.00  0.00     0.340 C
HETATM    4  O4  UNL     1      12.117   2.393 -11.988  1.00  0.00    -0.245 OA
HETATM    5  N3  UNL     1      11.958   2.288  -9.693  1.00  0.00    -0.287 N
ATOM      6  H3  UNL     1      12.936   2.576  -9.724  1.00  0.00     0.172 HD
ENDROOT
BRANCH   1   7
HETATM    7  N1  UNL     1       9.581   1.664 -12.537  1.00  0.00    -0.264 N
HETATM    8  C9  UNL     1       8.485   0.831 -12.795  1.00  0.00     0.260 C
HETATM    9  O3  UNL     1       7.916   0.165 -11.865  1.00  0.00    -0.269 OA
ATOM     10  H1  UNL     1      10.017   2.186 -13.297  1.00  0.00     0.190 HD
BRANCH   8  11
HETATM   11  C8  UNL     1       7.938   0.686 -14.147  1.00  0.00     0.283 C
BRANCH  11  12
HETATM   12  O2  UNL     1       6.741  -0.031 -14.154  1.00  0.00    -0.308 OA
BRANCH  12  13
HETATM   13  C7  UNL     1       5.990  -0.139 -15.311  1.00  0.00     0.293 C
HETATM   14  O1  UNL     1       6.475  -0.711 -16.318  1.00  0.00    -0.259 OA
BRANCH  13  15
HETATM   15  C6  UNL     1       4.636   0.397 -15.404  1.00  0.00     0.040 A
HETATM   16  C5  UNL     1       3.630  -0.019 -14.549  1.00  0.00     0.017 A
HETATM   17  C4  UNL     1       2.370   0.506 -14.667  1.00  0.00     0.002 A
HETATM   18  C3  UNL     1       2.045   1.454 -15.618  1.00  0.00     0.007 A
HETATM   19  C2  UNL     1       3.035   1.875 -16.473  1.00  0.00    -0.061 A
HETATM   20  C1  UNL     1       2.692   2.890 -17.498  1.00  0.00     0.048 C
HETATM   21  C18 UNL     1       4.297   1.344 -16.352  1.00  0.00     0.024 A
ENDBRANCH  13  15
ENDBRANCH  12  13
ENDBRANCH  11  12
ENDBRANCH   8  11
ENDBRANCH   1   7
BRANCH   5  22
HETATM   22  C11 UNL     1      11.485   2.116  -8.400  1.00  0.00     0.154 C
BRANCH  22  23
HETATM   23  O5  UNL     1      12.367   2.150  -7.434  1.00  0.00    -0.345 OA
ATOM     24  H5  UNL     1      12.117   1.757  -6.606  1.00  0.00     0.219 HD
ENDBRANCH  22  23
BRANCH  22  25
HETATM   25  C12 UNL     1      10.151   1.897  -7.900  1.00  0.00     0.015 A
HETATM   26  C13 UNL     1       9.362   0.798  -8.212  1.00  0.00     0.017 A
HETATM   27  C14 UNL     1       8.082   0.653  -7.726  1.00  0.00     0.020 A
HETATM   28  C15 UNL     1       7.538   1.611  -6.902  1.00  0.00     0.011 A
HETATM   29 BR1  UNL     1       5.782   1.463  -6.202  1.00  0.00    -0.051 Br
HETATM   30  C16 UNL     1       8.289   2.717  -6.569  1.00  0.00     0.020 A
HETATM   31  C17 UNL     1       9.566   2.852  -7.059  1.00  0.00     0.017 A
ENDBRANCH  22  25
ENDBRANCH   5  22
TORSDOF 8
ENDMDL