MODEL 3
REMARK VINA RESULT: -7.514260733      1.924      3.113
REMARK  7 active torsions:
REMARK  status: ('A' for Active; 'I' for Inactive)
REMARK    1  A    between atoms: C2_2  and  C5_5
REMARK    2  A    between atoms: C8_8  and  O1_9
REMARK    3  A    between atoms: O1_9  and  S1_10
REMARK    4  A    between atoms: S1_10  and  C9_13
REMARK    5  A    between atoms: C11_15  and  C12_16
REMARK       I    between atoms: C12_16  and  N1_18
REMARK    6  A    between atoms: N1_18  and  N2_20
REMARK    7  A    between atoms: N2_20  and  C13_22
ROOT
HETATM    1  C9  UNL     1       7.589   1.035 -10.313  1.00  0.00     0.126 A
HETATM    2  C10 UNL     1       8.723   1.429  -9.636  1.00  0.00     0.046 A
HETATM    3  C11 UNL     1       9.888   1.760 -10.296  1.00  0.00     0.035 A
HETATM    4  C14 UNL     1       9.912   1.692 -11.663  1.00  0.00     0.020 A
HETATM    5  C15 UNL     1       8.768   1.293 -12.365  1.00  0.00     0.045 A
HETATM    6  C16 UNL     1       7.610   0.965 -11.689  1.00  0.00     0.140 A
HETATM    7  F1  UNL     1       6.488   0.573 -12.384  1.00  0.00    -0.204 F
ENDROOT
BRANCH   1   8
HETATM    8  S1  UNL     1       6.127   0.626  -9.450  1.00  0.00     0.306 S
HETATM    9  O2  UNL     1       5.812  -0.836  -9.707  1.00  0.00    -0.193 OA
HETATM   10  O3  UNL     1       4.965   1.434  -9.952  1.00  0.00    -0.193 OA
BRANCH   8  11
HETATM   11  O1  UNL     1       6.355   0.915  -7.803  1.00  0.00    -0.229 OA
BRANCH  11  12
HETATM   12  C8  UNL     1       6.534  -0.103  -6.872  1.00  0.00     0.089 A
HETATM   13  C7  UNL     1       7.677  -0.866  -6.825  1.00  0.00     0.039 A
HETATM   14  C6  UNL     1       7.801  -1.858  -5.885  1.00  0.00     0.011 A
HETATM   15  C5  UNL     1       6.818  -2.157  -4.946  1.00  0.00    -0.050 A
HETATM   16  C18 UNL     1       5.681  -1.380  -5.011  1.00  0.00     0.011 A
HETATM   17  C17 UNL     1       5.543  -0.375  -5.956  1.00  0.00     0.039 A
BRANCH  15  18
HETATM   18  C2  UNL     1       7.028  -3.241  -3.969  1.00  0.00    -0.024 C
HETATM   19  C1  UNL     1       6.702  -4.595  -4.500  1.00  0.00     0.019 C
HETATM   20  C3  UNL     1       8.518  -3.234  -3.608  1.00  0.00     0.019 C
HETATM   21  C4  UNL     1       6.217  -2.925  -2.730  1.00  0.00     0.019 C
ENDBRANCH  15  18
ENDBRANCH  11  12
ENDBRANCH   8  11
ENDBRANCH   1   8
BRANCH   3  22
HETATM   22  C12 UNL     1      11.058   2.174  -9.513  1.00  0.00     0.270 C
HETATM   23  O4  UNL     1      12.028   2.768 -10.081  1.00  0.00    -0.266 OA
HETATM   24  N1  UNL     1      11.154   1.935  -8.127  1.00  0.00    -0.264 N
ATOM     25  H1  UNL     1      10.393   1.461  -7.642  1.00  0.00     0.190 HD
BRANCH  24  26
HETATM   26  N2  UNL     1      12.276   2.339  -7.419  1.00  0.00    -0.276 N
ATOM     27  H2  UNL     1      13.151   1.829  -7.535  1.00  0.00     0.189 HD
BRANCH  26  28
HETATM   28  C13 UNL     1      12.228   3.464  -6.521  1.00  0.00     0.199 C
HETATM   29  N3  UNL     1      13.454   4.153  -6.248  1.00  0.00    -0.068 NA
HETATM   30  S2  UNL     1      10.826   3.935  -5.839  1.00  0.00    -0.043 SA
ENDBRANCH  26  28
ENDBRANCH  24  26
ENDBRANCH   3  22
TORSDOF 7
ENDMDL