MODEL 2
REMARK VINA RESULT: -6.947971392      2.448      4.071
REMARK  6 active torsions:
REMARK  status: ('A' for Active; 'I' for Inactive)
REMARK    1  A    between atoms: C2_2  and  C3_3
REMARK       I    between atoms: C3_3  and  N1_5
REMARK       I    between atoms: N1_5  and  C4_7
REMARK    2  A    between atoms: C4_7  and  C5_9
REMARK    3  A    between atoms: C5_9  and  C6_10
REMARK    4  A    between atoms: C16_22  and  C17_23
REMARK    5  A    between atoms: C18_26  and  C20_28
REMARK    6  A    between atoms: C20_28  and  O6_29
ROOT
HETATM    1  C6  UNL     1       5.827  -3.058  -3.782  1.00  0.00    -0.016 C
HETATM    2  C7  UNL     1       4.700  -2.278  -4.342  1.00  0.00     0.092 C
HETATM    3  C8  UNL     1       3.683  -1.742  -3.461  1.00  0.00     0.167 C
HETATM    4  O3  UNL     1       2.616  -1.394  -3.904  1.00  0.00    -0.294 OA
HETATM    5  C9  UNL     1       4.110  -1.691  -2.062  1.00  0.00     0.163 C
HETATM    6  F1  UNL     1       3.495  -0.580  -1.502  1.00  0.00    -0.235 F
HETATM    7  C10 UNL     1       3.503  -2.978  -1.491  1.00  0.00     0.052 C
HETATM    8  C11 UNL     1       3.274  -4.071  -2.461  1.00  0.00     0.013 C
HETATM    9  C12 UNL     1       4.488  -4.941  -2.836  1.00  0.00    -0.042 C
HETATM   10  C13 UNL     1       4.200  -5.568  -4.186  1.00  0.00     0.015 C
HETATM   11  C14 UNL     1       4.387  -6.105  -1.874  1.00  0.00     0.015 C
HETATM   12  C15 UNL     1       5.653  -4.094  -2.725  1.00  0.00     0.018 C
HETATM   13  C16 UNL     1       7.056  -4.467  -2.479  1.00  0.00     0.103 C
HETATM   14  C18 UNL     1       7.620  -3.012  -2.301  1.00  0.00    -0.004 C
HETATM   15  C19 UNL     1       8.955  -2.864  -2.987  1.00  0.00     0.019 C
HETATM   16  C21 UNL     1       6.556  -2.093  -2.854  1.00  0.00     0.010 C
HETATM   17  C22 UNL     1       5.577  -1.566  -1.856  1.00  0.00     0.058 C
ENDROOT
BRANCH   1  18
HETATM   18  C5  UNL     1       6.519  -3.503  -4.991  1.00  0.00     0.113 C
BRANCH  18  19
HETATM   19  C4  UNL     1       6.647  -2.615  -6.164  1.00  0.00     0.225 C
HETATM   20  N1  UNL     1       7.590  -1.519  -6.126  1.00  0.00    -0.298 N
HETATM   21  C3  UNL     1       7.766  -0.634  -7.209  1.00  0.00     0.223 C
ATOM     22  H1  UNL     1       8.150  -1.381  -5.284  1.00  0.00     0.171 HD
HETATM   23  O1  UNL     1       7.078  -0.802  -8.247  1.00  0.00    -0.273 OA
HETATM   24  O2  UNL     1       6.024  -2.684  -7.234  1.00  0.00    -0.273 OA
BRANCH  21  25
HETATM   25  C2  UNL     1       8.726   0.490  -7.189  1.00  0.00     0.099 C
HETATM   26  C1  UNL     1       9.391   0.641  -8.532  1.00  0.00     0.014 C
ENDBRANCH  21  25
ENDBRANCH  18  19
ENDBRANCH   1  18
BRANCH  13  27
HETATM   27  C17 UNL     1       7.420  -5.227  -1.273  1.00  0.00     0.178 C
HETATM   28  O4  UNL     1       7.009  -5.201  -0.123  1.00  0.00    -0.648 OA
HETATM   29  O5  UNL     1       8.451  -6.201  -1.397  1.00  0.00    -0.648 OA
ENDBRANCH  13  27
BRANCH  14  30
HETATM   30  C20 UNL     1       7.919  -2.765  -0.843  1.00  0.00     0.174 C
BRANCH  30  31
HETATM   31  O6  UNL     1       8.928  -1.803  -0.808  1.00  0.00    -0.400 OA
ATOM     32  H6  UNL     1       8.596  -1.088  -0.277  1.00  0.00     0.209 HD
ENDBRANCH  30  31
ENDBRANCH  14  30
TORSDOF 6
ENDMDL