MODEL 4
REMARK VINA RESULT: -6.671591769      2.298      8.421
REMARK  4 active torsions:
REMARK  status: ('A' for Active; 'I' for Inactive)
REMARK    1  A    between atoms: N3_4  and  S1_6
REMARK    2  A    between atoms: S1_6  and  C2_9
REMARK    3  A    between atoms: C5_12  and  N4_13
REMARK       I    between atoms: N4_13  and  C6_15
REMARK    4  A    between atoms: C6_15  and  C7_17
ROOT
HETATM    1  C2  UNL     1       9.903   1.495 -10.120  1.00  0.00     0.098 A
HETATM    2  C3  UNL     1       9.941   1.824 -11.450  1.00  0.00     0.029 A
HETATM    3  C4  UNL     1       8.988   1.347 -12.366  1.00  0.00     0.032 A
HETATM    4  C5  UNL     1       7.965   0.523 -11.962  1.00  0.00     0.054 A
HETATM    5  C11 UNL     1       7.949   0.201 -10.596  1.00  0.00     0.057 A
HETATM    6  S2  UNL     1       6.672  -0.851  -9.992  1.00  0.00    -0.049 SA
HETATM    7  C12 UNL     1       8.883   0.670  -9.710  1.00  0.00     0.054 A
HETATM    8 BR1  UNL     1       8.823   0.206  -7.847  1.00  0.00    -0.048 Br
ENDROOT
BRANCH   4   9
HETATM    9  N4  UNL     1       6.963  -0.002 -12.818  1.00  0.00    -0.320 N
HETATM   10  C6  UNL     1       6.785   0.229 -14.179  1.00  0.00     0.280 C
HETATM   11  O3  UNL     1       7.496   0.954 -14.891  1.00  0.00    -0.265 OA
ATOM     12  H4  UNL     1       6.286  -0.628 -12.380  1.00  0.00     0.169 HD
BRANCH  10  13
HETATM   13  C7  UNL     1       5.659  -0.428 -14.887  1.00  0.00     0.142 A
HETATM   14  C8  UNL     1       4.772   0.199 -15.732  1.00  0.00     0.045 A
HETATM   15  C9  UNL     1       3.890  -0.753 -16.176  1.00  0.00     0.027 A
HETATM   16  C10 UNL     1       4.287  -1.922 -15.573  1.00  0.00     0.143 A
HETATM   17  O4  UNL     1       5.330  -1.687 -14.824  1.00  0.00    -0.317 OA
ENDBRANCH  10  13
ENDBRANCH   4   9
BRANCH   1  18
HETATM   18  S1  UNL     1      11.111   2.111  -9.018  1.00  0.00     0.266 S
HETATM   19  O1  UNL     1      11.927   0.955  -8.492  1.00  0.00    -0.200 OA
HETATM   20  O2  UNL     1      11.996   3.063  -9.767  1.00  0.00    -0.200 OA
BRANCH  18  21
HETATM   21  N3  UNL     1      10.419   2.948  -7.709  1.00  0.00    -0.256 N
HETATM   22  C1  UNL     1      11.147   3.279  -6.709  1.00  0.00     0.210 C
HETATM   23  N1  UNL     1      12.523   2.953  -6.688  1.00  0.00    -0.066 NA
HETATM   24  N2  UNL     1      10.579   3.973  -5.621  1.00  0.00    -0.066 NA
ATOM     25  H3  UNL     1       9.427   3.186  -7.720  1.00  0.00     0.181 HD
ENDBRANCH  18  21
ENDBRANCH   1  18
TORSDOF 4
ENDMDL