MODEL 5
REMARK VINA RESULT: -7.108688153      3.160      7.107
REMARK  6 active torsions:
REMARK  status: ('A' for Active; 'I' for Inactive)
REMARK    1  A    between atoms: C12_13  and  O1_14
REMARK    2  A    between atoms: O1_14  and  C13_15
REMARK       I    between atoms: C13_15  and  N1_17
REMARK    3  A    between atoms: N1_17  and  C14_18
REMARK    4  A    between atoms: C14_18  and  C15_19
REMARK    5  A    between atoms: C14_18  and  C16_22
REMARK    6  A    between atoms: C16_22  and  C18_24
ROOT
HETATM    1  C1  UNL     1       3.775  -0.761  -6.233  1.00  0.00     0.015 C
HETATM    2  C2  UNL     1       3.921   0.114  -5.279  1.00  0.00    -0.076 C
HETATM    3  C3  UNL     1       4.742   1.334  -5.644  1.00  0.00     0.034 C
HETATM    4  C4  UNL     1       5.098   2.070  -4.416  1.00  0.00     0.006 C
HETATM    5  C5  UNL     1       3.962   2.429  -3.503  1.00  0.00     0.027 C
HETATM    6  C6  UNL     1       2.841   1.412  -3.550  1.00  0.00     0.047 C
HETATM    7  C7  UNL     1       1.848   1.782  -4.657  1.00  0.00     0.034 C
HETATM    8 CL1  UNL     1       1.972   1.459  -2.037  1.00  0.00    -0.118 Cl
HETATM    9  C8  UNL     1       3.367   0.045  -3.917  1.00  0.00     0.031 A
HETATM   10  C9  UNL     1       2.441  -1.072  -3.666  1.00  0.00     0.033 A
HETATM   11  C10 UNL     1       3.289  -1.647  -2.579  1.00  0.00     0.013 A
HETATM   12  C11 UNL     1       2.670  -1.643  -1.203  1.00  0.00     0.020 C
HETATM   13  C12 UNL     1       4.023  -2.931  -2.824  1.00  0.00     0.169 C
HETATM   14  C19 UNL     1       5.251  -2.491  -3.606  1.00  0.00     0.201 C
HETATM   15  O6  UNL     1       5.350  -1.149  -3.544  1.00  0.00    -0.381 OA
HETATM   16  C20 UNL     1       4.309  -0.578  -2.873  1.00  0.00     0.147 A
ENDROOT
BRANCH  13  17
HETATM   17  O1  UNL     1       4.535  -3.424  -1.601  1.00  0.00    -0.284 OA
BRANCH  17  18
HETATM   18  C13 UNL     1       5.045  -4.748  -1.440  1.00  0.00     0.436 C
HETATM   19  O2  UNL     1       4.127  -5.588  -1.404  1.00  0.00    -0.221 OA
HETATM   20  N1  UNL     1       6.405  -4.927  -1.346  1.00  0.00    -0.373 NA
BRANCH  20  21
HETATM   21  C14 UNL     1       7.751  -5.104  -1.253  1.00  0.00     0.281 C
BRANCH  21  22
HETATM   22  C15 UNL     1       8.359  -5.863  -2.395  1.00  0.00     0.211 C
HETATM   23  O3  UNL     1       9.539  -6.226  -2.300  1.00  0.00    -0.646 OA
HETATM   24  O4  UNL     1       7.622  -6.143  -3.512  1.00  0.00    -0.646 OA
ENDBRANCH  21  22
BRANCH  21  25
HETATM   25  C16 UNL     1       8.701  -3.945  -0.967  1.00  0.00     0.117 C
HETATM   26  C17 UNL     1       8.428  -3.441   0.468  1.00  0.00     0.023 C
BRANCH  25  27
HETATM   27  C18 UNL     1       8.480  -2.828  -1.892  1.00  0.00     0.238 C
HETATM   28  N2  UNL     1       8.843  -2.764  -3.256  1.00  0.00    -0.062 NA
HETATM   29  O5  UNL     1       7.902  -1.789  -1.445  1.00  0.00    -0.276 OA
ENDBRANCH  25  27
ENDBRANCH  21  25
ENDBRANCH  20  21
ENDBRANCH  17  18
ENDBRANCH  13  17
TORSDOF 6
ENDMDL