MODEL 4
REMARK VINA RESULT: -8.440256175      3.761      8.972
REMARK  4 active torsions:
REMARK  status: ('A' for Active; 'I' for Inactive)
REMARK       I    between atoms: C2_5  and  N3_6
REMARK       I    between atoms: C2_5  and  N5_21
REMARK       I    between atoms: N3_6  and  C3_8
REMARK    1  A    between atoms: C3_8  and  C4_10
REMARK    2  A    between atoms: C5_11  and  C6_12
REMARK    3  A    between atoms: N5_21  and  C13_23
REMARK    4  A    between atoms: C17_27  and  C18_28
ROOT
HETATM    1  N1  UNL     1       5.100   2.271  -4.485  1.00  0.00    -0.171 NA
HETATM    2  C1  UNL     1       5.652   2.125  -5.498  1.00  0.00     0.196 C
HETATM    3  N2  UNL     1       6.314   1.939  -6.716  1.00  0.00    -0.126 N
ATOM      4  H2  UNL     1       6.350   2.710  -7.382  1.00  0.00     0.197 HD
HETATM    5  C2  UNL     1       6.881   0.823  -7.020  1.00  0.00     0.694 C
HETATM    6  N3  UNL     1       6.821  -0.234  -6.084  1.00  0.00    -0.155 N
ATOM      7  H3  UNL     1       6.339  -0.108  -5.194  1.00  0.00     0.187 HD
HETATM    8  C3  UNL     1       7.441  -1.480  -6.396  1.00  0.00     0.259 C
HETATM    9  O1  UNL     1       8.041  -1.675  -7.478  1.00  0.00    -0.268 OA
HETATM   10  N5  UNL     1       7.544   0.664  -8.260  1.00  0.00    -0.191 N
ATOM     11  H5  UNL     1       7.125   0.084  -8.986  1.00  0.00     0.184 HD
ENDROOT
BRANCH  10  12
HETATM   12  C13 UNL     1       8.793   1.306  -8.502  1.00  0.00     0.050 A
HETATM   13  C14 UNL     1       9.509   1.854  -7.464  1.00  0.00     0.030 A
HETATM   14  C15 UNL     1      10.712   2.481  -7.644  1.00  0.00     0.003 A
HETATM   15  C16 UNL     1      11.206   2.554  -8.928  1.00  0.00     0.017 A
HETATM   16  C17 UNL     1      10.504   2.008 -10.011  1.00  0.00     0.031 A
HETATM   17  C19 UNL     1       9.295   1.385  -9.782  1.00  0.00     0.046 A
BRANCH  16  18
HETATM   18  C18 UNL     1      11.035   2.092 -11.359  1.00  0.00     0.265 C
HETATM   19  N6  UNL     1      12.378   2.495 -11.542  1.00  0.00    -0.057 NA
HETATM   20  O2  UNL     1      10.289   1.805 -12.324  1.00  0.00    -0.271 OA
ENDBRANCH  16  18
ENDBRANCH  10  12
BRANCH   8  21
HETATM   21  C4  UNL     1       7.375  -2.582  -5.412  1.00  0.00     0.076 C
HETATM   22  C5  UNL     1       6.266  -2.733  -4.717  1.00  0.00     0.018 C
BRANCH  22  23
HETATM   23  C6  UNL     1       6.092  -3.778  -3.727  1.00  0.00    -0.017 A
HETATM   24  C7  UNL     1       6.685  -3.705  -2.490  1.00  0.00     0.035 A
HETATM   25  C8  UNL     1       6.481  -4.735  -1.585  1.00  0.00     0.045 A
HETATM   26  C9  UNL     1       7.105  -4.642  -0.305  1.00  0.00     0.099 C
HETATM   27  C10 UNL     1       5.703  -5.816  -1.906  1.00  0.00     0.024 A
HETATM   28  N4  UNL     1       7.605  -4.560   0.727  1.00  0.00    -0.191 NA
HETATM   29  C11 UNL     1       5.114  -5.869  -3.159  1.00  0.00     0.021 A
HETATM   30  C12 UNL     1       5.298  -4.871  -4.064  1.00  0.00     0.021 A
HETATM   31 BR1  UNL     1       4.480  -4.954  -5.795  1.00  0.00    -0.050 Br
ENDBRANCH  22  23
ENDBRANCH   8  21
TORSDOF 4
ENDMDL