MODEL 4
REMARK VINA RESULT: -7.990972228      0.969      1.571
REMARK  9 active torsions:
REMARK  status: ('A' for Active; 'I' for Inactive)
REMARK    1  A    between atoms: C4_4  and  C5_5
REMARK    2  A    between atoms: C5_5  and  O1_6
REMARK    3  A    between atoms: N1_8  and  C6_10
REMARK    4  A    between atoms: C6_10  and  O2_11
REMARK    5  A    between atoms: C6_10  and  N2_13
REMARK    6  A    between atoms: N2_13  and  N3_15
REMARK       I    between atoms: N3_15  and  C7_17
REMARK    7  A    between atoms: C7_17  and  C8_19
REMARK    8  A    between atoms: C11_22  and  S1_23
REMARK    9  A    between atoms: S1_23  and  C12_26
ROOT
HETATM    1  N3  UNL     1       9.348   1.658 -10.568  1.00  0.00    -0.263 N
ATOM      2  H3  UNL     1       9.462   1.629  -9.554  1.00  0.00     0.190 HD
HETATM    3  C7  UNL     1       8.117   1.274 -11.142  1.00  0.00     0.270 C
HETATM    4  O3  UNL     1       7.973   1.308 -12.390  1.00  0.00    -0.266 OA
ENDROOT
BRANCH   3   5
HETATM    5  C8  UNL     1       7.040   0.846 -10.258  1.00  0.00     0.033 A
HETATM    6  C9  UNL     1       6.863  -0.500 -10.011  1.00  0.00     0.018 A
HETATM    7  C10 UNL     1       5.843  -0.930  -9.163  1.00  0.00     0.025 A
HETATM    8  C11 UNL     1       4.997  -0.036  -8.555  1.00  0.00     0.064 A
HETATM    9  C19 UNL     1       5.166   1.312  -8.794  1.00  0.00     0.025 A
HETATM   10  C20 UNL     1       6.188   1.739  -9.645  1.00  0.00     0.018 A
BRANCH   8  11
HETATM   11  S1  UNL     1       3.734  -0.646  -7.520  1.00  0.00     0.207 S
HETATM   12  O4  UNL     1       4.256  -1.937  -6.921  1.00  0.00    -0.217 OA
HETATM   13  O5  UNL     1       2.530  -1.026  -8.330  1.00  0.00    -0.217 OA
BRANCH  11  14
HETATM   14  C12 UNL     1       3.399   0.511  -6.294  1.00  0.00     0.073 A
HETATM   15  C13 UNL     1       2.172   1.137  -6.266  1.00  0.00     0.024 A
HETATM   16  C14 UNL     1       1.838   2.091  -5.314  1.00  0.00     0.005 A
HETATM   17  C15 UNL     1       2.760   2.451  -4.334  1.00  0.00     0.043 A
HETATM   18  C16 UNL     1       3.975   1.830  -4.364  1.00  0.00     0.123 A
HETATM   19  F1  UNL     1       4.909   2.141  -3.438  1.00  0.00    -0.206 F
HETATM   20  C17 UNL     1       4.293   0.887  -5.311  1.00  0.00    -0.002 A
HETATM   21  C18 UNL     1       5.608   0.218  -5.319  1.00  0.00     0.053 C
ENDBRANCH  11  14
ENDBRANCH   8  11
ENDBRANCH   3   5
BRANCH   1  22
HETATM   22  N2  UNL     1      10.441   2.089 -11.390  1.00  0.00    -0.262 N
ATOM     23  H2  UNL     1      10.337   2.210 -12.398  1.00  0.00     0.190 HD
BRANCH  22  24
HETATM   24  C6  UNL     1      11.646   2.333 -10.749  1.00  0.00     0.238 C
BRANCH  24  25
HETATM   25  N1  UNL     1      11.973   2.469  -9.416  1.00  0.00    -0.302 N
HETATM   26  C5  UNL     1      11.453   2.628  -8.201  1.00  0.00     0.142 C
ATOM     27  H1  UNL     1      12.989   2.436  -9.329  1.00  0.00     0.171 HD
BRANCH  26  28
HETATM   28  C4  UNL     1      10.352   2.880  -7.394  1.00  0.00     0.058 C
HETATM   29  C2  UNL     1       9.313   2.307  -6.947  1.00  0.00    -0.084 C
HETATM   30  C1  UNL     1       8.815   0.964  -7.148  1.00  0.00     0.043 C
HETATM   31  C3  UNL     1       8.419   3.189  -6.025  1.00  0.00     0.043 C
ENDBRANCH  26  28
BRANCH  26  32
HETATM   32  O1  UNL     1      12.542   2.463  -7.272  1.00  0.00    -0.346 OA
ATOM     33  H1  UNL     1      13.167   1.922  -7.740  1.00  0.00     0.219 HD
ENDBRANCH  26  32
ENDBRANCH  24  25
BRANCH  24  34
HETATM   34  O2  UNL     1      12.712   2.463 -11.542  1.00  0.00    -0.331 OA
ATOM     35  H2  UNL     1      12.853   1.692 -12.080  1.00  0.00     0.221 HD
ENDBRANCH  24  34
ENDBRANCH  22  24
ENDBRANCH   1  22
TORSDOF 9
ENDMDL