MODEL 3
REMARK VINA RESULT: -7.069968729      1.818      2.721
REMARK  6 active torsions:
REMARK  status: ('A' for Active; 'I' for Inactive)
REMARK    1  A    between atoms: C2_2  and  C3_3
REMARK    2  A    between atoms: C3_3  and  O1_4
REMARK    3  A    between atoms: O1_4  and  C4_5
REMARK    4  A    between atoms: C4_5  and  C5_7
REMARK    5  A    between atoms: C7_10  and  O3_11
REMARK    6  A    between atoms: C16_21  and  O4_22
ROOT
HETATM    1  C1  UNL     1       7.085  -2.452  -0.136  1.00  0.00     0.018 C
HETATM    2  C2  UNL     1       6.202  -2.644  -1.413  1.00  0.00    -0.013 C
HETATM    3  C6  UNL     1       6.956  -2.503  -2.604  1.00  0.00     0.072 C
HETATM    4  C7  UNL     1       7.877  -3.367  -3.344  1.00  0.00     0.134 C
HETATM    5  C8  UNL     1       8.954  -4.072  -2.554  1.00  0.00     0.087 C
HETATM    6  C9  UNL     1       8.381  -5.359  -2.093  1.00  0.00    -0.025 C
HETATM    7  C10 UNL     1       7.273  -5.466  -1.201  1.00  0.00    -0.020 C
HETATM    8  C11 UNL     1       5.869  -5.189  -1.434  1.00  0.00    -0.015 C
HETATM    9  C12 UNL     1       5.131  -6.106  -0.414  1.00  0.00     0.020 C
HETATM   10  C13 UNL     1       5.332  -3.809  -1.054  1.00  0.00     0.008 C
HETATM   11  C14 UNL     1       3.900  -3.796  -1.531  1.00  0.00     0.009 C
HETATM   12  C15 UNL     1       3.287  -5.066  -2.070  1.00  0.00     0.039 C
HETATM   13  C16 UNL     1       4.074  -6.004  -2.867  1.00  0.00     0.067 A
HETATM   14  C17 UNL     1       5.239  -6.249  -3.676  1.00  0.00     0.033 A
HETATM   15  C18 UNL     1       5.558  -5.755  -5.082  1.00  0.00     0.052 C
HETATM   16  C19 UNL     1       6.384  -4.441  -5.046  1.00  0.00     0.059 C
HETATM   17  N1  UNL     1       7.434  -4.411  -4.178  1.00  0.00    -0.371 N
ATOM     18  H1  UNL     1       7.978  -5.271  -4.125  1.00  0.00     0.161 HD
HETATM   19  C20 UNL     1       5.296  -5.258  -2.792  1.00  0.00     0.040 A
ENDROOT
BRANCH   2  20
HETATM   20  C3  UNL     1       5.275  -1.443  -1.267  1.00  0.00     0.188 C
BRANCH  20  21
HETATM   21  O1  UNL     1       5.097  -0.538  -2.224  1.00  0.00    -0.320 OA
BRANCH  21  22
HETATM   22  C4  UNL     1       4.228   0.197  -2.883  1.00  0.00     0.268 C
HETATM   23  O2  UNL     1       3.063  -0.245  -3.056  1.00  0.00    -0.264 OA
BRANCH  22  24
HETATM   24  C5  UNL     1       4.533   1.551  -3.458  1.00  0.00     0.196 C
HETATM   25 BR1  UNL     1       3.141   2.824  -3.080  1.00  0.00    -0.086 Br
ENDBRANCH  22  24
ENDBRANCH  21  22
ENDBRANCH  20  21
ENDBRANCH   2  20
BRANCH   4  26
HETATM   26  O3  UNL     1       8.589  -2.515  -4.244  1.00  0.00    -0.371 OA
ATOM     27  H3  UNL     1       8.202  -2.651  -5.101  1.00  0.00     0.212 HD
ENDBRANCH   4  26
BRANCH  13  28
HETATM   28  O4  UNL     1       3.442  -7.197  -2.931  1.00  0.00    -0.389 OA
ATOM     29  H4  UNL     1       3.665  -7.723  -2.173  1.00  0.00     0.210 HD
ENDBRANCH  13  28
TORSDOF 6
ENDMDL