MODEL 2
REMARK VINA RESULT: -6.960227471      0.811      1.044
REMARK  6 active torsions:
REMARK  status: ('A' for Active; 'I' for Inactive)
REMARK    1  A    between atoms: C2_2  and  C3_3
REMARK       I    between atoms: C3_3  and  N1_5
REMARK    2  A    between atoms: C4_6  and  C5_7
REMARK       I    between atoms: C5_7  and  N2_9
REMARK    3  A    between atoms: N2_9  and  C6_11
REMARK    4  A    between atoms: C13_18  and  O3_19
REMARK    5  A    between atoms: O3_19  and  C14_20
REMARK       I    between atoms: C14_20  and  N3_22
REMARK    6  A    between atoms: N3_22  and  C15_24
ROOT
HETATM    1  C3  UNL     1       5.523  -0.207  -9.949  1.00  0.00     0.221 C
HETATM    2  O1  UNL     1       4.502   0.535 -10.067  1.00  0.00    -0.273 OA
HETATM    3  N1  UNL     1       5.913  -0.608  -8.645  1.00  0.00    -0.318 N
HETATM    4  C4  UNL     1       7.040  -1.429  -8.362  1.00  0.00     0.183 C
HETATM    5  C12 UNL     1       6.796  -1.991  -6.969  1.00  0.00     0.071 C
HETATM    6  C13 UNL     1       6.002  -0.894  -6.274  1.00  0.00     0.173 C
HETATM    7  C20 UNL     1       5.241  -0.272  -7.419  1.00  0.00     0.214 C
HETATM    8 CL1  UNL     1       5.092   1.465  -7.129  1.00  0.00    -0.100 Cl
ENDROOT
BRANCH   6   9
HETATM    9  O3  UNL     1       5.160  -1.431  -5.271  1.00  0.00    -0.295 OA
BRANCH   9  10
HETATM   10  C14 UNL     1       5.618  -1.536  -3.979  1.00  0.00     0.361 C
HETATM   11  O4  UNL     1       5.070  -0.839  -3.087  1.00  0.00    -0.238 OA
HETATM   12  N3  UNL     1       6.686  -2.394  -3.593  1.00  0.00    -0.331 N
ATOM     13  H3  UNL     1       7.133  -2.961  -4.313  1.00  0.00     0.165 HD
BRANCH  12  14
HETATM   14  C15 UNL     1       7.167  -2.503  -2.253  1.00  0.00     0.104 C
HETATM   15  C16 UNL     1       8.676  -2.644  -2.184  1.00  0.00     0.028 C
HETATM   16  C17 UNL     1       9.024  -2.381  -0.713  1.00  0.00     0.021 C
HETATM   17  C18 UNL     1       8.333  -3.370   0.183  1.00  0.00     0.114 C
HETATM   18  N4  UNL     1       6.954  -3.579  -0.091  1.00  0.00    -0.419 N
HETATM   19  C19 UNL     1       6.570  -3.624  -1.459  1.00  0.00     0.139 C
ATOM     20  H4  UNL     1       6.272  -3.692   0.659  1.00  0.00     0.153 HD
ENDBRANCH  12  14
ENDBRANCH   9  10
ENDBRANCH   6   9
BRANCH   4  21
HETATM   21  C5  UNL     1       8.356  -0.755  -8.446  1.00  0.00     0.241 C
HETATM   22  O2  UNL     1       9.364  -1.478  -8.733  1.00  0.00    -0.271 OA
HETATM   23  N2  UNL     1       8.499   0.631  -8.217  1.00  0.00    -0.355 N
ATOM     24  H2  UNL     1       7.663   1.171  -7.991  1.00  0.00     0.162 HD
BRANCH  23  25
HETATM   25  C6  UNL     1       9.753   1.321  -8.287  1.00  0.00     0.084 C
HETATM   26  C7  UNL     1       9.894   2.438  -7.280  1.00  0.00     0.025 C
HETATM   27  C8  UNL     1      11.398   2.702  -7.153  1.00  0.00     0.002 C
HETATM   28  C9  UNL     1      11.867   3.229  -8.479  1.00  0.00     0.000 C
HETATM   29  C10 UNL     1      11.550   2.304  -9.606  1.00  0.00     0.002 C
HETATM   30  C11 UNL     1      10.102   1.861  -9.632  1.00  0.00     0.025 C
ENDBRANCH  23  25
ENDBRANCH   4  21
BRANCH   1  31
HETATM   31  C2  UNL     1       6.230  -0.599 -11.193  1.00  0.00     0.098 C
HETATM   32  C1  UNL     1       7.080   0.564 -11.644  1.00  0.00     0.014 C
ENDBRANCH   1  31
TORSDOF 6
ENDMDL