MODEL 2
REMARK VINA RESULT: -6.547037290      5.323      8.176
REMARK  7 active torsions:
REMARK  status: ('A' for Active; 'I' for Inactive)
REMARK       I    between atoms: C2_2  and  N1_4
REMARK    1  A    between atoms: N1_4  and  C3_6
REMARK    2  A    between atoms: C5_8  and  C6_9
REMARK    3  A    between atoms: C6_9  and  N2_10
REMARK    4  A    between atoms: C8_14  and  N3_15
REMARK    5  A    between atoms: N3_15  and  C9_17
REMARK    6  A    between atoms: C9_17  and  N4_19
REMARK    7  A    between atoms: N4_19  and  C10_21
ROOT
HETATM    1  N2  UNL     1       5.284  -3.665  -1.047  1.00  0.00    -0.377 N
ATOM      2  H2  UNL     1       6.079  -3.027  -1.070  1.00  0.00     0.160 HD
HETATM    3  C7  UNL     1       4.108  -3.147  -1.183  1.00  0.00     0.141 A
HETATM    4  S1  UNL     1       3.897  -1.461  -1.392  1.00  0.00    -0.048 SA
HETATM    5  C8  UNL     1       2.225  -0.970  -1.556  1.00  0.00     0.094 A
HETATM    6  C14 UNL     1       1.388  -2.033  -1.487  1.00  0.00     0.131 A
HETATM    7  N5  UNL     1       1.705  -3.324  -1.318  1.00  0.00    -0.324 N
HETATM    8  C15 UNL     1       0.550  -4.261  -1.284  1.00  0.00     0.159 C
HETATM    9  C16 UNL     1       2.929  -3.848  -1.178  1.00  0.00     0.280 A
HETATM   10  O2  UNL     1       3.016  -5.126  -1.024  1.00  0.00    -0.265 OA
ENDROOT
BRANCH   1  11
HETATM   11  C6  UNL     1       5.567  -5.036  -0.870  1.00  0.00     0.152 C
BRANCH  11  12
HETATM   12  C5  UNL     1       6.898  -5.216  -0.094  1.00  0.00     0.143 C
HETATM   13  C4  UNL     1       7.899  -5.711  -1.102  1.00  0.00     0.062 C
HETATM   14  C3  UNL     1       8.667  -4.422  -1.398  1.00  0.00     0.130 C
HETATM   15  C17 UNL     1       8.613  -3.785  -0.003  1.00  0.00     0.240 C
HETATM   16  O3  UNL     1       7.277  -3.965   0.315  1.00  0.00    -0.362 OA
HETATM   17 CL1  UNL     1       9.086  -2.089  -0.077  1.00  0.00    -0.093 Cl
BRANCH  14  18
HETATM   18  N1  UNL     1      10.005  -4.679  -1.811  1.00  0.00    -0.353 N
HETATM   19  C2  UNL     1      10.255  -5.659  -2.790  1.00  0.00     0.214 C
HETATM   20  C1  UNL     1      11.641  -5.930  -3.224  1.00  0.00     0.117 C
HETATM   21  O1  UNL     1       9.300  -6.318  -3.309  1.00  0.00    -0.274 OA
ATOM     22  H1  UNL     1      10.778  -4.156  -1.400  1.00  0.00     0.163 HD
ENDBRANCH  14  18
ENDBRANCH  11  12
ENDBRANCH   1  11
BRANCH   5  23
HETATM   23  N3  UNL     1       1.929   0.398  -1.734  1.00  0.00    -0.326 N
ATOM     24  H3  UNL     1       1.486   0.827  -0.922  1.00  0.00     0.169 HD
BRANCH  23  25
HETATM   25  C9  UNL     1       2.117   1.265  -2.774  1.00  0.00     0.173 C
HETATM   26  S2  UNL     1       2.794   2.759  -2.276  1.00  0.00    -0.041 SA
BRANCH  25  27
HETATM   27  N4  UNL     1       1.863   1.159  -4.146  1.00  0.00    -0.359 N
ATOM     28  H4  UNL     1       1.010   1.557  -4.538  1.00  0.00     0.162 HD
BRANCH  27  29
HETATM   29  C10 UNL     1       2.836   0.468  -5.031  1.00  0.00     0.021 C
HETATM   30  C11 UNL     1       2.723   1.068  -6.409  1.00  0.00     0.037 C
HETATM   31  C12 UNL     1       4.232   0.660  -4.518  1.00  0.00     0.037 C
HETATM   32  C13 UNL     1       2.534  -0.994  -5.108  1.00  0.00     0.037 C
ENDBRANCH  27  29
ENDBRANCH  25  27
ENDBRANCH  23  25
ENDBRANCH   5  23
TORSDOF 7
ENDMDL