MODEL 3
REMARK VINA RESULT: -6.768505082      5.066      7.784
REMARK  8 active torsions:
REMARK  status: ('A' for Active; 'I' for Inactive)
REMARK    1  A    between atoms: C1_2  and  O2_3
REMARK    2  A    between atoms: C1_2  and  C9_19
REMARK    3  A    between atoms: O2_3  and  C2_4
REMARK    4  A    between atoms: C2_4  and  C3_5
REMARK    5  A    between atoms: C5_8  and  O3_9
REMARK    6  A    between atoms: C5_8  and  C6_11
REMARK    7  A    between atoms: C6_11  and  O4_12
REMARK    8  A    between atoms: C7_14  and  C8_15
ROOT
HETATM    1  C2  UNL     1       6.148  -4.344  -5.201  1.00  0.00     0.211 C
ENDROOT
BRANCH   1   2
HETATM    2  O2  UNL     1       5.529  -3.206  -5.594  1.00  0.00    -0.315 OA
BRANCH   2   3
HETATM    3  C1  UNL     1       5.761  -1.905  -5.716  1.00  0.00     0.293 C
HETATM    4  O1  UNL     1       5.259  -1.099  -4.929  1.00  0.00    -0.259 OA
BRANCH   3   5
HETATM    5  C9  UNL     1       6.618  -1.327  -6.782  1.00  0.00     0.040 A
HETATM    6  C10 UNL     1       6.534  -1.797  -8.068  1.00  0.00     0.018 A
HETATM    7  C11 UNL     1       7.339  -1.243  -9.034  1.00  0.00     0.013 A
HETATM    8  C12 UNL     1       8.232  -0.227  -8.751  1.00  0.00    -0.025 A
HETATM    9  C13 UNL     1       9.035   0.320  -9.733  1.00  0.00     0.031 A
HETATM   10  C17 UNL     1       8.328   0.260  -7.444  1.00  0.00    -0.025 A
HETATM   11  C14 UNL     1       9.909   1.328  -9.404  1.00  0.00     0.011 A
HETATM   12 BR1  UNL     1      11.018   2.090 -10.743  1.00  0.00    -0.051 Br
HETATM   13  C15 UNL     1      10.001   1.811  -8.102  1.00  0.00     0.020 A
HETATM   14  C16 UNL     1       9.202   1.266  -7.134  1.00  0.00     0.013 A
HETATM   15  C18 UNL     1       7.503  -0.318  -6.493  1.00  0.00     0.030 A
ENDBRANCH   3   5
ENDBRANCH   2   3
ENDBRANCH   1   2
BRANCH   1  16
HETATM   16  C3  UNL     1       6.767  -4.443  -3.835  1.00  0.00     0.156 C
HETATM   17  C4  UNL     1       5.851  -4.013  -2.753  1.00  0.00     0.111 C
HETATM   18  S1  UNL     1       6.638  -2.668  -1.806  1.00  0.00    -0.124 SA
HETATM   19  C5  UNL     1       8.372  -3.271  -1.572  1.00  0.00     0.163 C
HETATM   20  C7  UNL     1       8.840  -3.947  -2.812  1.00  0.00     0.269 C
HETATM   21  O7  UNL     1       8.012  -3.903  -3.891  1.00  0.00    -0.363 OA
BRANCH  19  22
HETATM   22  O3  UNL     1       9.078  -2.080  -1.278  1.00  0.00    -0.374 OA
ATOM     23  H3  UNL     1       9.976  -2.382  -1.204  1.00  0.00     0.211 HD
ENDBRANCH  19  22
BRANCH  19  24
HETATM   24  C6  UNL     1       8.415  -4.090  -0.317  1.00  0.00     0.216 C
BRANCH  24  25
HETATM   25  O4  UNL     1       7.584  -3.634   0.691  1.00  0.00    -0.397 OA
ATOM     26  H4  UNL     1       6.896  -4.242   0.937  1.00  0.00     0.209 HD
ENDBRANCH  24  25
ENDBRANCH  19  24
BRANCH  20  27
HETATM   27  C8  UNL     1       9.457  -5.290  -2.600  1.00  0.00     0.207 C
HETATM   28  O5  UNL     1      10.689  -5.424  -2.341  1.00  0.00    -0.646 OA
HETATM   29  O6  UNL     1       8.761  -6.486  -2.662  1.00  0.00    -0.646 OA
ENDBRANCH  20  27
ENDBRANCH   1  16
TORSDOF 8
ENDMDL