MODEL 2
REMARK VINA RESULT: -7.234781482      2.969      3.812
REMARK  7 active torsions:
REMARK  status: ('A' for Active; 'I' for Inactive)
REMARK    1  A    between atoms: N1_1  and  S1_4
REMARK    2  A    between atoms: S1_4  and  C1_7
REMARK    3  A    between atoms: C5_11  and  C6_12
REMARK    4  A    between atoms: C6_12  and  N2_13
REMARK    5  A    between atoms: N2_13  and  N3_15
REMARK    6  A    between atoms: N3_15  and  C7_17
REMARK    7  A    between atoms: N5_22  and  C9_24
ROOT
HETATM    1  N3  UNL     1       5.702  -3.205  -6.292  1.00  0.00    -0.273 N
ATOM      2  H3  UNL     1       4.687  -3.106  -6.296  1.00  0.00     0.189 HD
ENDROOT
BRANCH   1   3
HETATM    3  N2  UNL     1       6.255  -4.321  -5.847  1.00  0.00    -0.309 N
ATOM      4  H2  UNL     1       6.905  -4.701  -6.535  1.00  0.00     0.186 HD
BRANCH   3   5
HETATM    5  C6  UNL     1       6.215  -5.026  -4.855  1.00  0.00     0.118 C
BRANCH   5   6
HETATM    6  C5  UNL     1       7.035  -5.014  -3.662  1.00  0.00    -0.018 A
HETATM    7  C4  UNL     1       7.847  -6.074  -3.336  1.00  0.00     0.013 A
HETATM    8  C3  UNL     1       8.627  -5.989  -2.190  1.00  0.00     0.002 A
HETATM    9  C2  UNL     1       8.590  -4.867  -1.391  1.00  0.00     0.025 A
HETATM   10  C1  UNL     1       7.780  -3.786  -1.694  1.00  0.00     0.080 A
HETATM   11  C15 UNL     1       7.015  -3.876  -2.823  1.00  0.00     0.038 A
BRANCH  10  12
HETATM   12  S1  UNL     1       7.803  -2.380  -0.649  1.00  0.00     0.256 S
HETATM   13  O1  UNL     1       7.389  -2.690   0.748  1.00  0.00    -0.201 OA
HETATM   14  O2  UNL     1       9.220  -1.825  -0.595  1.00  0.00    -0.201 OA
BRANCH  12  15
HETATM   15  N1  UNL     1       6.784  -1.134  -1.276  1.00  0.00    -0.324 N
ATOM     16  H12 UNL     1       5.926  -0.809  -0.831  1.00  0.00     0.169 HD
ATOM     17  H11 UNL     1       7.181  -0.787  -2.149  1.00  0.00     0.169 HD
ENDBRANCH  12  15
ENDBRANCH  10  12
ENDBRANCH   5   6
ENDBRANCH   3   5
ENDBRANCH   1   3
BRANCH   1  18
HETATM   18  C7  UNL     1       6.463  -2.218  -6.733  1.00  0.00     0.230 A
HETATM   19  O3  UNL     1       7.345  -1.546  -6.071  1.00  0.00    -0.208 OA
HETATM   20  N4  UNL     1       7.998  -0.632  -6.613  1.00  0.00    -0.236 N
HETATM   21  C8  UNL     1       7.779  -0.344  -7.895  1.00  0.00     0.173 A
ATOM     22  H4  UNL     1       8.694  -0.109  -6.080  1.00  0.00     0.197 HD
HETATM   23  N5  UNL     1       8.350   0.563  -8.651  1.00  0.00    -0.335 N
HETATM   24  S2  UNL     1       6.559  -1.490  -8.272  1.00  0.00    -0.005 SA
ATOM     25  H5  UNL     1       8.092   0.680  -9.631  1.00  0.00     0.168 HD
BRANCH  23  26
HETATM   26  C9  UNL     1       9.331   1.363  -8.053  1.00  0.00     0.034 A
HETATM   27  C10 UNL     1       9.132   2.152  -6.942  1.00  0.00     0.031 A
HETATM   28  C11 UNL     1      10.152   2.914  -6.410  1.00  0.00     0.021 A
HETATM   29  C12 UNL     1      11.416   2.915  -6.975  1.00  0.00     0.011 A
HETATM   30 BR1  UNL     1      12.842   3.978  -6.243  1.00  0.00    -0.051 Br
HETATM   31  C13 UNL     1      11.638   2.134  -8.086  1.00  0.00     0.021 A
HETATM   32  C14 UNL     1      10.603   1.363  -8.624  1.00  0.00     0.031 A
ENDBRANCH  23  26
ENDBRANCH   1  18
TORSDOF 7
ENDMDL