MODEL 5
REMARK VINA RESULT: -7.055469740      4.482      5.595
REMARK  9 active torsions:
REMARK  status: ('A' for Active; 'I' for Inactive)
REMARK    1  A    between atoms: C2_2  and  C3_4
REMARK    2  A    between atoms: C3_4  and  O2_6
REMARK    3  A    between atoms: O2_6  and  C4_7
REMARK    4  A    between atoms: C11_14  and  C12_15
REMARK    5  A    between atoms: C12_15  and  O3_16
REMARK    6  A    between atoms: O3_16  and  C13_17
REMARK    7  A    between atoms: C16_21  and  O5_22
REMARK    8  A    between atoms: C17_24  and  O6_25
REMARK    9  A    between atoms: C23_34  and  O7_35
ROOT
HETATM    1  C4  UNL     1       1.731   1.783  -6.270  1.00  0.00     0.162 C
HETATM    2  C5  UNL     1       2.295   1.939  -4.882  1.00  0.00     0.041 C
HETATM    3  C6  UNL     1       2.835   0.587  -4.585  1.00  0.00     0.009 C
HETATM    4  C7  UNL     1       3.789   0.468  -3.473  1.00  0.00    -0.019 C
HETATM    5  C8  UNL     1       4.316   1.832  -2.993  1.00  0.00     0.018 C
HETATM    6  C9  UNL     1       3.069  -0.119  -2.270  1.00  0.00     0.017 C
HETATM    7  C10 UNL     1       3.684  -1.361  -1.734  1.00  0.00     0.055 C
HETATM    8  C11 UNL     1       5.165  -1.298  -1.713  1.00  0.00     0.006 C
HETATM    9  N1  UNL     1       5.746  -0.805  -2.724  1.00  0.00    -0.389 N
ATOM     10  H1  UNL     1       6.764  -0.750  -2.733  1.00  0.00     0.159 HD
HETATM   11  C18 UNL     1       4.998  -0.312  -3.874  1.00  0.00     0.089 C
HETATM   12  C19 UNL     1       4.782  -1.444  -4.792  1.00  0.00     0.027 C
HETATM   13  C20 UNL     1       3.709  -1.290  -5.807  1.00  0.00     0.014 C
HETATM   14  C21 UNL     1       3.333   0.136  -5.938  1.00  0.00    -0.011 C
HETATM   15  C22 UNL     1       4.340   1.012  -6.570  1.00  0.00     0.018 C
HETATM   16  C23 UNL     1       2.017   0.343  -6.711  1.00  0.00     0.156 C
ENDROOT
BRANCH   8  17
HETATM   17  C12 UNL     1       5.886  -1.814  -0.518  1.00  0.00     0.223 C
BRANCH  17  18
HETATM   18  O3  UNL     1       6.024  -3.196  -0.569  1.00  0.00    -0.353 OA
BRANCH  18  19
HETATM   19  C13 UNL     1       7.321  -3.554  -0.260  1.00  0.00     0.291 C
HETATM   20  O4  UNL     1       7.547  -4.910  -0.335  1.00  0.00    -0.351 OA
HETATM   21  C14 UNL     1       8.487  -5.183  -1.290  1.00  0.00     0.152 C
HETATM   22  C15 UNL     1       7.909  -5.699  -2.589  1.00  0.00     0.042 C
HETATM   23  C16 UNL     1       9.310  -3.930  -1.508  1.00  0.00     0.180 C
HETATM   24  C17 UNL     1       8.275  -2.858  -1.202  1.00  0.00     0.204 C
BRANCH  23  25
HETATM   25  O5  UNL     1       9.756  -3.808  -2.809  1.00  0.00    -0.390 OA
ATOM     26  H5  UNL     1      10.457  -4.416  -3.013  1.00  0.00     0.210 HD
ENDBRANCH  23  25
BRANCH  24  27
HETATM   27  O6  UNL     1       8.834  -1.756  -0.592  1.00  0.00    -0.388 OA
ATOM     28  H6  UNL     1       9.556  -1.421  -1.110  1.00  0.00     0.210 HD
ENDBRANCH  24  27
ENDBRANCH  18  19
ENDBRANCH  17  18
ENDBRANCH   8  17
BRANCH   1  29
HETATM   29  O2  UNL     1       0.426   2.164  -6.434  1.00  0.00    -0.308 OA
BRANCH  29  30
HETATM   30  C3  UNL     1      -0.218   2.159  -7.649  1.00  0.00     0.321 C
HETATM   31  O1  UNL     1      -1.178   1.384  -7.762  1.00  0.00    -0.257 OA
BRANCH  30  32
HETATM   32  C2  UNL     1       0.175   3.003  -8.770  1.00  0.00     0.181 C
HETATM   33  C1  UNL     1       0.733   2.482  -9.850  1.00  0.00     0.063 C
HETATM   34  F1  UNL     1      -0.034   4.322  -8.706  1.00  0.00    -0.201 F
ENDBRANCH  30  32
ENDBRANCH  29  30
ENDBRANCH   1  29
BRANCH  16  35
HETATM   35  O7  UNL     1       1.064  -0.537  -6.258  1.00  0.00    -0.392 OA
ATOM     36  H7  UNL     1       1.214  -0.796  -5.356  1.00  0.00     0.210 HD
ENDBRANCH  16  35
TORSDOF 9
ENDMDL