MODEL 1
REMARK VINA RESULT: -7.525367078      0.000      0.000
REMARK  8 active torsions:
REMARK  status: ('A' for Active; 'I' for Inactive)
REMARK    1  A    between atoms: C3_5  and  O3_6
REMARK    2  A    between atoms: O3_6  and  C4_7
REMARK    3  A    between atoms: C4_7  and  C5_9
REMARK    4  A    between atoms: C6_10  and  C7_11
REMARK    5  A    between atoms: C12_17  and  C13_18
REMARK    6  A    between atoms: C17_22  and  O5_23
REMARK    7  A    between atoms: C18_25  and  O6_26
REMARK    8  A    between atoms: C19_28  and  O7_29
ROOT
HETATM    1  O3  UNL     1       6.548  -2.045  -4.325  1.00  0.00    -0.281 OA
ENDROOT
BRANCH   1   2
HETATM    2  C3  UNL     1       7.612  -2.714  -3.670  1.00  0.00     0.338 C
HETATM    3  O2  UNL     1       7.637  -4.076  -4.032  1.00  0.00    -0.199 OA
HETATM    4  O1  UNL     1       7.460  -4.845  -2.952  1.00  0.00    -0.198 OA
HETATM    5  C2  UNL     1       8.318  -5.054  -1.883  1.00  0.00     0.106 C
HETATM    6  C1  UNL     1       8.257  -6.230  -1.287  1.00  0.00     0.052 C
HETATM    7  C19 UNL     1       9.317  -4.127  -1.297  1.00  0.00     0.208 C
HETATM    8  C18 UNL     1       8.975  -2.698  -1.653  1.00  0.00     0.187 C
HETATM    9  C17 UNL     1       7.573  -2.546  -2.177  1.00  0.00     0.208 C
BRANCH   7  10
HETATM   10  O7  UNL     1      10.602  -4.434  -1.751  1.00  0.00    -0.386 OA
ATOM     11  H7  UNL     1      11.040  -3.655  -2.072  1.00  0.00     0.210 HD
ENDBRANCH   7  10
BRANCH   8  12
HETATM   12  O6  UNL     1       9.155  -1.926  -0.487  1.00  0.00    -0.390 OA
ATOM     13  H6  UNL     1       9.584  -2.437   0.188  1.00  0.00     0.210 HD
ENDBRANCH   8  12
BRANCH   9  14
HETATM   14  O5  UNL     1       7.103  -1.253  -1.897  1.00  0.00    -0.388 OA
ATOM     15  H5  UNL     1       6.644  -1.280  -1.066  1.00  0.00     0.210 HD
ENDBRANCH   9  14
ENDBRANCH   1   2
BRANCH   1  16
HETATM   16  C4  UNL     1       6.532  -1.836  -5.698  1.00  0.00     0.285 C
HETATM   17  O4  UNL     1       5.499  -2.210  -6.300  1.00  0.00    -0.260 OA
BRANCH  16  18
HETATM   18  C5  UNL     1       7.601  -1.233  -6.452  1.00  0.00     0.083 C
HETATM   19  C6  UNL     1       7.441  -0.150  -7.218  1.00  0.00     0.018 C
BRANCH  19  20
HETATM   20  C7  UNL     1       8.461   0.488  -7.985  1.00  0.00    -0.028 A
HETATM   21  C8  UNL     1       9.424   1.239  -7.327  1.00  0.00     0.031 A
HETATM   22  C9  UNL     1      10.417   1.867  -8.057  1.00  0.00     0.011 A
HETATM   23 BR1  UNL     1      11.729   2.898  -7.106  1.00  0.00    -0.051 Br
HETATM   24  C10 UNL     1      10.460   1.755  -9.419  1.00  0.00     0.019 A
HETATM   25  C11 UNL     1       9.484   0.997 -10.041  1.00  0.00     0.010 A
HETATM   26  C12 UNL     1       8.468   0.347  -9.366  1.00  0.00    -0.040 A
BRANCH  26  27
HETATM   27  C13 UNL     1       7.518  -0.419 -10.140  1.00  0.00    -0.023 C
HETATM   28  C14 UNL     1       7.744  -0.137 -11.623  1.00  0.00     0.019 C
HETATM   29  C15 UNL     1       7.572  -1.906 -10.007  1.00  0.00     0.019 C
HETATM   30  C16 UNL     1       6.078   0.040  -9.882  1.00  0.00     0.019 C
ENDBRANCH  26  27
ENDBRANCH  19  20
ENDBRANCH  16  18
ENDBRANCH   1  16
TORSDOF 8
ENDMDL