MODEL 5
REMARK VINA RESULT: -6.503779819      1.747      2.518
REMARK  9 active torsions:
REMARK  status: ('A' for Active; 'I' for Inactive)
REMARK    1  A    between atoms: S1_2  and  C2_3
REMARK    2  A    between atoms: C2_3  and  N1_5
REMARK    3  A    between atoms: N1_5  and  C3_7
REMARK    4  A    between atoms: C3_7  and  N2_8
REMARK    5  A    between atoms: N2_8  and  N3_10
REMARK    6  A    between atoms: N3_10  and  S3_12
REMARK    7  A    between atoms: S3_12  and  C4_15
REMARK    8  A    between atoms: C7_18  and  N4_19
REMARK       I    between atoms: N4_19  and  C8_21
REMARK       I    between atoms: C8_21  and  N5_23
REMARK    9  A    between atoms: N5_23  and  C9_25
ROOT
HETATM    1  C4  UNL     1       3.775   1.637  -5.078  1.00  0.00     0.081 A
HETATM    2  C5  UNL     1       3.867   1.000  -6.272  1.00  0.00     0.027 A
HETATM    3  C6  UNL     1       5.087   0.805  -6.861  1.00  0.00     0.031 A
HETATM    4  C7  UNL     1       6.289   1.245  -6.277  1.00  0.00     0.036 A
HETATM    5  C13 UNL     1       6.151   1.880  -5.080  1.00  0.00     0.031 A
HETATM    6  C14 UNL     1       4.902   2.089  -4.458  1.00  0.00     0.027 A
ENDROOT
BRANCH   1   7
HETATM    7  S3  UNL     1       2.226   1.914  -4.272  1.00  0.00     0.276 S
HETATM    8  O1  UNL     1       2.361   3.123  -3.418  1.00  0.00    -0.199 OA
HETATM    9  O2  UNL     1       1.215   2.103  -5.383  1.00  0.00    -0.199 OA
BRANCH   7  10
HETATM   10  N3  UNL     1       1.799   0.507  -3.363  1.00  0.00    -0.215 N
ATOM     11  H3  UNL     1       1.434  -0.309  -3.853  1.00  0.00     0.201 HD
BRANCH  10  12
HETATM   12  N2  UNL     1       1.943   0.457  -1.972  1.00  0.00    -0.241 N
ATOM     13  H2  UNL     1       1.518   1.154  -1.360  1.00  0.00     0.199 HD
BRANCH  12  14
HETATM   14  C3  UNL     1       2.637  -0.513  -1.511  1.00  0.00     0.070 C
BRANCH  14  15
HETATM   15  N1  UNL     1       3.316  -1.464  -1.006  1.00  0.00    -0.292 N
ATOM     16  H1  UNL     1       2.918  -2.093  -0.308  1.00  0.00     0.178 HD
BRANCH  15  17
HETATM   17  C2  UNL     1       4.656  -1.607  -1.461  1.00  0.00     0.146 C
HETATM   18  S2  UNL     1       5.035  -1.459  -3.040  1.00  0.00    -0.052 SA
BRANCH  17  19
HETATM   19  S1  UNL     1       5.985  -1.955  -0.322  1.00  0.00    -0.104 SA
HETATM   20  C1  UNL     1       7.524  -2.291  -1.234  1.00  0.00     0.098 C
ENDBRANCH  17  19
ENDBRANCH  15  17
ENDBRANCH  14  15
ENDBRANCH  12  14
ENDBRANCH  10  12
ENDBRANCH   7  10
ENDBRANCH   1   7
BRANCH   4  21
HETATM   21  N4  UNL     1       7.507   1.028  -6.952  1.00  0.00    -0.309 N
HETATM   22  C8  UNL     1       7.869   1.574  -8.185  1.00  0.00     0.326 C
HETATM   23  O3  UNL     1       7.149   2.332  -8.837  1.00  0.00    -0.247 OA
HETATM   24  N5  UNL     1       9.169   1.224  -8.724  1.00  0.00    -0.293 N
ATOM     25  H5  UNL     1       9.253   0.614  -9.536  1.00  0.00     0.172 HD
ATOM     26  H4  UNL     1       8.186   0.417  -6.499  1.00  0.00     0.170 HD
BRANCH  24  27
HETATM   27  C9  UNL     1      10.234   1.715  -8.138  1.00  0.00     0.132 A
HETATM   28  C10 UNL     1      10.300   2.644  -7.121  1.00  0.00     0.084 A
HETATM   29  C11 UNL     1      11.634   2.850  -6.833  1.00  0.00     0.076 A
HETATM   30  C12 UNL     1      12.237   3.754  -5.819  1.00  0.00     0.079 C
HETATM   31  O4  UNL     1      12.312   2.076  -7.647  1.00  0.00    -0.241 OA
HETATM   32  N6  UNL     1      11.510   1.401  -8.420  1.00  0.00    -0.245 N
ATOM     33  H6  UNL     1      11.806   0.734  -9.133  1.00  0.00     0.196 HD
ENDBRANCH  24  27
ENDBRANCH   4  21
TORSDOF 9
ENDMDL