MODEL 4
REMARK VINA RESULT: -7.755204263      1.369      1.802
REMARK  8 active torsions:
REMARK  status: ('A' for Active; 'I' for Inactive)
REMARK    1  A    between atoms: O1_2  and  C2_3
REMARK       I    between atoms: C2_3  and  N1_5
REMARK    2  A    between atoms: N1_5  and  C3_6
REMARK    3  A    between atoms: C3_6  and  N2_7
REMARK    4  A    between atoms: C3_6  and  C11_18
REMARK       I    between atoms: N2_7  and  C4_9
REMARK    5  A    between atoms: C4_9  and  C5_11
REMARK       I    between atoms: C11_18  and  N3_20
REMARK    6  A    between atoms: N3_20  and  N4_22
REMARK       I    between atoms: N4_22  and  C12_24
REMARK    7  A    between atoms: C12_24  and  C13_26
REMARK    8  A    between atoms: C16_29  and  N5_30
ROOT
HETATM    1  C3  UNL     1       8.854   1.239  -8.954  1.00  0.00     0.258 C
ENDROOT
BRANCH   1   2
HETATM    2  N1  UNL     1       9.877   1.807  -9.328  1.00  0.00    -0.321 NA
HETATM    3  C2  UNL     1      11.001   2.242  -9.804  1.00  0.00     0.441 C
HETATM    4  O2  UNL     1      11.244   2.479 -11.038  1.00  0.00    -0.221 OA
BRANCH   3   5
HETATM    5  O1  UNL     1      12.120   2.512  -8.977  1.00  0.00    -0.297 OA
HETATM    6  C1  UNL     1      12.008   2.839  -7.619  1.00  0.00     0.216 C
ENDBRANCH   3   5
ENDBRANCH   1   2
BRANCH   1   7
HETATM    7  N2  UNL     1       7.801   1.105  -9.877  1.00  0.00    -0.293 N
HETATM    8  C4  UNL     1       7.291  -0.019 -10.494  1.00  0.00     0.258 C
HETATM    9  O3  UNL     1       7.615  -1.223 -10.400  1.00  0.00    -0.267 OA
ATOM     10  H2  UNL     1       7.341   1.980 -10.132  1.00  0.00     0.172 HD
BRANCH   8  11
HETATM   11  C5  UNL     1       6.152   0.170 -11.449  1.00  0.00     0.032 A
HETATM   12  C6  UNL     1       6.387   0.290 -12.785  1.00  0.00     0.018 A
HETATM   13  C7  UNL     1       5.330   0.477 -13.691  1.00  0.00     0.025 A
HETATM   14  C8  UNL     1       4.043   0.540 -13.235  1.00  0.00     0.034 A
HETATM   15 CL1  UNL     1       2.731   0.774 -14.381  1.00  0.00    -0.084 Cl
HETATM   16  C9  UNL     1       3.796   0.419 -11.887  1.00  0.00     0.025 A
HETATM   17  C10 UNL     1       4.844   0.236 -11.007  1.00  0.00     0.018 A
ENDBRANCH   8  11
ENDBRANCH   1   7
BRANCH   1  18
HETATM   18  C11 UNL     1       8.796   0.742  -7.592  1.00  0.00     0.318 C
HETATM   19  O4  UNL     1       8.722   1.382  -6.541  1.00  0.00    -0.261 OA
HETATM   20  N3  UNL     1       8.828  -0.703  -7.398  1.00  0.00    -0.260 N
ATOM     21  H3  UNL     1       8.888  -1.345  -8.188  1.00  0.00     0.190 HD
BRANCH  20  22
HETATM   22  N4  UNL     1       8.775  -1.167  -6.091  1.00  0.00    -0.263 N
HETATM   23  C12 UNL     1       7.681  -1.955  -5.671  1.00  0.00     0.270 C
HETATM   24  O5  UNL     1       6.769  -2.225  -6.510  1.00  0.00    -0.266 OA
ATOM     25  H4  UNL     1       9.523  -0.940  -5.436  1.00  0.00     0.190 HD
BRANCH  23  26
HETATM   26  C13 UNL     1       7.554  -2.473  -4.310  1.00  0.00     0.033 A
HETATM   27  C14 UNL     1       6.340  -2.745  -3.731  1.00  0.00     0.019 A
HETATM   28  C15 UNL     1       6.275  -3.241  -2.423  1.00  0.00     0.037 A
HETATM   29  C16 UNL     1       7.408  -3.471  -1.674  1.00  0.00     0.102 A
HETATM   30  C17 UNL     1       8.623  -3.196  -2.259  1.00  0.00     0.037 A
HETATM   31  C18 UNL     1       8.687  -2.707  -3.551  1.00  0.00     0.019 A
BRANCH  29  32
HETATM   32  N5  UNL     1       7.315  -3.974  -0.351  1.00  0.00    -0.116 N
HETATM   33  O6  UNL     1       7.083  -5.170  -0.160  1.00  0.00    -0.532 OA
HETATM   34  O7  UNL     1       7.479  -3.163   0.748  1.00  0.00    -0.532 OA
ENDBRANCH  29  32
ENDBRANCH  23  26
ENDBRANCH  20  22
ENDBRANCH   1  18
TORSDOF 8
ENDMDL