MODEL 5
REMARK VINA RESULT: -7.056397880      2.861      4.115
REMARK  6 active torsions:
REMARK  status: ('A' for Active; 'I' for Inactive)
REMARK    1  A    between atoms: C2_4  and  O1_6
REMARK    2  A    between atoms: O1_6  and  C3_7
REMARK    3  A    between atoms: C4_10  and  O2_11
REMARK    4  A    between atoms: C17_25  and  O3_26
REMARK    5  A    between atoms: O3_26  and  C18_27
REMARK    6  A    between atoms: C20_30  and  O4_31
ROOT
HETATM    1  C3  UNL     1       7.646   0.460  -9.073  1.00  0.00     0.232 C
HETATM    2  N3  UNL     1       7.020  -0.837  -9.147  1.00  0.00    -0.362 N
ATOM      3  H3  UNL     1       6.844  -1.297 -10.040  1.00  0.00     0.159 HD
HETATM    4  C4  UNL     1       6.663  -1.442  -7.915  1.00  0.00     0.168 C
HETATM    5  C5  UNL     1       7.867  -1.633  -6.961  1.00  0.00     0.074 C
HETATM    6  C6  UNL     1       8.468  -0.274  -6.952  1.00  0.00     0.021 C
HETATM    7  C7  UNL     1       7.613   0.802  -7.558  1.00  0.00     0.043 C
HETATM    8  C8  UNL     1       6.169   0.844  -7.270  1.00  0.00     0.038 C
HETATM    9  C9  UNL     1       5.688   1.639  -6.132  1.00  0.00     0.047 C
HETATM   10  C10 UNL     1       4.877   0.967  -5.085  1.00  0.00    -0.048 A
HETATM   11  C11 UNL     1       3.837   1.598  -4.429  1.00  0.00     0.047 A
HETATM   12  C12 UNL     1       3.183   0.902  -3.442  1.00  0.00     0.105 A
HETATM   13  C13 UNL     1       3.563  -0.389  -3.128  1.00  0.00     0.105 A
HETATM   14  C14 UNL     1       4.595  -1.030  -3.773  1.00  0.00     0.048 A
HETATM   15  C15 UNL     1       5.260  -0.355  -4.759  1.00  0.00    -0.039 A
HETATM   16  C16 UNL     1       6.332  -0.782  -5.581  1.00  0.00     0.089 C
HETATM   17  C17 UNL     1       7.056  -1.995  -5.687  1.00  0.00     0.145 C
HETATM   18  C20 UNL     1       5.791  -0.640  -6.999  1.00  0.00     0.124 C
HETATM   19  O5  UNL     1       2.726  -0.822  -2.105  1.00  0.00    -0.323 OA
HETATM   20  C22 UNL     1       1.598   0.049  -2.115  1.00  0.00     0.352 C
HETATM   21  O6  UNL     1       2.112   1.280  -2.623  1.00  0.00    -0.323 OA
ENDROOT
BRANCH   1  22
HETATM   22  O1  UNL     1       8.946   0.484  -9.572  1.00  0.00    -0.298 OA
BRANCH  22  23
HETATM   23  C2  UNL     1       9.143   0.911 -10.878  1.00  0.00     0.229 C
HETATM   24  N1  UNL     1       8.500   0.280 -11.822  1.00  0.00    -0.363 N
HETATM   25  C1  UNL     1       8.637   0.645 -13.200  1.00  0.00     0.149 C
ATOM     26  H1  UNL     1       7.885  -0.494 -11.572  1.00  0.00     0.162 HD
HETATM   27  N2  UNL     1       9.992   1.983 -11.241  1.00  0.00    -0.056 NA
ENDBRANCH  22  23
ENDBRANCH   1  22
BRANCH   4  28
HETATM   28  O2  UNL     1       6.258  -2.734  -8.172  1.00  0.00    -0.368 OA
ATOM     29  H2  UNL     1       5.459  -2.897  -7.685  1.00  0.00     0.212 HD
ENDBRANCH   4  28
BRANCH  18  30
HETATM   30  O4  UNL     1       4.482  -0.693  -7.189  1.00  0.00    -0.379 OA
HETATM   31  C21 UNL     1       3.787  -0.436  -8.280  1.00  0.00     0.202 C
ENDBRANCH  18  30
BRANCH  17  32
HETATM   32  O3  UNL     1       8.013  -2.176  -4.693  1.00  0.00    -0.351 OA
BRANCH  32  33
HETATM   33  C18 UNL     1       7.758  -3.259  -3.879  1.00  0.00     0.303 C
HETATM   34  C19 UNL     1       6.683  -4.164  -4.396  1.00  0.00     0.076 C
HETATM   35  F1  UNL     1       7.298  -2.743  -2.660  1.00  0.00    -0.220 F
ENDBRANCH  32  33
ENDBRANCH  17  32
TORSDOF 6
ENDMDL