MODEL 2
REMARK VINA RESULT: -6.707867017      3.547      6.971
REMARK  9 active torsions:
REMARK  status: ('A' for Active; 'I' for Inactive)
REMARK    1  A    between atoms: C2_2  and  O2_4
REMARK    2  A    between atoms: O2_4  and  C3_5
REMARK    3  A    between atoms: C7_9  and  O3_10
REMARK    4  A    between atoms: C8_12  and  N1_13
REMARK    5  A    between atoms: N1_13  and  N2_15
REMARK    6  A    between atoms: C9_20  and  C10_21
REMARK    7  A    between atoms: C11_22  and  C12_23
REMARK    8  A    between atoms: C12_23  and  O4_26
REMARK    9  A    between atoms: C20_35  and  O6_36
ROOT
HETATM    1  C3  UNL     1       6.344  -3.355  -4.392  1.00  0.00     0.078 C
HETATM    2  C4  UNL     1       5.511  -4.130  -5.376  1.00  0.00     0.047 C
HETATM    3  C5  UNL     1       5.762  -3.500  -3.030  1.00  0.00     0.047 C
HETATM    4  C6  UNL     1       4.419  -2.946  -2.838  1.00  0.00     0.033 C
HETATM    5  C7  UNL     1       4.240  -2.657  -1.345  1.00  0.00     0.148 C
HETATM    6  C8  UNL     1       4.604  -1.222  -1.188  1.00  0.00     0.138 C
HETATM    7  C9  UNL     1       4.021  -0.600  -2.441  1.00  0.00     0.048 C
HETATM    8  C15 UNL     1       4.063  -1.661  -3.523  1.00  0.00    -0.002 C
HETATM    9  C16 UNL     1       2.654  -1.874  -4.046  1.00  0.00     0.021 C
HETATM   10  C17 UNL     1       4.925  -1.321  -4.664  1.00  0.00    -0.018 C
HETATM   11  C18 UNL     1       4.778  -0.603  -5.768  1.00  0.00     0.168 C
HETATM   12  F1  UNL     1       3.638   0.075  -6.139  1.00  0.00    -0.202 F
HETATM   13  C19 UNL     1       5.966  -0.588  -6.584  1.00  0.00     0.217 C
HETATM   14  O5  UNL     1       6.172   0.104  -7.610  1.00  0.00    -0.287 OA
HETATM   15  C20 UNL     1       6.916  -1.538  -6.009  1.00  0.00     0.206 C
HETATM   16  C21 UNL     1       6.305  -1.855  -4.693  1.00  0.00     0.090 C
ENDROOT
BRANCH   6  17
HETATM   17  N1  UNL     1       5.989  -0.944  -0.992  1.00  0.00    -0.315 N
ATOM     18  H1  UNL     1       6.439  -0.168  -1.476  1.00  0.00     0.182 HD
BRANCH  17  19
HETATM   19  N2  UNL     1       6.626  -1.663  -0.226  1.00  0.00    -0.253 N
HETATM   20  N3  UNL     1       7.608  -2.337   0.152  1.00  0.00    -0.331 N
ATOM     21  H32 UNL     1       8.224  -2.201  -0.650  1.00  0.00     0.178 HD
ATOM     22  H31 UNL     1       8.138  -2.934   0.788  1.00  0.00     0.178 HD
ATOM     23  H2  UNL     1       5.978  -1.772   0.555  1.00  0.00     0.207 HD
ENDBRANCH  17  19
ENDBRANCH   6  17
BRANCH   5  24
HETATM   24  O3  UNL     1       2.925  -2.839  -0.945  1.00  0.00    -0.393 OA
ATOM     25  H3  UNL     1       2.727  -2.344  -0.159  1.00  0.00     0.210 HD
ENDBRANCH   5  24
BRANCH   7  26
HETATM   26  C10 UNL     1       4.700   0.659  -2.795  1.00  0.00    -0.020 C
HETATM   27  C11 UNL     1       4.173   1.831  -3.042  1.00  0.00     0.006 C
BRANCH  27  28
HETATM   28  C12 UNL     1       2.778   2.258  -3.041  1.00  0.00     0.068 C
HETATM   29  C13 UNL     1       2.060   2.159  -4.354  1.00  0.00     0.050 C
HETATM   30  C14 UNL     1       1.945   1.568  -1.983  1.00  0.00     0.050 C
BRANCH  28  31
HETATM   31  O4  UNL     1       2.712   3.640  -2.696  1.00  0.00    -0.387 OA
ATOM     32  H4  UNL     1       2.273   3.732  -1.859  1.00  0.00     0.211 HD
ENDBRANCH  28  31
ENDBRANCH  27  28
ENDBRANCH   7  26
BRANCH   1  33
HETATM   33  O2  UNL     1       7.704  -3.695  -4.411  1.00  0.00    -0.310 OA
BRANCH  33  34
HETATM   34  C2  UNL     1       8.538  -3.838  -3.335  1.00  0.00     0.255 C
HETATM   35  C1  UNL     1       8.943  -5.197  -2.819  1.00  0.00     0.126 C
HETATM   36  O1  UNL     1       8.962  -2.789  -2.782  1.00  0.00    -0.266 OA
ENDBRANCH  33  34
ENDBRANCH   1  33
BRANCH  15  37
HETATM   37  O6  UNL     1       7.059  -2.618  -6.857  1.00  0.00    -0.387 OA
ATOM     38  H6  UNL     1       6.287  -3.168  -6.803  1.00  0.00     0.210 HD
ENDBRANCH  15  37
TORSDOF 9
ENDMDL