MODEL 2
REMARK VINA RESULT: -6.197925782      5.012      6.834
REMARK  6 active torsions:
REMARK  status: ('A' for Active; 'I' for Inactive)
REMARK       I    between atoms: C1_2  and  N1_3
REMARK    1  A    between atoms: C1_2  and  C10_23
REMARK    2  A    between atoms: N1_3  and  N2_5
REMARK       I    between atoms: N2_5  and  C2_6
REMARK    3  A    between atoms: N2_5  and  C7_17
REMARK    4  A    between atoms: C2_6  and  C3_8
REMARK    5  A    between atoms: C5_11  and  O3_12
REMARK    6  A    between atoms: C6_14  and  O4_15
ROOT
HETATM    1  N2  UNL     1       3.280  -1.685  -2.320  1.00  0.00    -0.197 N
HETATM    2  C2  UNL     1       3.017  -0.532  -3.074  1.00  0.00     0.261 C
HETATM    3  O2  UNL     1       1.760  -0.271  -3.231  1.00  0.00    -0.270 OA
ENDROOT
BRANCH   1   4
HETATM    4  N1  UNL     1       4.561  -2.160  -2.130  1.00  0.00    -0.254 N
HETATM    5  C1  UNL     1       5.118  -3.030  -3.085  1.00  0.00     0.270 C
HETATM    6  O1  UNL     1       4.438  -3.361  -4.096  1.00  0.00    -0.266 OA
ATOM      7  H1  UNL     1       5.097  -1.885  -1.307  1.00  0.00     0.191 HD
BRANCH   5   8
HETATM    8  C10 UNL     1       6.455  -3.570  -2.960  1.00  0.00     0.033 A
HETATM    9  C11 UNL     1       7.574  -2.823  -2.659  1.00  0.00     0.018 A
HETATM   10  C12 UNL     1       8.826  -3.426  -2.567  1.00  0.00     0.020 A
HETATM   11  C13 UNL     1       9.018  -4.780  -2.769  1.00  0.00     0.011 A
HETATM   12 BR1  UNL     1      10.745  -5.538  -2.639  1.00  0.00    -0.051 Br
HETATM   13  C14 UNL     1       7.907  -5.527  -3.068  1.00  0.00     0.020 A
HETATM   14  C15 UNL     1       6.679  -4.930  -3.155  1.00  0.00     0.018 A
ENDBRANCH   5   8
ENDBRANCH   1   4
BRANCH   1  15
HETATM   15  C7  UNL     1       2.137  -2.390  -1.769  1.00  0.00     0.173 A
HETATM   16  N3  UNL     1       1.255  -1.894  -0.897  1.00  0.00    -0.344 N
HETATM   17  C8  UNL     1       0.268  -2.626  -0.502  1.00  0.00     0.097 A
ATOM     18  H3  UNL     1       1.362  -0.943  -0.543  1.00  0.00     0.167 HD
HETATM   19  C9  UNL     1       0.174  -3.896  -1.006  1.00  0.00     0.070 A
HETATM   20  S2  UNL     1       1.537  -3.962  -2.037  1.00  0.00    -0.062 SA
ENDBRANCH   1  15
BRANCH   2  21
HETATM   21  C3  UNL     1       3.960   0.397  -3.684  1.00  0.00     0.172 C
HETATM   22  S1  UNL     1       3.015   1.376  -4.944  1.00  0.00    -0.149 SA
HETATM   23  C4  UNL     1       2.457   2.617  -3.711  1.00  0.00     0.109 C
HETATM   24  C5  UNL     1       3.308   2.422  -2.503  1.00  0.00     0.157 C
HETATM   25  C6  UNL     1       4.417   1.483  -2.746  1.00  0.00     0.170 C
BRANCH  24  26
HETATM   26  O3  UNL     1       3.807   3.660  -2.110  1.00  0.00    -0.392 OA
ATOM     27  H3  UNL     1       4.724   3.706  -2.351  1.00  0.00     0.210 HD
ENDBRANCH  24  26
BRANCH  25  28
HETATM   28  O4  UNL     1       5.515   2.103  -3.333  1.00  0.00    -0.391 OA
ATOM     29  H4  UNL     1       5.311   3.027  -3.412  1.00  0.00     0.210 HD
ENDBRANCH  25  28
ENDBRANCH   2  21
TORSDOF 6
ENDMDL