MODEL 3
REMARK VINA RESULT: -6.598581145      2.616      3.984
REMARK  8 active torsions:
REMARK  status: ('A' for Active; 'I' for Inactive)
REMARK    1  A    between atoms: C3_3  and  C4_4
REMARK    2  A    between atoms: C3_3  and  N2_12
REMARK    3  A    between atoms: C4_4  and  C5_5
REMARK    4  A    between atoms: C5_5  and  C6_6
REMARK    5  A    between atoms: C6_6  and  C7_7
REMARK    6  A    between atoms: C7_7  and  N1_8
REMARK    7  A    between atoms: N2_12  and  C8_14
REMARK    8  A    between atoms: C12_20  and  C13_21
ROOT
HETATM    1  C1  UNL     1      30.809   8.344 -30.877  1.00  0.00     0.014 C
HETATM    2  C2  UNL     1      30.493   8.680 -31.998  1.00  0.00    -0.091 C
HETATM    3  C3  UNL     1      30.091   9.071 -33.352  1.00  0.00     0.178 C
ENDROOT
BRANCH   3   4
HETATM    4  C4  UNL     1      28.692   9.626 -33.270  1.00  0.00     0.039 C
BRANCH   4   5
HETATM    5  C5  UNL     1      28.513  10.875 -34.090  1.00  0.00     0.004 C
BRANCH   5   6
HETATM    6  C6  UNL     1      27.984  10.505 -35.458  1.00  0.00     0.027 C
BRANCH   6   7
HETATM    7  C7  UNL     1      27.098   9.295 -35.446  1.00  0.00     0.229 C
BRANCH   7   8
HETATM    8  N1  UNL     1      25.724   9.693 -35.687  1.00  0.00    -0.079 N
ATOM      9  H13 UNL     1      25.117   8.893 -35.868  1.00  0.00     0.274 HD
ATOM     10  H12 UNL     1      25.269  10.034 -34.841  1.00  0.00     0.274 HD
ATOM     11  H11 UNL     1      25.693  10.377 -36.443  1.00  0.00     0.274 HD
ENDBRANCH   7   8
ENDBRANCH   6   7
ENDBRANCH   5   6
ENDBRANCH   4   5
ENDBRANCH   3   4
BRANCH   3  12
HETATM   12  N2  UNL     1      30.171   7.900 -34.186  1.00  0.00    -0.211 N
ATOM     13  H2  UNL     1      29.703   7.050 -33.871  1.00  0.00     0.179 HD
BRANCH  12  14
HETATM   14  C8  UNL     1      30.803   7.867 -35.312  1.00  0.00     0.679 A
HETATM   15  N3  UNL     1      30.930   6.676 -35.911  1.00  0.00    -0.196 N
HETATM   16  C9  UNL     1      31.575   6.582 -37.078  1.00  0.00     0.025 A
ATOM     17  H3  UNL     1      30.536   5.841 -35.478  1.00  0.00     0.184 HD
HETATM   18  C10 UNL     1      31.704   5.245 -37.726  1.00  0.00     0.068 C
HETATM   19  C11 UNL     1      32.103   7.712 -37.657  1.00  0.00     0.058 A
HETATM   20  C12 UNL     1      31.978   8.943 -37.049  1.00  0.00     0.085 A
HETATM   21  N4  UNL     1      31.323   8.964 -35.886  1.00  0.00    -0.189 N
ATOM     22  H4  UNL     1      31.212   9.858 -35.409  1.00  0.00     0.184 HD
BRANCH  20  23
HETATM   23  C13 UNL     1      32.543  10.141 -37.670  1.00  0.00     0.102 A
HETATM   24  C14 UNL     1      33.761  10.221 -38.277  1.00  0.00     0.041 A
HETATM   25  C15 UNL     1      33.946  11.503 -38.740  1.00  0.00     0.027 A
HETATM   26  C16 UNL     1      32.779  12.174 -38.375  1.00  0.00     0.142 A
HETATM   27  O1  UNL     1      32.003  11.316 -37.752  1.00  0.00    -0.321 OA
ENDBRANCH  20  23
ENDBRANCH  12  14
ENDBRANCH   3  12
TORSDOF 8
ENDMDL