MODEL 1
REMARK VINA RESULT: -6.592241767      0.000      0.000
REMARK  7 active torsions:
REMARK  status: ('A' for Active; 'I' for Inactive)
REMARK    1  A    between atoms: C4_7  and  N3_8
REMARK    2  A    between atoms: N5_14  and  C6_16
REMARK    3  A    between atoms: C6_16  and  C7_17
REMARK    4  A    between atoms: C7_17  and  C8_18
REMARK    5  A    between atoms: C8_18  and  C9_19
REMARK    6  A    between atoms: C9_19  and  C10_20
REMARK    7  A    between atoms: C10_20  and  N6_21
ROOT
HETATM    1  N1  UNL     1      28.158  11.066 -33.094  1.00  0.00    -0.191 NA
HETATM    2  C1  UNL     1      28.204  10.099 -33.689  1.00  0.00     0.104 C
HETATM    3  C2  UNL     1      28.238   8.884 -34.466  1.00  0.00     0.104 A
HETATM    4  C3  UNL     1      27.450   8.791 -35.613  1.00  0.00     0.132 A
HETATM    5  N2  UNL     1      27.446   7.681 -36.369  1.00  0.00    -0.201 N
ATOM      6  H2  UNL     1      26.856   7.649 -37.201  1.00  0.00     0.183 HD
HETATM    7  C4  UNL     1      28.199   6.610 -36.060  1.00  0.00     0.677 A
HETATM    8  N4  UNL     1      28.955   6.686 -34.969  1.00  0.00    -0.176 N
ATOM      9  H4  UNL     1      29.529   5.878 -34.725  1.00  0.00     0.186 HD
HETATM   10  C5  UNL     1      29.008   7.791 -34.148  1.00  0.00     0.139 A
HETATM   11  N5  UNL     1      29.754   7.762 -33.141  1.00  0.00    -0.375 N
ATOM     12  H5  UNL     1      30.246   6.871 -33.070  1.00  0.00     0.161 HD
ENDROOT
BRANCH  11  13
HETATM   13  C6  UNL     1      30.094   8.612 -32.098  1.00  0.00     0.121 C
BRANCH  13  14
HETATM   14  C7  UNL     1      31.617   8.601 -31.809  1.00  0.00     0.020 C
BRANCH  14  15
HETATM   15  C8  UNL     1      32.300   7.919 -32.952  1.00  0.00     0.003 C
BRANCH  15  16
HETATM   16  C9  UNL     1      32.976   8.854 -33.902  1.00  0.00     0.030 C
BRANCH  16  17
HETATM   17  C10 UNL     1      32.661   8.572 -35.342  1.00  0.00     0.272 C
BRANCH  17  18
HETATM   18  N6  UNL     1      31.618   9.443 -35.838  1.00  0.00     0.088 N
HETATM   19  C11 UNL     1      31.644  10.679 -35.085  1.00  0.00     0.272 C
HETATM   20  C12 UNL     1      31.974  11.841 -35.965  1.00  0.00     0.030 C
HETATM   21  C13 UNL     1      33.157  11.612 -36.858  1.00  0.00     0.003 C
HETATM   22  C14 UNL     1      32.933  10.365 -37.663  1.00  0.00     0.030 C
HETATM   23  C15 UNL     1      31.663   9.687 -37.242  1.00  0.00     0.272 C
ENDBRANCH  17  18
ENDBRANCH  16  17
ENDBRANCH  15  16
ENDBRANCH  14  15
ENDBRANCH  13  14
ENDBRANCH  11  13
BRANCH   7  24
HETATM   24  N3  UNL     1      28.191   5.540 -36.797  1.00  0.00    -0.234 N
ATOM     25  H32 UNL     1      28.187   4.611 -36.376  1.00  0.00     0.174 HD
ATOM     26  H31 UNL     1      28.189   5.595 -37.816  1.00  0.00     0.174 HD
ENDBRANCH   7  24
TORSDOF 7
ENDMDL