MODEL 3
REMARK VINA RESULT: -6.240955864      3.159      4.989
REMARK  8 active torsions:
REMARK  status: ('A' for Active; 'I' for Inactive)
REMARK    1  A    between atoms: C2_2  and  C3_3
REMARK    2  A    between atoms: C3_3  and  C4_4
REMARK    3  A    between atoms: C4_4  and  C5_5
REMARK    4  A    between atoms: C6_8  and  N2_9
REMARK    5  A    between atoms: C7_14  and  N4_15
REMARK    6  A    between atoms: N4_15  and  C8_17
REMARK    7  A    between atoms: C8_17  and  C9_18
REMARK    8  A    between atoms: C9_18  and  N5_19
ROOT
HETATM    1  C5  UNL     1      28.280   6.630 -36.109  1.00  0.00     0.113 A
HETATM    2  N1  UNL     1      27.264   7.446 -36.403  1.00  0.00    -0.180 N
ATOM      3  H1  UNL     1      26.738   7.325 -37.269  1.00  0.00     0.185 HD
HETATM    4  C6  UNL     1      26.945   8.429 -35.545  1.00  0.00     0.691 A
HETATM    5  N3  UNL     1      27.647   8.589 -34.388  1.00  0.00    -0.023 N
ATOM      6  H3  UNL     1      27.393   9.339 -33.745  1.00  0.00     0.203 HD
HETATM    7  C7  UNL     1      28.664   7.778 -34.086  1.00  0.00     0.694 A
HETATM    8  N6  UNL     1      28.968   6.797 -34.966  1.00  0.00    -0.180 N
ATOM      9  H6  UNL     1      29.741   6.165 -34.755  1.00  0.00     0.185 HD
ENDROOT
BRANCH   7  10
HETATM   10  N4  UNL     1      29.345   7.895 -33.018  1.00  0.00    -0.224 N
ATOM     11  H4  UNL     1      29.226   7.195 -32.287  1.00  0.00     0.177 HD
BRANCH  10  12
HETATM   12  C8  UNL     1      30.276   8.971 -32.795  1.00  0.00     0.157 C
BRANCH  12  13
HETATM   13  C9  UNL     1      31.623   8.338 -32.448  1.00  0.00     0.137 C
BRANCH  13  14
HETATM   14  N5  UNL     1      32.529   8.582 -33.521  1.00  0.00    -0.411 N
HETATM   15  C10 UNL     1      33.175   7.423 -34.032  1.00  0.00     0.117 C
HETATM   16  C11 UNL     1      32.551   6.992 -35.334  1.00  0.00     0.019 C
HETATM   17  C12 UNL     1      32.697   8.049 -36.405  1.00  0.00     0.003 C
HETATM   18  C13 UNL     1      32.743   9.440 -35.826  1.00  0.00     0.019 C
HETATM   19  C14 UNL     1      32.074   9.527 -34.480  1.00  0.00     0.117 C
ENDBRANCH  13  14
ENDBRANCH  12  13
ENDBRANCH  10  12
ENDBRANCH   7  10
BRANCH   4  20
HETATM   20  N2  UNL     1      25.981   9.261 -35.748  1.00  0.00    -0.234 N
ATOM     21  H22 UNL     1      25.445   9.541 -34.926  1.00  0.00     0.174 HD
ATOM     22  H21 UNL     1      25.747   9.632 -36.669  1.00  0.00     0.174 HD
ENDBRANCH   4  20
BRANCH   1  23
HETATM   23  C4  UNL     1      28.688   5.527 -37.008  1.00  0.00     0.077 C
BRANCH  23  24
HETATM   24  C3  UNL     1      29.956   6.008 -37.725  1.00  0.00     0.007 C
BRANCH  24  25
HETATM   25  C2  UNL     1      30.502   4.876 -38.566  1.00  0.00    -0.004 C
HETATM   26  C1  UNL     1      32.026   4.994 -38.512  1.00  0.00     0.005 C
ENDBRANCH  24  25
ENDBRANCH  23  24
ENDBRANCH   1  23
TORSDOF 8
ENDMDL