MODEL 1
REMARK VINA RESULT: -6.724061856      0.000      0.000
REMARK  8 active torsions:
REMARK  status: ('A' for Active; 'I' for Inactive)
REMARK    1  A    between atoms: O1_1  and  C1_3
REMARK    2  A    between atoms: C1_3  and  C2_4
REMARK    3  A    between atoms: C2_4  and  O2_5
REMARK    4  A    between atoms: N1_9  and  C5_10
REMARK    5  A    between atoms: C5_10  and  C6_11
REMARK    6  A    between atoms: C6_11  and  C7_12
REMARK    7  A    between atoms: C7_12  and  C8_13
REMARK    8  A    between atoms: C8_13  and  C9_14
ROOT
HETATM    1  C2  UNL     1      27.090   8.665 -34.964  1.00  0.00     0.086 C
HETATM    2  C3  UNL     1      27.597  10.041 -34.808  1.00  0.00     0.060 C
HETATM    3  C4  UNL     1      28.858  10.431 -35.456  1.00  0.00     0.126 C
HETATM    4  N1  UNL     1      29.742   9.403 -35.887  1.00  0.00    -0.375 N
HETATM    5  C12 UNL     1      29.269   8.066 -35.967  1.00  0.00     0.078 C
HETATM    6  S1  UNL     1      29.980   7.014 -36.980  1.00  0.00    -0.065 SA
HETATM    7  C13 UNL     1      28.130   7.586 -35.151  1.00  0.00     0.109 C
ENDROOT
BRANCH   4   8
HETATM    8  C5  UNL     1      31.114   9.677 -36.251  1.00  0.00     0.123 C
BRANCH   8   9
HETATM    9  C6  UNL     1      31.876  10.359 -35.139  1.00  0.00     0.020 C
BRANCH   9  10
HETATM   10  C7  UNL     1      32.816   9.439 -34.438  1.00  0.00     0.008 C
BRANCH  10  11
HETATM   11  C8  UNL     1      32.246   8.153 -33.961  1.00  0.00     0.058 C
BRANCH  11  12
HETATM   12  C9  UNL     1      31.520   8.315 -32.661  1.00  0.00     0.025 A
HETATM   13  C10 UNL     1      30.200   8.594 -32.413  1.00  0.00     0.113 A
HETATM   14  N2  UNL     1      29.968   8.654 -31.077  1.00  0.00    -0.360 N
HETATM   15  C11 UNL     1      31.144   8.411 -30.493  1.00  0.00     0.180 A
ATOM     16  H2  UNL     1      29.079   8.845 -30.614  1.00  0.00     0.166 HD
HETATM   17  N3  UNL     1      32.096   8.204 -31.427  1.00  0.00    -0.355 N
ATOM     18  H3  UNL     1      33.078   8.000 -31.243  1.00  0.00     0.166 HD
ENDBRANCH  11  12
ENDBRANCH  10  11
ENDBRANCH   9  10
ENDBRANCH   8   9
ENDBRANCH   4   8
BRANCH   1  19
HETATM   19  C1  UNL     1      26.076   8.505 -36.109  1.00  0.00     0.202 C
BRANCH  19  20
HETATM   20  O1  UNL     1      25.001   9.339 -35.725  1.00  0.00    -0.398 OA
ATOM     21  H1  UNL     1      24.976  10.003 -36.404  1.00  0.00     0.209 HD
ENDBRANCH  19  20
ENDBRANCH   1  19
BRANCH   1  22
HETATM   22  O2  UNL     1      26.372   8.318 -33.811  1.00  0.00    -0.387 OA
ATOM     23  H2  UNL     1      26.921   8.611 -33.094  1.00  0.00     0.210 HD
ENDBRANCH   1  22
TORSDOF 8
ENDMDL