MODEL 1
REMARK VINA RESULT: -6.880782759      0.000      0.000
REMARK  7 active torsions:
REMARK  status: ('A' for Active; 'I' for Inactive)
REMARK    1  A    between atoms: C3_6  and  C4_7
REMARK    2  A    between atoms: C5_8  and  C6_9
REMARK    3  A    between atoms: C6_9  and  C7_10
REMARK    4  A    between atoms: C7_10  and  C8_11
REMARK    5  A    between atoms: C8_11  and  C9_12
REMARK    6  A    between atoms: C9_12  and  N2_13
REMARK    7  A    between atoms: N2_13  and  C10_15
ROOT
HETATM    1  C6  UNL     1      32.382  11.399 -35.367  1.00  0.00     0.027 C
ENDROOT
BRANCH   1   2
HETATM    2  C5  UNL     1      30.998  10.979 -35.557  1.00  0.00    -0.026 C
HETATM    3  C4  UNL     1      30.378   9.963 -35.000  1.00  0.00     0.014 C
BRANCH   3   4
HETATM    4  C3  UNL     1      28.992   9.628 -35.261  1.00  0.00     0.047 A
HETATM    5  C2  UNL     1      27.935  10.484 -35.117  1.00  0.00     0.110 A
HETATM    6  N1  UNL     1      26.657  10.083 -35.386  1.00  0.00    -0.318 N
HETATM    7  C1  UNL     1      26.379   8.841 -35.802  1.00  0.00     0.327 A
ATOM      8  H1  UNL     1      25.893  10.749 -35.267  1.00  0.00     0.170 HD
HETATM    9  O1  UNL     1      25.178   8.479 -36.049  1.00  0.00    -0.247 OA
HETATM   10  N5  UNL     1      27.398   7.979 -35.951  1.00  0.00    -0.275 N
HETATM   11  C14 UNL     1      28.667   8.334 -35.697  1.00  0.00     0.260 A
ATOM     12  H5  UNL     1      27.203   7.029 -36.267  1.00  0.00     0.173 HD
HETATM   13  O2  UNL     1      29.631   7.527 -35.836  1.00  0.00    -0.267 OA
ENDBRANCH   3   4
ENDBRANCH   1   2
BRANCH   1  14
HETATM   14  C7  UNL     1      33.170  11.718 -36.593  1.00  0.00     0.005 C
BRANCH  14  15
HETATM   15  C8  UNL     1      32.768  10.868 -37.742  1.00  0.00     0.020 C
BRANCH  15  16
HETATM   16  C9  UNL     1      33.802   9.803 -38.067  1.00  0.00     0.121 C
BRANCH  16  17
HETATM   17  N2  UNL     1      33.414   8.485 -37.711  1.00  0.00    -0.375 N
ATOM     18  H2  UNL     1      33.109   7.859 -38.456  1.00  0.00     0.161 HD
BRANCH  17  19
HETATM   19  C10 UNL     1      33.420   8.019 -36.485  1.00  0.00     0.115 A
HETATM   20  C11 UNL     1      34.507   8.289 -35.661  1.00  0.00     0.051 A
HETATM   21  C12 UNL     1      34.549   7.820 -34.378  1.00  0.00     0.022 A
HETATM   22  C13 UNL     1      33.501   7.066 -33.886  1.00  0.00     0.107 A
HETATM   23  N3  UNL     1      32.483   6.842 -34.732  1.00  0.00    -0.310 N
HETATM   24  N4  UNL     1      32.421   7.285 -35.974  1.00  0.00    -0.286 N
ATOM     25  H3  UNL     1      31.698   6.288 -34.389  1.00  0.00     0.186 HD
ATOM     26  H4  UNL     1      31.607   7.068 -36.549  1.00  0.00     0.188 HD
ENDBRANCH  17  19
ENDBRANCH  16  17
ENDBRANCH  15  16
ENDBRANCH  14  15
ENDBRANCH   1  14
TORSDOF 7
ENDMDL