MODEL 4
REMARK VINA RESULT: -6.430219971      1.578      2.352
REMARK  9 active torsions:
REMARK  status: ('A' for Active; 'I' for Inactive)
REMARK    1  A    between atoms: C2_2  and  C3_3
REMARK    2  A    between atoms: C5_7  and  N2_8
REMARK    3  A    between atoms: N2_8  and  C6_10
REMARK    4  A    between atoms: C6_10  and  C7_11
REMARK    5  A    between atoms: C7_11  and  C8_12
REMARK    6  A    between atoms: N3_15  and  C11_16
REMARK    7  A    between atoms: C11_16  and  C12_17
REMARK    8  A    between atoms: C12_17  and  O1_18
REMARK    9  A    between atoms: C15_23  and  N5_24
ROOT
HETATM    1  C3  UNL     1      28.050   9.142 -34.453  1.00  0.00     0.023 A
HETATM    2  C4  UNL     1      29.088   8.294 -34.152  1.00  0.00     0.121 A
HETATM    3  N1  UNL     1      29.190   7.127 -34.855  1.00  0.00    -0.201 N
ATOM      4  H1  UNL     1      29.959   6.496 -34.631  1.00  0.00     0.183 HD
HETATM    5  C5  UNL     1      28.340   6.767 -35.818  1.00  0.00     0.679 A
HETATM    6  N4  UNL     1      27.334   7.599 -36.104  1.00  0.00    -0.176 N
ATOM      7  H4  UNL     1      26.673   7.342 -36.837  1.00  0.00     0.186 HD
HETATM    8  C15 UNL     1      27.168   8.758 -35.458  1.00  0.00     0.126 A
ENDROOT
BRANCH   5   9
HETATM    9  N2  UNL     1      28.541   5.641 -36.410  1.00  0.00    -0.226 N
ATOM     10  H2  UNL     1      28.402   4.754 -35.925  1.00  0.00     0.177 HD
BRANCH   9  11
HETATM   11  C6  UNL     1      28.971   5.684 -37.787  1.00  0.00     0.142 C
BRANCH  11  12
HETATM   12  C7  UNL     1      30.430   5.313 -37.937  1.00  0.00     0.060 C
BRANCH  12  13
HETATM   13  C8  UNL     1      31.234   6.523 -37.619  1.00  0.00    -0.040 A
HETATM   14  C9  UNL     1      31.148   7.756 -38.276  1.00  0.00     0.025 A
HETATM   15  C10 UNL     1      32.053   8.599 -37.681  1.00  0.00     0.091 A
HETATM   16  N3  UNL     1      32.694   7.958 -36.694  1.00  0.00    -0.364 N
HETATM   17  C14 UNL     1      32.202   6.706 -36.655  1.00  0.00     0.097 A
BRANCH  16  18
HETATM   18  C11 UNL     1      33.746   8.499 -35.801  1.00  0.00     0.154 C
BRANCH  18  19
HETATM   19  C12 UNL     1      33.145   9.249 -34.666  1.00  0.00     0.187 C
BRANCH  19  20
HETATM   20  O1  UNL     1      33.615  10.538 -34.618  1.00  0.00    -0.394 OA
HETATM   21  C13 UNL     1      32.807  11.404 -35.289  1.00  0.00     0.201 C
ENDBRANCH  19  20
ENDBRANCH  18  19
ENDBRANCH  16  18
ENDBRANCH  12  13
ENDBRANCH  11  12
ENDBRANCH   9  11
ENDBRANCH   5   9
BRANCH   8  22
HETATM   22  N5  UNL     1      26.197   9.540 -35.749  1.00  0.00    -0.384 N
ATOM     23  H52 UNL     1      25.424   9.680 -35.098  1.00  0.00     0.157 HD
ATOM     24  H51 UNL     1      26.213  10.021 -36.648  1.00  0.00     0.157 HD
ENDBRANCH   8  22
BRANCH   1  25
HETATM   25  C2  UNL     1      27.860  10.406 -33.759  1.00  0.00     0.006 C
HETATM   26  C1  UNL     1      28.792  11.308 -33.618  1.00  0.00     0.012 C
ENDBRANCH   1  25
TORSDOF 9
ENDMDL