MODEL 4
REMARK VINA RESULT: -6.303546279      2.705      4.888
REMARK  6 active torsions:
REMARK  status: ('A' for Active; 'I' for Inactive)
REMARK    1  A    between atoms: N3_6  and  C2_7
REMARK    2  A    between atoms: C2_7  and  C3_8
REMARK    3  A    between atoms: C3_8  and  C4_9
REMARK    4  A    between atoms: C4_9  and  S1_10
REMARK    5  A    between atoms: S1_10  and  C5_11
REMARK    6  A    between atoms: C5_11  and  C6_12
ROOT
HETATM    1  C2  UNL     1      33.096   7.844 -36.614  1.00  0.00     0.152 C
ENDROOT
BRANCH   1   2
HETATM    2  N3  UNL     1      31.972   7.024 -36.993  1.00  0.00    -0.226 N
HETATM    3  N2  UNL     1      31.879   5.722 -36.479  1.00  0.00    -0.012 NA
HETATM    4  N1  UNL     1      31.378   4.848 -37.449  1.00  0.00    -0.235 N
HETATM    5  C1  UNL     1      30.369   5.263 -38.357  1.00  0.00     0.341 C
ATOM      6  H1  UNL     1      31.744   3.897 -37.504  1.00  0.00     0.189 HD
HETATM    7  O1  UNL     1      29.647   4.444 -38.971  1.00  0.00    -0.245 OA
HETATM    8  N4  UNL     1      30.175   6.642 -38.572  1.00  0.00    -0.259 N
HETATM    9  C12 UNL     1      31.000   7.564 -37.870  1.00  0.00     0.343 C
ATOM     10  H4  UNL     1      29.458   6.971 -39.218  1.00  0.00     0.175 HD
HETATM   11  O2  UNL     1      30.887   8.800 -38.009  1.00  0.00    -0.245 OA
ENDBRANCH   1   2
BRANCH   1  12
HETATM   12  C3  UNL     1      33.587   7.588 -35.218  1.00  0.00     0.032 C
BRANCH  12  13
HETATM   13  C4  UNL     1      33.364   8.763 -34.301  1.00  0.00     0.076 C
BRANCH  13  14
HETATM   14  S1  UNL     1      31.626   8.650 -33.735  1.00  0.00    -0.164 SA
BRANCH  14  15
HETATM   15  C5  UNL     1      30.670   9.912 -34.633  1.00  0.00     0.112 C
BRANCH  15  16
HETATM   16  C6  UNL     1      29.315   9.369 -34.887  1.00  0.00    -0.049 A
HETATM   17  C7  UNL     1      28.300  10.208 -35.353  1.00  0.00     0.008 A
HETATM   18  C8  UNL     1      27.061   9.641 -35.571  1.00  0.00     0.001 A
HETATM   19  C9  UNL     1      26.832   8.306 -35.342  1.00  0.00     0.000 A
HETATM   20  C10 UNL     1      27.817   7.459 -34.883  1.00  0.00     0.001 A
HETATM   21  C11 UNL     1      29.071   8.034 -34.661  1.00  0.00     0.008 A
ENDBRANCH  15  16
ENDBRANCH  14  15
ENDBRANCH  13  14
ENDBRANCH  12  13
ENDBRANCH   1  12
TORSDOF 6
ENDMDL