MODEL 3
REMARK VINA RESULT: -6.489138098      1.674      2.454
REMARK  9 active torsions:
REMARK  status: ('A' for Active; 'I' for Inactive)
REMARK    1  A    between atoms: N1_1  and  C1_4
REMARK    2  A    between atoms: C4_7  and  C5_8
REMARK    3  A    between atoms: C11_16  and  N3_17
REMARK    4  A    between atoms: N3_17  and  C12_19
REMARK    5  A    between atoms: C12_19  and  C13_20
REMARK    6  A    between atoms: C13_20  and  O1_21
REMARK    7  A    between atoms: O1_21  and  C14_22
REMARK    8  A    between atoms: C14_22  and  C15_23
REMARK    9  A    between atoms: C15_23  and  O2_24
ROOT
HETATM    1  C1  UNL     1      27.330   8.146 -34.658  1.00  0.00     0.114 C
HETATM    2  C2  UNL     1      28.152   9.240 -34.418  1.00  0.00     0.051 C
HETATM    3  C3  UNL     1      29.483   9.369 -34.834  1.00  0.00     0.034 C
HETATM    4  C4  UNL     1      30.336   8.384 -35.273  1.00  0.00     0.059 C
HETATM    5  N2  UNL     1      29.941   7.292 -35.992  1.00  0.00    -0.191 N
ATOM      6  H2  UNL     1      30.677   6.853 -36.545  1.00  0.00     0.184 HD
HETATM    7  C11 UNL     1      28.735   6.703 -36.087  1.00  0.00     0.680 C
HETATM    8  N4  UNL     1      27.651   7.040 -35.368  1.00  0.00    -0.177 N
ATOM      9  H4  UNL     1      26.928   6.320 -35.356  1.00  0.00     0.185 HD
ENDROOT
BRANCH   7  10
HETATM   10  N3  UNL     1      28.682   5.763 -36.940  1.00  0.00    -0.224 N
ATOM     11  H3  UNL     1      27.964   5.056 -36.777  1.00  0.00     0.177 HD
BRANCH  10  12
HETATM   12  C12 UNL     1      29.491   5.566 -38.095  1.00  0.00     0.164 C
BRANCH  12  13
HETATM   13  C13 UNL     1      30.132   4.204 -38.022  1.00  0.00     0.188 C
BRANCH  13  14
HETATM   14  O1  UNL     1      31.445   4.232 -37.625  1.00  0.00    -0.387 OA
BRANCH  14  15
HETATM   15  C14 UNL     1      32.174   5.282 -38.107  1.00  0.00     0.193 C
BRANCH  15  16
HETATM   16  C15 UNL     1      32.899   4.822 -39.363  1.00  0.00     0.190 C
BRANCH  16  17
HETATM   17  O2  UNL     1      33.928   3.948 -39.001  1.00  0.00    -0.399 OA
ATOM     18  H2  UNL     1      34.483   3.792 -39.757  1.00  0.00     0.209 HD
ENDBRANCH  16  17
ENDBRANCH  15  16
ENDBRANCH  14  15
ENDBRANCH  13  14
ENDBRANCH  12  13
ENDBRANCH  10  12
ENDBRANCH   7  10
BRANCH   4  19
HETATM   19  C5  UNL     1      31.758   8.466 -34.986  1.00  0.00    -0.009 A
HETATM   20  C6  UNL     1      32.414   9.666 -34.896  1.00  0.00     0.014 A
HETATM   21  C7  UNL     1      33.787   9.725 -34.625  1.00  0.00     0.001 A
HETATM   22  C8  UNL     1      34.505   8.562 -34.441  1.00  0.00     0.000 A
HETATM   23  C9  UNL     1      33.834   7.362 -34.532  1.00  0.00     0.001 A
HETATM   24  C10 UNL     1      32.488   7.284 -34.798  1.00  0.00     0.014 A
ENDBRANCH   4  19
BRANCH   1  25
HETATM   25  N1  UNL     1      26.158   8.217 -34.146  1.00  0.00    -0.385 N
ATOM     26  H12 UNL     1      25.848   9.115 -33.774  1.00  0.00     0.157 HD
ATOM     27  H11 UNL     1      25.623   7.348 -34.156  1.00  0.00     0.157 HD
ENDBRANCH   1  25
TORSDOF 9
ENDMDL