MODEL 3
REMARK VINA RESULT: -6.763189688      1.026      1.492
REMARK  8 active torsions:
REMARK  status: ('A' for Active; 'I' for Inactive)
REMARK    1  A    between atoms: C2_2  and  C3_3
REMARK    2  A    between atoms: C3_3  and  C4_4
REMARK    3  A    between atoms: C4_4  and  N1_5
REMARK    4  A    between atoms: N1_5  and  C5_7
REMARK    5  A    between atoms: C9_14  and  N4_15
REMARK    6  A    between atoms: N4_15  and  C10_17
REMARK    7  A    between atoms: C10_17  and  C11_18
REMARK    8  A    between atoms: C11_18  and  C12_19
ROOT
HETATM    1  C5  UNL     1      31.652   6.698 -35.776  1.00  0.00     0.680 A
HETATM    2  N2  UNL     1      31.993   5.949 -36.840  1.00  0.00    -0.182 N
ATOM      3  H2  UNL     1      32.970   5.693 -36.980  1.00  0.00     0.185 HD
HETATM    4  C6  UNL     1      31.076   5.539 -37.712  1.00  0.00     0.133 A
HETATM    5  C7  UNL     1      31.410   4.735 -38.860  1.00  0.00     0.118 C
HETATM    6  N3  UNL     1      31.694   4.095 -39.790  1.00  0.00    -0.190 NA
HETATM    7  C8  UNL     1      29.754   5.871 -37.543  1.00  0.00     0.090 A
HETATM    8  C9  UNL     1      29.396   6.633 -36.465  1.00  0.00     0.119 A
HETATM    9  N7  UNL     1      30.362   7.027 -35.608  1.00  0.00    -0.177 N
ATOM     10  H7  UNL     1      30.101   7.596 -34.802  1.00  0.00     0.185 HD
ENDROOT
BRANCH   1  11
HETATM   11  N1  UNL     1      32.568   7.083 -34.947  1.00  0.00    -0.226 N
ATOM     12  H1  UNL     1      33.448   6.570 -34.892  1.00  0.00     0.177 HD
BRANCH  11  13
HETATM   13  C4  UNL     1      32.353   8.220 -34.110  1.00  0.00     0.138 C
BRANCH  13  14
HETATM   14  C3  UNL     1      33.202   9.397 -34.574  1.00  0.00     0.020 C
BRANCH  14  15
HETATM   15  C2  UNL     1      32.307  10.461 -35.207  1.00  0.00    -0.003 C
HETATM   16  C1  UNL     1      33.091  11.762 -35.253  1.00  0.00     0.005 C
ENDBRANCH  14  15
ENDBRANCH  13  14
ENDBRANCH  11  13
ENDBRANCH   1  11
BRANCH   8  17
HETATM   17  N4  UNL     1      28.153   6.966 -36.277  1.00  0.00    -0.375 N
ATOM     18  H4  UNL     1      27.519   7.092 -37.066  1.00  0.00     0.161 HD
BRANCH  17  19
HETATM   19  C10 UNL     1      27.692   7.154 -34.917  1.00  0.00     0.127 C
BRANCH  19  20
HETATM   20  C11 UNL     1      26.830   8.393 -34.907  1.00  0.00     0.078 C
BRANCH  20  21
HETATM   21  C12 UNL     1      27.610   9.608 -34.542  1.00  0.00     0.027 A
HETATM   22  C13 UNL     1      28.330  10.471 -35.304  1.00  0.00     0.114 A
HETATM   23  N5  UNL     1      28.850  11.415 -34.484  1.00  0.00    -0.360 N
HETATM   24  C14 UNL     1      28.446  11.124 -33.228  1.00  0.00     0.180 A
ATOM     25  H5  UNL     1      29.437  12.201 -34.764  1.00  0.00     0.166 HD
HETATM   26  N6  UNL     1      27.697  10.031 -33.267  1.00  0.00    -0.355 N
ATOM     27  H6  UNL     1      27.258   9.584 -32.463  1.00  0.00     0.166 HD
ENDBRANCH  20  21
ENDBRANCH  19  20
ENDBRANCH  17  19
ENDBRANCH   8  17
TORSDOF 8
ENDMDL