MODEL 5
REMARK VINA RESULT: -6.433878366      1.027      1.508
REMARK  7 active torsions:
REMARK  status: ('A' for Active; 'I' for Inactive)
REMARK    1  A    between atoms: C4_8  and  N3_9
REMARK    2  A    between atoms: N3_9  and  C5_11
REMARK    3  A    between atoms: C5_11  and  C6_12
REMARK    4  A    between atoms: C6_12  and  N4_13
REMARK    5  A    between atoms: N4_13  and  C7_15
REMARK    6  A    between atoms: C7_15  and  C8_16
REMARK    7  A    between atoms: C8_16  and  N5_17
ROOT
HETATM    1  N3  UNL     1      28.508   5.616 -36.428  1.00  0.00    -0.224 N
ATOM      2  H3  UNL     1      28.234   4.772 -35.926  1.00  0.00     0.177 HD
ENDROOT
BRANCH   1   3
HETATM    3  C4  UNL     1      28.447   6.775 -35.837  1.00  0.00     0.680 A
HETATM    4  N2  UNL     1      28.887   6.974 -34.551  1.00  0.00    -0.174 N
HETATM    5  C3  UNL     1      28.690   8.258 -34.230  1.00  0.00     0.148 A
ATOM      6  H2  UNL     1      29.296   6.264 -33.943  1.00  0.00     0.186 HD
HETATM    7  N1  UNL     1      28.933   8.982 -33.124  1.00  0.00    -0.350 N
HETATM    8  C14 UNL     1      28.114   8.901 -35.325  1.00  0.00     0.093 A
HETATM    9  C2  UNL     1      28.646  10.304 -33.026  1.00  0.00     0.090 A
ATOM     10  H1  UNL     1      29.354   8.516 -32.320  1.00  0.00     0.166 HD
HETATM   11  C1  UNL     1      28.076  10.951 -34.102  1.00  0.00     0.019 A
HETATM   12  C15 UNL     1      27.813  10.240 -35.250  1.00  0.00     0.035 A
HETATM   13  N6  UNL     1      27.991   7.953 -36.264  1.00  0.00    -0.188 N
ATOM     14  H6  UNL     1      27.597   8.113 -37.190  1.00  0.00     0.184 HD
ENDBRANCH   1   3
BRANCH   1  15
HETATM   15  C5  UNL     1      28.956   5.526 -37.775  1.00  0.00     0.157 C
BRANCH  15  16
HETATM   16  C6  UNL     1      30.435   5.825 -37.989  1.00  0.00     0.139 C
BRANCH  16  17
HETATM   17  N4  UNL     1      30.455   7.057 -38.767  1.00  0.00    -0.396 N
ATOM     18  H4  UNL     1      29.967   7.128 -39.660  1.00  0.00     0.158 HD
BRANCH  17  19
HETATM   19  C7  UNL     1      31.174   8.144 -38.241  1.00  0.00     0.094 C
BRANCH  19  20
HETATM   20  C8  UNL     1      31.759   8.090 -36.879  1.00  0.00     0.076 C
BRANCH  20  21
HETATM   21  N5  UNL     1      32.344   9.241 -36.325  1.00  0.00    -0.291 NA
HETATM   22  C9  UNL     1      32.249  10.309 -37.315  1.00  0.00     0.095 C
HETATM   23  C10 UNL     1      33.215  11.439 -36.932  1.00  0.00     0.015 C
HETATM   24  C11 UNL     1      32.809  12.011 -35.596  1.00  0.00     0.002 C
HETATM   25  C12 UNL     1      31.622  11.241 -35.088  1.00  0.00     0.015 C
HETATM   26  C13 UNL     1      31.970   9.744 -35.079  1.00  0.00     0.095 C
ENDBRANCH  20  21
ENDBRANCH  19  20
ENDBRANCH  17  19
ENDBRANCH  16  17
ENDBRANCH  15  16
ENDBRANCH   1  15
TORSDOF 7
ENDMDL