MODEL 5
REMARK VINA RESULT: -7.696436660      2.646      5.947
REMARK  12 active torsions:
REMARK  status: ('A' for Active; 'I' for Inactive)
REMARK    1  A    between atoms: C2_2  and  O1_3
REMARK    2  A    between atoms: C2_2  and  C11_36
REMARK    3  A    between atoms: O1_3  and  C3_4
REMARK    4  A    between atoms: C3_4  and  C4_6
REMARK    5  A    between atoms: C5_7  and  O3_8
REMARK    6  A    between atoms: C6_10  and  N1_11
REMARK    7  A    between atoms: C7_16  and  N4_17
REMARK    8  A    between atoms: C8_22  and  N6_23
REMARK    9  A    between atoms: C9_26  and  O4_27
REMARK   10  A    between atoms: O4_27  and  S1_28
REMARK   11  A    between atoms: C11_36  and  O9_37
REMARK   12  A    between atoms: C11_36  and  O10_39
ROOT
HETATM    1  C4  UNL     1       2.152 -43.146   1.784  1.00  0.00     0.142 A
HETATM    2  C5  UNL     1       1.510 -41.969   1.544  1.00  0.00     0.121 A
HETATM    3  C6  UNL     1       0.708 -41.405   2.562  1.00  0.00     0.162 A
HETATM    4  C9  UNL     1       0.619 -42.078   3.746  1.00  0.00     0.198 A
HETATM    5  N7  UNL     1       1.254 -43.238   3.980  1.00  0.00    -0.300 N
ATOM      6  H7  UNL     1       1.161 -43.708   4.881  1.00  0.00     0.171 HD
HETATM    7  C10 UNL     1       2.005 -43.762   3.018  1.00  0.00     0.266 A
HETATM    8  O8  UNL     1       2.599 -44.864   3.262  1.00  0.00    -0.267 OA
ENDROOT
BRANCH   3   9
HETATM    9  N1  UNL     1       0.022 -40.181   2.351  1.00  0.00    -0.064 N
HETATM   10  N2  UNL     1      -1.313 -40.131   2.298  1.00  0.00    -0.207 N
HETATM   11  N3  UNL     1      -1.992 -39.019   2.103  1.00  0.00    -0.117 N
ATOM     12  H2  UNL     1      -1.834 -41.000   2.414  1.00  0.00     0.210 HD
HETATM   13  C7  UNL     1      -1.345 -37.854   1.947  1.00  0.00     0.706 A
ATOM     14  H3  UNL     1      -3.011 -39.044   2.072  1.00  0.00     0.207 HD
HETATM   15  N5  UNL     1      -0.002 -37.856   1.993  1.00  0.00    -0.020 N
HETATM   16  C8  UNL     1       0.681 -39.012   2.194  1.00  0.00     0.713 A
ATOM     17  H5  UNL     1       0.509 -36.982   1.875  1.00  0.00     0.203 HD
BRANCH  13  18
HETATM   18  N4  UNL     1      -1.947 -36.724   1.753  1.00  0.00    -0.233 N
ATOM     19  H42 UNL     1      -2.916 -36.745   1.434  1.00  0.00     0.174 HD
ATOM     20  H41 UNL     1      -1.504 -35.819   1.904  1.00  0.00     0.174 HD
ENDBRANCH  13  18
BRANCH  16  21
HETATM   21  N6  UNL     1       1.970 -38.962   2.232  1.00  0.00    -0.232 N
ATOM     22  H62 UNL     1       2.453 -39.479   2.966  1.00  0.00     0.174 HD
ATOM     23  H61 UNL     1       2.498 -38.421   1.546  1.00  0.00     0.174 HD
ENDBRANCH  16  21
ENDBRANCH   3   9
BRANCH   2  24
HETATM   24  O3  UNL     1       1.556 -41.242   0.376  1.00  0.00    -0.357 OA
ATOM     25  H3  UNL     1       1.898 -41.542  -0.457  1.00  0.00     0.217 HD
ENDBRANCH   2  24
BRANCH   4  26
HETATM   26  O4  UNL     1      -0.160 -41.556   4.775  1.00  0.00    -0.193 OA
BRANCH  26  27
HETATM   27  S1  UNL     1      -1.600 -42.326   5.182  1.00  0.00     0.258 S
HETATM   28  O5  UNL     1      -2.035 -42.029   6.588  1.00  0.00    -0.572 OA
HETATM   29  O6  UNL     1      -2.684 -41.838   4.271  1.00  0.00    -0.572 OA
HETATM   30  O7  UNL     1      -1.427 -44.009   5.076  1.00  0.00    -0.572 OA
ENDBRANCH  26  27
ENDBRANCH   4  26
BRANCH   1  31
HETATM   31  C3  UNL     1       2.993 -43.797   0.806  1.00  0.00     0.302 C
HETATM   32  O2  UNL     1       3.909 -44.584   1.044  1.00  0.00    -0.259 OA
BRANCH  31  33
HETATM   33  O1  UNL     1       2.804 -43.556  -0.573  1.00  0.00    -0.307 OA
BRANCH  33  34
HETATM   34  C2  UNL     1       3.819 -43.080  -1.391  1.00  0.00     0.182 C
HETATM   35  C1  UNL     1       4.825 -42.216  -0.645  1.00  0.00     0.045 C
BRANCH  34  36
HETATM   36  C11 UNL     1       3.308 -42.363  -2.624  1.00  0.00     0.282 C
BRANCH  36  37
HETATM   37  O9  UNL     1       4.295 -41.449  -2.994  1.00  0.00    -0.369 OA
ATOM     38  H9  UNL     1       4.025 -41.076  -3.825  1.00  0.00     0.212 HD
ENDBRANCH  36  37
BRANCH  36  39
HETATM   39  O10 UNL     1       2.146 -41.647  -2.379  1.00  0.00    -0.369 OA
ATOM     40  H10 UNL     1       1.470 -41.820  -3.024  1.00  0.00     0.212 HD
ENDBRANCH  36  39
ENDBRANCH  34  36
ENDBRANCH  33  34
ENDBRANCH  31  33
ENDBRANCH   1  31
TORSDOF 12
ENDMDL