MODEL 3
REMARK VINA RESULT: -7.579877514      3.438      6.110
REMARK  14 active torsions:
REMARK  status: ('A' for Active; 'I' for Inactive)
REMARK    1  A    between atoms: O1_2  and  C2_3
REMARK    2  A    between atoms: C2_3  and  C3_5
REMARK    3  A    between atoms: C4_8  and  C5_9
REMARK    4  A    between atoms: C5_9  and  N2_10
REMARK    5  A    between atoms: C5_9  and  C7_17
REMARK    6  A    between atoms: N2_10  and  O3_11
REMARK    7  A    between atoms: O3_11  and  C6_12
REMARK    8  A    between atoms: C8_18  and  C9_19
REMARK    9  A    between atoms: C9_19  and  O4_20
REMARK   10  A    between atoms: C9_19  and  O5_22
REMARK   11  A    between atoms: C11_30  and  O7_31
REMARK   12  A    between atoms: C12_34  and  C13_35
REMARK   13  A    between atoms: C13_35  and  O8_36
REMARK   14  A    between atoms: C13_35  and  O9_38
ROOT
HETATM    1  C5  UNL     1       2.125 -40.710  -0.533  1.00  0.00     0.190 C
ENDROOT
BRANCH   1   2
HETATM    2  C4  UNL     1       1.435 -39.738  -1.425  1.00  0.00     0.120 A
HETATM    3  N1  UNL     1       0.255 -39.367  -1.687  1.00  0.00    -0.342 N
HETATM    4  C3  UNL     1      -0.086 -38.462  -2.566  1.00  0.00     0.127 A
ATOM      5  H1  UNL     1      -0.499 -39.815  -1.166  1.00  0.00     0.167 HD
HETATM    6  C12 UNL     1       0.936 -37.879  -3.241  1.00  0.00     0.072 A
HETATM    7  S1  UNL     1       2.313 -38.704  -2.543  1.00  0.00    -0.066 SA
BRANCH   4   8
HETATM    8  C2  UNL     1      -1.507 -38.179  -2.784  1.00  0.00     0.310 C
HETATM    9  O2  UNL     1      -2.089 -38.584  -3.850  1.00  0.00    -0.258 OA
BRANCH   8  10
HETATM   10  O1  UNL     1      -2.279 -37.494  -1.917  1.00  0.00    -0.321 OA
HETATM   11  C1  UNL     1      -1.997 -36.151  -1.485  1.00  0.00     0.213 C
ENDBRANCH   8  10
ENDBRANCH   4   8
BRANCH   6  12
HETATM   12  C13 UNL     1       1.052 -36.775  -4.247  1.00  0.00     0.297 C
BRANCH  12  13
HETATM   13  O8  UNL     1       2.354 -36.971  -4.846  1.00  0.00    -0.367 OA
ATOM     14  H8  UNL     1       2.966 -36.680  -4.181  1.00  0.00     0.213 HD
ENDBRANCH  12  13
BRANCH  12  15
HETATM   15  O9  UNL     1       1.149 -35.564  -3.624  1.00  0.00    -0.367 OA
ATOM     16  H9  UNL     1       1.226 -34.865  -4.262  1.00  0.00     0.213 HD
ENDBRANCH  12  15
ENDBRANCH   6  12
ENDBRANCH   1   2
BRANCH   1  17
HETATM   17  N2  UNL     1       3.351 -40.685  -0.703  1.00  0.00    -0.269 NA
BRANCH  17  18
HETATM   18  O3  UNL     1       4.566 -40.675  -0.879  1.00  0.00    -0.131 OA
BRANCH  18  19
HETATM   19  C6  UNL     1       5.430 -41.567  -1.541  1.00  0.00     0.264 C
HETATM   20  N3  UNL     1       5.604 -42.691  -0.959  1.00  0.00    -0.365 N
ATOM     21  H32 UNL     1       5.156 -42.943  -0.077  1.00  0.00     0.159 HD
ATOM     22  H31 UNL     1       6.230 -43.338  -1.439  1.00  0.00     0.159 HD
HETATM   23  N4  UNL     1       6.053 -41.217  -2.765  1.00  0.00    -0.054 NA
ENDBRANCH  18  19
ENDBRANCH  17  18
ENDBRANCH   1  17
BRANCH   1  24
HETATM   24  C7  UNL     1       1.557 -41.426   0.537  1.00  0.00     0.089 A
HETATM   25  C8  UNL     1       0.967 -40.965   1.661  1.00  0.00     0.086 A
HETATM   26  N5  UNL     1       0.750 -41.715   2.792  1.00  0.00    -0.307 N
HETATM   27  C10 UNL     1       1.113 -42.992   2.844  1.00  0.00     0.326 A
ATOM     28  H5  UNL     1       0.305 -41.285   3.603  1.00  0.00     0.170 HD
HETATM   29  O6  UNL     1       0.930 -43.713   3.871  1.00  0.00    -0.247 OA
HETATM   30  N6  UNL     1       1.691 -43.519   1.765  1.00  0.00    -0.288 N
HETATM   31  C11 UNL     1       1.920 -42.815   0.651  1.00  0.00     0.160 A
ATOM     32  H6  UNL     1       1.970 -44.500   1.790  1.00  0.00     0.172 HD
BRANCH  25  33
HETATM   33  C9  UNL     1       0.223 -39.699   1.657  1.00  0.00     0.306 C
BRANCH  33  34
HETATM   34  O4  UNL     1      -0.058 -39.419   3.069  1.00  0.00    -0.366 OA
ATOM     35  H4  UNL     1      -0.919 -39.789   3.227  1.00  0.00     0.213 HD
ENDBRANCH  33  34
BRANCH  33  36
HETATM   36  O5  UNL     1      -1.061 -39.788   1.095  1.00  0.00    -0.366 OA
ATOM     37  H5  UNL     1      -1.709 -40.185   1.665  1.00  0.00     0.213 HD
ENDBRANCH  33  36
ENDBRANCH  25  33
BRANCH  31  38
HETATM   38  O7  UNL     1       2.518 -43.391  -0.446  1.00  0.00    -0.345 OA
ATOM     39  H7  UNL     1       1.941 -43.766  -1.099  1.00  0.00     0.219 HD
ENDBRANCH  31  38
ENDBRANCH   1  24
TORSDOF 14
ENDMDL