MODEL 3
REMARK VINA RESULT: -8.059254645      3.533      4.616
REMARK  12 active torsions:
REMARK  status: ('A' for Active; 'I' for Inactive)
REMARK    1  A    between atoms: C3_5  and  C4_6
REMARK    2  A    between atoms: C4_6  and  O2_7
REMARK    3  A    between atoms: C4_6  and  C5_9
REMARK    4  A    between atoms: C6_14  and  S1_15
REMARK    5  A    between atoms: S1_15  and  C7_16
REMARK    6  A    between atoms: C8_19  and  N5_20
REMARK    7  A    between atoms: C10_27  and  O4_28
REMARK    8  A    between atoms: N7_30  and  N8_31
REMARK    9  A    between atoms: N10_36  and  C11_37
REMARK   10  A    between atoms: C11_37  and  O5_38
REMARK   11  A    between atoms: C11_37  and  C12_40
REMARK   12  A    between atoms: C12_40  and  N11_41
ROOT
HETATM    1  C5  UNL     1       0.449 -37.893  -2.195  1.00  0.00     0.155 A
HETATM    2  N2  UNL     1      -0.872 -38.106  -2.085  1.00  0.00    -0.283 N
ATOM      3  H2  UNL     1      -1.338 -38.501  -1.269  1.00  0.00     0.188 HD
HETATM    4  N3  UNL     1      -1.479 -37.724  -3.205  1.00  0.00    -0.277 N
ATOM      5  H3  UNL     1      -2.481 -37.778  -3.386  1.00  0.00     0.189 HD
HETATM    6  C6  UNL     1      -0.563 -37.260  -4.050  1.00  0.00     0.188 A
HETATM    7  N7  UNL     1       0.622 -37.362  -3.434  1.00  0.00    -0.222 N
ENDROOT
BRANCH   1   8
HETATM    8  C4  UNL     1       1.531 -38.162  -1.204  1.00  0.00     0.245 C
BRANCH   8   9
HETATM    9  C3  UNL     1       2.188 -39.442  -1.476  1.00  0.00     0.133 A
HETATM   10  C2  UNL     1       1.654 -40.683  -1.218  1.00  0.00     0.290 A
HETATM   11  N1  UNL     1       2.561 -41.593  -1.607  1.00  0.00    -0.241 N
HETATM   12  O1  UNL     1       0.505 -40.908  -0.703  1.00  0.00    -0.264 OA
HETATM   13  C1  UNL     1       2.345 -43.036  -1.489  1.00  0.00     0.183 C
HETATM   14  N10 UNL     1       3.618 -40.998  -2.086  1.00  0.00    -0.197 N
HETATM   15  N9  UNL     1       3.401 -39.676  -2.013  1.00  0.00    -0.277 N
ATOM     16  H9  UNL     1       4.057 -38.956  -2.318  1.00  0.00     0.189 HD
BRANCH  14  17
HETATM   17  C11 UNL     1       4.826 -41.609  -2.613  1.00  0.00     0.285 C
BRANCH  17  18
HETATM   18  O5  UNL     1       5.318 -40.954  -3.734  1.00  0.00    -0.372 OA
ATOM     19  H5  UNL     1       5.259 -41.478  -4.524  1.00  0.00     0.212 HD
ENDBRANCH  17  18
BRANCH  17  20
HETATM   20  C12 UNL     1       5.903 -41.732  -1.555  1.00  0.00     0.286 C
BRANCH  20  21
HETATM   21  N11 UNL     1       5.630 -42.887  -0.729  1.00  0.00    -0.075 N
ATOM     22 3H11 UNL     1       5.643 -43.757  -1.263  1.00  0.00     0.274 HD
ATOM     23 2H11 UNL     1       6.399 -43.097  -0.093  1.00  0.00     0.274 HD
ATOM     24 1H11 UNL     1       4.747 -42.749  -0.237  1.00  0.00     0.274 HD
ENDBRANCH  20  21
ENDBRANCH  17  20
ENDBRANCH  14  17
ENDBRANCH   8   9
BRANCH   8  25
HETATM   25  O2  UNL     1       0.983 -38.170   0.101  1.00  0.00    -0.381 OA
ATOM     26  H2  UNL     1       0.966 -37.286   0.449  1.00  0.00     0.211 HD
ENDBRANCH   8  25
ENDBRANCH   1   8
BRANCH   7  27
HETATM   27  N8  UNL     1       1.825 -36.973  -4.006  1.00  0.00    -0.335 N
ATOM     28  H82 UNL     1       2.185 -36.019  -3.976  1.00  0.00     0.177 HD
ATOM     29  H81 UNL     1       2.479 -37.571  -4.510  1.00  0.00     0.177 HD
ENDBRANCH   7  27
BRANCH   6  30
HETATM   30  S1  UNL     1      -0.973 -36.642  -5.678  1.00  0.00    -0.029 SA
BRANCH  30  31
HETATM   31  C7  UNL     1      -0.190 -37.555  -6.974  1.00  0.00     0.132 A
HETATM   32  N4  UNL     1      -0.714 -38.668  -7.512  1.00  0.00    -0.182 N
HETATM   33  C8  UNL     1      -0.081 -39.338  -8.504  1.00  0.00     0.679 A
ATOM     34  H4  UNL     1      -1.609 -39.017  -7.166  1.00  0.00     0.185 HD
HETATM   35  N6  UNL     1       1.087 -38.935  -9.000  1.00  0.00    -0.154 N
HETATM   36  C9  UNL     1       1.656 -37.832  -8.501  1.00  0.00     0.295 A
ATOM     37  H6  UNL     1       1.541 -39.459  -9.748  1.00  0.00     0.187 HD
HETATM   38  O3  UNL     1       2.767 -37.450  -8.972  1.00  0.00    -0.264 OA
HETATM   39  C10 UNL     1       1.018 -37.122  -7.473  1.00  0.00     0.169 A
BRANCH  33  40
HETATM   40  N5  UNL     1      -0.616 -40.410  -9.003  1.00  0.00    -0.234 N
ATOM     41  H52 UNL     1      -1.575 -40.351  -9.346  1.00  0.00     0.174 HD
ATOM     42  H51 UNL     1      -0.076 -41.276  -9.041  1.00  0.00     0.174 HD
ENDBRANCH  33  40
BRANCH  39  43
HETATM   43  O4  UNL     1       1.683 -35.991  -7.018  1.00  0.00    -0.354 OA
ATOM     44  H4  UNL     1       2.606 -35.825  -7.167  1.00  0.00     0.218 HD
ENDBRANCH  39  43
ENDBRANCH  30  31
ENDBRANCH   6  30
TORSDOF 12
ENDMDL