MODEL 3
REMARK VINA RESULT: -8.316785018      5.852     12.583
REMARK  11 active torsions:
REMARK  status: ('A' for Active; 'I' for Inactive)
REMARK    1  A    between atoms: C2_2  and  C10_39
REMARK    2  A    between atoms: N1_3  and  N2_5
REMARK    3  A    between atoms: N3_7  and  C3_9
REMARK    4  A    between atoms: C4_12  and  N5_13
REMARK    5  A    between atoms: C6_15  and  C7_16
REMARK    6  A    between atoms: C7_16  and  N6_17
REMARK    7  A    between atoms: C7_16  and  N7_21
REMARK    8  A    between atoms: C8_29  and  N10_30
REMARK    9  A    between atoms: N10_30  and  O1_34
REMARK   10  A    between atoms: C9_36  and  O2_37
REMARK   11  A    between atoms: N13_44  and  N14_45
ROOT
HETATM    1  C3  UNL     1       0.494 -39.258  -1.084  1.00  0.00     0.159 A
HETATM    2  N4  UNL     1       0.411 -40.339  -0.311  1.00  0.00    -0.322 N
ATOM      3  H4  UNL     1       0.705 -41.274  -0.591  1.00  0.00     0.169 HD
HETATM    4  C4  UNL     1      -0.105 -40.033   0.873  1.00  0.00     0.163 A
HETATM    5  C8  UNL     1      -0.381 -38.664   0.880  1.00  0.00     0.163 A
HETATM    6  C9  UNL     1      -0.010 -38.176  -0.337  1.00  0.00     0.146 A
ENDROOT
BRANCH   1   7
HETATM    7  N3  UNL     1       0.977 -39.088  -2.401  1.00  0.00    -0.269 N
HETATM    8  N2  UNL     1       0.467 -38.234  -3.122  1.00  0.00    -0.241 N
ATOM      9  H2  UNL     1      -0.270 -37.762  -2.598  1.00  0.00     0.208 HD
ATOM     10  H3  UNL     1       1.740 -39.668  -2.749  1.00  0.00     0.190 HD
BRANCH   8  11
HETATM   11  N1  UNL     1       0.530 -37.715  -4.313  1.00  0.00    -0.287 N
HETATM   12  C2  UNL     1      -0.171 -37.809  -5.338  1.00  0.00     0.067 C
HETATM   13  C1  UNL     1      -1.368 -38.649  -5.385  1.00  0.00     0.074 C
ATOM     14  H1  UNL     1       1.329 -37.093  -4.433  1.00  0.00     0.188 HD
BRANCH  12  15
HETATM   15  C10 UNL     1       0.274 -37.006  -6.498  1.00  0.00     0.137 A
HETATM   16  N12 UNL     1       1.592 -36.785  -6.721  1.00  0.00    -0.291 N
HETATM   17  C11 UNL     1       2.010 -36.043  -7.753  1.00  0.00     0.350 A
ATOM     18  H12 UNL     1       2.280 -37.193  -6.089  1.00  0.00     0.172 HD
HETATM   19  O3  UNL     1       3.228 -35.817  -7.989  1.00  0.00    -0.244 OA
HETATM   20  N13 UNL     1       1.107 -35.500  -8.596  1.00  0.00    -0.159 N
HETATM   21  C12 UNL     1      -0.191 -35.738  -8.348  1.00  0.00     0.350 A
HETATM   22  O4  UNL     1      -1.033 -35.233  -9.128  1.00  0.00    -0.244 OA
HETATM   23  N15 UNL     1      -0.635 -36.484  -7.310  1.00  0.00    -0.291 N
ATOM     24  H15 UNL     1      -1.632 -36.638  -7.157  1.00  0.00     0.172 HD
BRANCH  20  25
HETATM   25  N14 UNL     1       1.528 -34.718  -9.676  1.00  0.00    -0.330 N
ATOM     26 2H14 UNL     1       1.614 -35.096 -10.619  1.00  0.00     0.177 HD
ATOM     27 1H14 UNL     1       1.756 -33.733  -9.541  1.00  0.00     0.177 HD
ENDBRANCH  20  25
ENDBRANCH  12  15
ENDBRANCH   8  11
ENDBRANCH   1   7
BRANCH   6  28
HETATM   28  O2  UNL     1      -0.103 -36.871  -0.770  1.00  0.00    -0.355 OA
ATOM     29  H2  UNL     1      -0.889 -36.337  -0.763  1.00  0.00     0.218 HD
ENDBRANCH   6  28
BRANCH   4  30
HETATM   30  N5  UNL     1      -0.346 -40.912   1.964  1.00  0.00    -0.232 N
HETATM   31  C5  UNL     1       0.648 -41.525   2.658  1.00  0.00     0.150 A
HETATM   32  C6  UNL     1       0.090 -42.283   3.657  1.00  0.00     0.102 A
HETATM   33  N8  UNL     1      -1.244 -42.115   3.548  1.00  0.00    -0.285 N
HETATM   34  N9  UNL     1      -1.474 -41.295   2.533  1.00  0.00    -0.234 N
ATOM     35  H8  UNL     1      -1.952 -42.544   4.144  1.00  0.00     0.188 HD
ATOM     36  H9  UNL     1      -2.401 -40.999   2.230  1.00  0.00     0.209 HD
BRANCH  32  37
HETATM   37  C7  UNL     1       0.855 -43.105   4.648  1.00  0.00     0.430 C
BRANCH  37  38
HETATM   38  N6  UNL     1       1.791 -43.981   3.978  1.00  0.00    -0.045 N
ATOM     39  H63 UNL     1       1.321 -44.599   3.316  1.00  0.00     0.277 HD
ATOM     40  H62 UNL     1       2.381 -43.471   3.320  1.00  0.00     0.277 HD
ATOM     41  H61 UNL     1       2.345 -44.506   4.654  1.00  0.00     0.277 HD
ENDBRANCH  37  38
BRANCH  37  42
HETATM   42  N7  UNL     1      -0.102 -43.855   5.422  1.00  0.00    -0.045 N
ATOM     43  H73 UNL     1      -0.664 -43.267   6.037  1.00  0.00     0.277 HD
ATOM     44  H72 UNL     1      -0.866 -44.227   4.857  1.00  0.00     0.277 HD
ATOM     45  H71 UNL     1       0.409 -44.581   5.925  1.00  0.00     0.277 HD
ENDBRANCH  37  42
ENDBRANCH  32  37
ENDBRANCH   4  30
BRANCH   5  46
HETATM   46  N10 UNL     1      -0.941 -37.977   1.985  1.00  0.00    -0.163 N
HETATM   47  N11 UNL     1      -0.432 -36.862   2.355  1.00  0.00    -0.318 N
ATOM     48 2H11 UNL     1       0.378 -36.511   1.844  1.00  0.00     0.179 HD
ATOM     49 1H11 UNL     1      -0.836 -36.368   3.151  1.00  0.00     0.179 HD
BRANCH  46  50
HETATM   50  O1  UNL     1      -2.029 -38.448   2.671  1.00  0.00    -0.268 OA
ATOM     51  H1  UNL     1      -2.005 -38.632   3.603  1.00  0.00     0.247 HD
ENDBRANCH  46  50
ENDBRANCH   5  46
TORSDOF 11
ENDMDL