MODEL 4
REMARK VINA RESULT: -7.337984242      2.752      3.847
REMARK  11 active torsions:
REMARK  status: ('A' for Active; 'I' for Inactive)
REMARK    1  A    between atoms: N1_1  and  C1_4
REMARK    2  A    between atoms: C2_7  and  C3_8
REMARK    3  A    between atoms: C6_16  and  N5_17
REMARK    4  A    between atoms: N6_21  and  C7_22
REMARK    5  A    between atoms: N10_29  and  C8_30
REMARK    6  A    between atoms: C8_30  and  O1_31
REMARK    7  A    between atoms: O1_31  and  C9_32
REMARK    8  A    between atoms: C9_32  and  O2_33
REMARK    9  A    between atoms: C9_32  and  C10_35
REMARK   10  A    between atoms: C10_35  and  O3_36
REMARK   11  A    between atoms: C12_41  and  N12_42
ROOT
HETATM    1  C3  UNL     1       1.469 -41.408   0.791  1.00  0.00     0.122 A
HETATM    2  N3  UNL     1       0.993 -40.189   0.895  1.00  0.00    -0.344 N
ATOM      3  H3  UNL     1       0.690 -39.841   1.804  1.00  0.00     0.167 HD
HETATM    4  C4  UNL     1       0.903 -39.419  -0.156  1.00  0.00     0.083 A
HETATM    5  C5  UNL     1       1.328 -39.943  -1.355  1.00  0.00     0.103 A
HETATM    6  S1  UNL     1       1.826 -41.506  -0.890  1.00  0.00    -0.049 SA
HETATM    7  N4  UNL     1       1.283 -39.190  -2.588  1.00  0.00    -0.338 N
ATOM      8  H4  UNL     1       2.013 -39.290  -3.294  1.00  0.00     0.164 HD
HETATM    9  C6  UNL     1       0.181 -38.299  -2.788  1.00  0.00     0.409 C
HETATM   10  N6  UNL     1      -0.176 -37.705  -1.505  1.00  0.00    -0.141 N
HETATM   11  C11 UNL     1       0.385 -37.985  -0.260  1.00  0.00     0.145 C
ENDROOT
BRANCH  10  12
HETATM   12  C7  UNL     1      -1.252 -36.759  -1.622  1.00  0.00     0.723 A
HETATM   13  N7  UNL     1      -2.530 -37.281  -1.508  1.00  0.00    -0.114 N
HETATM   14  N8  UNL     1      -3.333 -36.284  -1.715  1.00  0.00    -0.213 N
ATOM     15  H7  UNL     1      -2.787 -38.247  -1.304  1.00  0.00     0.207 HD
HETATM   16  N9  UNL     1      -2.641 -35.192  -1.947  1.00  0.00    -0.209 N
ATOM     17  H8  UNL     1      -4.351 -36.340  -1.700  1.00  0.00     0.210 HD
HETATM   18  N10 UNL     1      -1.309 -35.476  -1.888  1.00  0.00    -0.082 N
ATOM     19  H9  UNL     1      -3.038 -34.273  -2.141  1.00  0.00     0.210 HD
BRANCH  18  20
HETATM   20  C8  UNL     1      -0.266 -34.509  -2.020  1.00  0.00     0.340 C
BRANCH  20  21
HETATM   21  O1  UNL     1      -0.313 -33.827  -3.183  1.00  0.00    -0.338 OA
BRANCH  21  22
HETATM   22  C9  UNL     1       0.710 -33.654  -4.022  1.00  0.00     0.282 C
BRANCH  22  23
HETATM   23  O2  UNL     1       1.515 -34.830  -4.000  1.00  0.00    -0.369 OA
ATOM     24  H2  UNL     1       1.577 -35.169  -4.885  1.00  0.00     0.212 HD
ENDBRANCH  22  23
BRANCH  22  25
HETATM   25  C10 UNL     1       1.572 -32.505  -3.448  1.00  0.00     0.224 C
BRANCH  25  26
HETATM   26  O3  UNL     1       2.679 -32.999  -2.789  1.00  0.00    -0.396 OA
ATOM     27  H3  UNL     1       2.489 -33.837  -2.384  1.00  0.00     0.209 HD
ENDBRANCH  25  26
ENDBRANCH  22  25
ENDBRANCH  21  22
ENDBRANCH  20  21
ENDBRANCH  18  20
ENDBRANCH  10  12
BRANCH   9  28
HETATM   28  N5  UNL     1       0.276 -37.414  -3.880  1.00  0.00    -0.040 N
ATOM     29  H53 UNL     1       1.257 -37.264  -4.115  1.00  0.00     0.279 HD
ATOM     30  H52 UNL     1      -0.050 -37.879  -4.727  1.00  0.00     0.279 HD
ATOM     31  H51 UNL     1      -0.195 -36.514  -3.780  1.00  0.00     0.279 HD
ENDBRANCH   9  28
BRANCH   1  32
HETATM   32  C2  UNL     1       1.665 -42.440   1.806  1.00  0.00     0.170 A
HETATM   33  N2  UNL     1       0.969 -42.434   2.934  1.00  0.00    -0.173 N
HETATM   34  C1  UNL     1       1.150 -43.395   3.883  1.00  0.00     0.692 A
ATOM     35  H2  UNL     1       0.284 -41.694   3.096  1.00  0.00     0.186 HD
HETATM   36  N13 UNL     1       2.046 -44.375   3.689  1.00  0.00    -0.023 N
HETATM   37  C12 UNL     1       2.759 -44.380   2.533  1.00  0.00     0.692 A
ATOM     38  H13 UNL     1       2.187 -45.099   4.393  1.00  0.00     0.203 HD
HETATM   39  N11 UNL     1       2.562 -43.417   1.606  1.00  0.00    -0.173 N
ATOM     40  H11 UNL     1       3.104 -43.433   0.741  1.00  0.00     0.186 HD
BRANCH  34  41
HETATM   41  N1  UNL     1       0.478 -43.396   4.980  1.00  0.00    -0.234 N
ATOM     42  H12 UNL     1       0.362 -42.511   5.473  1.00  0.00     0.174 HD
ATOM     43  H11 UNL     1       0.067 -44.251   5.355  1.00  0.00     0.174 HD
ENDBRANCH  34  41
BRANCH  37  44
HETATM   44  N12 UNL     1       3.611 -45.324   2.362  1.00  0.00    -0.234 N
ATOM     45 2H12 UNL     1       3.582 -45.833   1.479  1.00  0.00     0.174 HD
ATOM     46 1H12 UNL     1       4.299 -45.566   3.075  1.00  0.00     0.174 HD
ENDBRANCH  37  44
ENDBRANCH   1  32
TORSDOF 11
ENDMDL