MODEL 2
REMARK VINA RESULT: -8.340078833      3.829      6.128
REMARK  11 active torsions:
REMARK  status: ('A' for Active; 'I' for Inactive)
REMARK    1  A    between atoms: C3_6  and  N3_7
REMARK    2  A    between atoms: C4_12  and  C5_13
REMARK    3  A    between atoms: C7_16  and  N5_17
REMARK    4  A    between atoms: N5_17  and  C8_19
REMARK    5  A    between atoms: C8_19  and  O2_20
REMARK    6  A    between atoms: C8_19  and  C9_22
REMARK    7  A    between atoms: C10_25  and  C11_26
REMARK    8  A    between atoms: C12_32  and  N9_33
REMARK    9  A    between atoms: C13_37  and  C14_38
REMARK   10  A    between atoms: C14_38  and  O5_39
REMARK   11  A    between atoms: C14_38  and  O6_41
ROOT
HETATM    1  N1  UNL     1       0.392 -40.572   3.217  1.00  0.00    -0.188 NA
HETATM    2  C1  UNL     1       0.049 -39.635   2.612  1.00  0.00     0.137 C
HETATM    3  C2  UNL     1      -0.369 -38.496   1.847  1.00  0.00     0.204 A
HETATM    4  N2  UNL     1      -1.157 -37.531   2.369  1.00  0.00    -0.167 N
ATOM      5  H2  UNL     1      -1.472 -37.601   3.336  1.00  0.00     0.186 HD
HETATM    6  C3  UNL     1      -1.523 -36.486   1.623  1.00  0.00     0.679 A
HETATM    7  N4  UNL     1      -1.097 -36.414   0.357  1.00  0.00    -0.176 N
ATOM      8  H4  UNL     1      -1.380 -35.613  -0.205  1.00  0.00     0.185 HD
HETATM    9  C4  UNL     1      -0.312 -37.347  -0.209  1.00  0.00     0.155 A
HETATM   10  N10 UNL     1       0.045 -38.390   0.558  1.00  0.00    -0.318 N
ATOM     11  H10 UNL     1       0.641 -39.120   0.165  1.00  0.00     0.169 HD
ENDROOT
BRANCH   6  12
HETATM   12  N3  UNL     1      -2.278 -35.574   2.160  1.00  0.00    -0.234 N
ATOM     13  H32 UNL     1      -2.073 -35.155   3.067  1.00  0.00     0.174 HD
ATOM     14  H31 UNL     1      -3.110 -35.270   1.654  1.00  0.00     0.174 HD
ENDBRANCH   6  12
BRANCH   9  15
HETATM   15  C5  UNL     1       0.166 -37.283  -1.625  1.00  0.00     0.331 C
HETATM   16  O1  UNL     1      -0.495 -38.203  -2.415  1.00  0.00    -0.350 OA
HETATM   17  C6  UNL     1       0.368 -38.470  -3.449  1.00  0.00     0.225 C
HETATM   18  C7  UNL     1       1.727 -38.411  -2.789  1.00  0.00     0.246 C
HETATM   19  O7  UNL     1       1.515 -37.517  -1.724  1.00  0.00    -0.328 OA
BRANCH  18  20
HETATM   20  N5  UNL     1       2.014 -39.738  -2.279  1.00  0.00    -0.364 N
ATOM     21  H5  UNL     1       1.691 -40.585  -2.746  1.00  0.00     0.158 HD
BRANCH  20  22
HETATM   22  C8  UNL     1       2.781 -39.772  -1.079  1.00  0.00     0.269 C
BRANCH  22  23
HETATM   23  O2  UNL     1       4.042 -39.214  -1.273  1.00  0.00    -0.371 OA
ATOM     24  H2  UNL     1       4.615 -39.812  -1.738  1.00  0.00     0.212 HD
ENDBRANCH  22  23
BRANCH  22  25
HETATM   25  C9  UNL     1       2.896 -41.064  -0.408  1.00  0.00     0.095 A
HETATM   26  N6  UNL     1       2.241 -41.472   0.671  1.00  0.00    -0.332 N
HETATM   27  C10 UNL     1       2.641 -42.714   0.972  1.00  0.00     0.181 A
ATOM     28  H6  UNL     1       1.547 -40.930   1.187  1.00  0.00     0.168 HD
HETATM   29  O4  UNL     1       3.532 -43.049   0.078  1.00  0.00    -0.288 OA
HETATM   30  C13 UNL     1       3.740 -42.100  -0.792  1.00  0.00     0.136 A
BRANCH  27  31
HETATM   31  C11 UNL     1       2.186 -43.553   2.086  1.00  0.00     0.153 A
HETATM   32  N7  UNL     1       1.081 -43.367   2.821  1.00  0.00    -0.234 N
HETATM   33  O3  UNL     1       1.017 -44.320   3.702  1.00  0.00    -0.155 OA
ATOM     34  H7  UNL     1       0.407 -42.610   2.708  1.00  0.00     0.197 HD
HETATM   35  N8  UNL     1       2.003 -45.142   3.619  1.00  0.00    -0.224 N
HETATM   36  C12 UNL     1       2.792 -44.687   2.582  1.00  0.00     0.154 A
ATOM     37  H8  UNL     1       2.169 -45.963   4.200  1.00  0.00     0.198 HD
BRANCH  36  38
HETATM   38  N9  UNL     1       3.837 -45.236   2.219  1.00  0.00    -0.382 N
ATOM     39  H92 UNL     1       4.746 -45.075   2.654  1.00  0.00     0.157 HD
ATOM     40  H91 UNL     1       3.985 -45.906   1.463  1.00  0.00     0.157 HD
ENDBRANCH  36  38
ENDBRANCH  27  31
BRANCH  30  41
HETATM   41  C14 UNL     1       4.663 -42.096  -1.944  1.00  0.00     0.315 C
BRANCH  41  42
HETATM   42  O5  UNL     1       4.089 -41.665  -3.113  1.00  0.00    -0.365 OA
ATOM     43  H5  UNL     1       4.314 -42.195  -3.869  1.00  0.00     0.213 HD
ENDBRANCH  41  42
BRANCH  41  44
HETATM   44  O6  UNL     1       5.869 -41.456  -1.656  1.00  0.00    -0.365 OA
ATOM     45  H6  UNL     1       6.572 -41.733  -2.231  1.00  0.00     0.213 HD
ENDBRANCH  41  44
ENDBRANCH  30  41
ENDBRANCH  22  25
ENDBRANCH  20  22
ENDBRANCH  18  20
ENDBRANCH   9  15
TORSDOF 11
ENDMDL