MODEL 3
REMARK VINA RESULT: -8.183056412      2.269      5.144
REMARK  14 active torsions:
REMARK  status: ('A' for Active; 'I' for Inactive)
REMARK    1  A    between atoms: O1_2  and  C2_3
REMARK    2  A    between atoms: C2_3  and  C3_4
REMARK    3  A    between atoms: C3_4  and  N1_5
REMARK    4  A    between atoms: C3_4  and  C14_41
REMARK    5  A    between atoms: N1_5  and  C4_7
REMARK    6  A    between atoms: C5_8  and  N2_9
REMARK    7  A    between atoms: N2_9  and  C6_11
REMARK    8  A    between atoms: N5_19  and  N6_20
REMARK    9  A    between atoms: N7_23  and  N8_24
REMARK   10  A    between atoms: N9_27  and  N10_28
REMARK   11  A    between atoms: N10_28  and  O2_30
REMARK   12  A    between atoms: C12_36  and  O3_37
REMARK   13  A    between atoms: C14_41  and  O5_42
REMARK   14  A    between atoms: C14_41  and  O6_44
ROOT
HETATM    1  N2  UNL     1       0.295 -38.971   1.387  1.00  0.00    -0.325 N
ATOM      2  H2  UNL     1       1.245 -38.603   1.436  1.00  0.00     0.169 HD
ENDROOT
BRANCH   1   3
HETATM    3  C5  UNL     1      -0.673 -38.256   0.610  1.00  0.00     0.138 A
HETATM    4  C4  UNL     1      -0.762 -38.633  -0.715  1.00  0.00     0.130 A
HETATM    5  C13 UNL     1      -1.677 -37.981  -1.515  1.00  0.00     0.237 A
HETATM    6  C12 UNL     1      -2.468 -36.972  -0.950  1.00  0.00     0.141 A
HETATM    7  O4  UNL     1      -1.850 -38.233  -2.732  1.00  0.00    -0.283 OA
HETATM    8  C10 UNL     1      -2.334 -36.638   0.384  1.00  0.00     0.044 A
HETATM    9  N11 UNL     1      -1.437 -37.286   1.144  1.00  0.00    -0.342 N
HETATM   10  C11 UNL     1      -3.206 -35.549   0.941  1.00  0.00     0.071 C
ATOM     11  H11 UNL     1      -1.335 -37.043   2.129  1.00  0.00     0.167 HD
BRANCH   4  12
HETATM   12  N1  UNL     1       0.057 -39.670  -1.280  1.00  0.00    -0.351 N
ATOM     13  H1  UNL     1      -0.266 -40.635  -1.204  1.00  0.00     0.166 HD
BRANCH  12  14
HETATM   14  C3  UNL     1       1.160 -39.453  -1.867  1.00  0.00     0.066 C
BRANCH  14  15
HETATM   15  C2  UNL     1       1.882 -40.621  -2.435  1.00  0.00     0.224 C
BRANCH  15  16
HETATM   16  O1  UNL     1       3.269 -40.394  -2.416  1.00  0.00    -0.390 OA
HETATM   17  C1  UNL     1       3.955 -41.595  -2.535  1.00  0.00     0.201 C
ENDBRANCH  15  16
ENDBRANCH  14  15
BRANCH  14  18
HETATM   18  C14 UNL     1       1.686 -38.082  -1.969  1.00  0.00     0.303 C
BRANCH  18  19
HETATM   19  O5  UNL     1       2.706 -37.833  -1.053  1.00  0.00    -0.366 OA
ATOM     20  H5  UNL     1       3.189 -38.618  -0.825  1.00  0.00     0.213 HD
ENDBRANCH  18  19
BRANCH  18  21
HETATM   21  O6  UNL     1       2.182 -37.802  -3.243  1.00  0.00    -0.366 OA
ATOM     22  H6  UNL     1       2.768 -37.054  -3.243  1.00  0.00     0.213 HD
ENDBRANCH  18  21
ENDBRANCH  14  18
ENDBRANCH  12  14
ENDBRANCH   4  12
BRANCH   6  23
HETATM   23  O3  UNL     1      -3.394 -36.300  -1.730  1.00  0.00    -0.355 OA
ATOM     24  H3  UNL     1      -3.985 -35.678  -1.323  1.00  0.00     0.218 HD
ENDBRANCH   6  23
ENDBRANCH   1   3
BRANCH   1  25
HETATM   25  C6  UNL     1       0.028 -40.044   2.019  1.00  0.00     0.142 A
HETATM   26  N3  UNL     1      -1.079 -40.249   2.753  1.00  0.00    -0.336 N
HETATM   27  C7  UNL     1      -1.316 -41.398   3.402  1.00  0.00     0.183 A
ATOM     28  H3  UNL     1      -1.767 -39.499   2.819  1.00  0.00     0.168 HD
HETATM   29  N4  UNL     1      -0.407 -42.405   3.323  1.00  0.00    -0.334 N
HETATM   30  C8  UNL     1       0.734 -42.253   2.593  1.00  0.00     0.180 A
ATOM     31  H4  UNL     1      -0.579 -43.282   3.815  1.00  0.00     0.168 HD
HETATM   32  C9  UNL     1       0.979 -41.066   1.923  1.00  0.00     0.164 A
HETATM   33  N9  UNL     1       1.832 -43.116   2.342  1.00  0.00    -0.139 N
HETATM   34  N5  UNL     1       2.220 -41.249   1.284  1.00  0.00    -0.177 N
HETATM   35  N7  UNL     1       2.558 -42.605   1.267  1.00  0.00     0.000 NA
BRANCH  34  36
HETATM   36  N6  UNL     1       3.009 -40.238   0.741  1.00  0.00    -0.325 N
ATOM     37  H62 UNL     1       2.680 -39.290   0.560  1.00  0.00     0.178 HD
ATOM     38  H61 UNL     1       3.987 -40.331   0.469  1.00  0.00     0.178 HD
ENDBRANCH  34  36
BRANCH  35  39
HETATM   39  N8  UNL     1       1.995 -43.157   0.096  1.00  0.00    -0.324 NA
ATOM     40  H82 UNL     1       2.624 -42.921  -0.672  1.00  0.00     0.174 HD
ATOM     41  H81 UNL     1       2.095 -44.170   0.165  1.00  0.00     0.174 HD
ENDBRANCH  35  39
BRANCH  33  42
HETATM   42  N10 UNL     1       2.122 -44.270   3.054  1.00  0.00    -0.188 N
ATOM     43  H10 UNL     1       1.854 -45.166   2.645  1.00  0.00     0.217 HD
BRANCH  42  44
HETATM   44  O2  UNL     1       2.689 -44.280   4.161  1.00  0.00    -0.273 OA
ATOM     45  H2  UNL     1       3.575 -43.969   4.305  1.00  0.00     0.246 HD
ENDBRANCH  42  44
ENDBRANCH  33  42
ENDBRANCH   1  25
TORSDOF 14
ENDMDL