MODEL 1
REMARK VINA RESULT: -8.753890647      0.000      0.000
REMARK  13 active torsions:
REMARK  status: ('A' for Active; 'I' for Inactive)
REMARK    1  A    between atoms: C2_2  and  N2_5
REMARK    2  A    between atoms: C4_10  and  C5_11
REMARK    3  A    between atoms: C5_11  and  O1_12
REMARK    4  A    between atoms: C5_11  and  N5_14
REMARK    5  A    between atoms: N5_14  and  C6_16
REMARK    6  A    between atoms: C6_16  and  C7_21
REMARK    7  A    between atoms: N6_17  and  O2_19
REMARK    8  A    between atoms: C7_21  and  O4_23
REMARK    9  A    between atoms: O4_23  and  C8_24
REMARK   10  A    between atoms: C8_24  and  N7_25
REMARK   11  A    between atoms: C10_30  and  N10_31
REMARK   12  A    between atoms: C11_36  and  N12_37
REMARK   13  A    between atoms: C13_43  and  O5_44
ROOT
HETATM    1  C1  UNL     1       2.673 -43.018  -2.506  1.00  0.00     0.050 C
HETATM    2  C2  UNL     1       3.530 -42.960  -1.255  1.00  0.00     0.214 C
HETATM    3  C3  UNL     1       4.288 -41.717  -1.286  1.00  0.00     0.086 C
HETATM    4  N1  UNL     1       4.878 -40.730  -1.319  1.00  0.00    -0.195 NA
ENDROOT
BRANCH   2   5
HETATM    5  N2  UNL     1       2.694 -43.039  -0.050  1.00  0.00    -0.237 N
HETATM    6  N3  UNL     1       1.573 -42.384   0.157  1.00  0.00    -0.237 N
HETATM    7  N4  UNL     1       1.076 -42.692   1.357  1.00  0.00    -0.282 N
ATOM      8  H3  UNL     1       1.144 -41.734  -0.503  1.00  0.00     0.208 HD
HETATM    9  C4  UNL     1       1.896 -43.576   1.955  1.00  0.00     0.127 A
ATOM     10  H4  UNL     1       0.214 -42.318   1.756  1.00  0.00     0.188 HD
HETATM   11  C13 UNL     1       2.928 -43.788   1.041  1.00  0.00     0.188 A
BRANCH   9  12
HETATM   12  C5  UNL     1       1.798 -44.224   3.278  1.00  0.00     0.276 C
BRANCH  12  13
HETATM   13  O1  UNL     1       2.948 -44.979   3.500  1.00  0.00    -0.371 OA
ATOM     14  H1  UNL     1       3.571 -44.456   3.992  1.00  0.00     0.212 HD
ENDBRANCH  12  13
BRANCH  12  15
HETATM   15  N5  UNL     1       1.611 -43.224   4.305  1.00  0.00    -0.339 N
ATOM     16  H5  UNL     1       2.437 -42.751   4.674  1.00  0.00     0.164 HD
BRANCH  15  17
HETATM   17  C6  UNL     1       0.355 -42.870   4.824  1.00  0.00     0.200 C
HETATM   18  N6  UNL     1      -0.314 -43.755   5.468  1.00  0.00    -0.248 N
ATOM     19  H6  UNL     1       0.091 -44.685   5.580  1.00  0.00     0.196 HD
BRANCH  18  20
HETATM   20  O2  UNL     1      -1.538 -43.512   6.010  1.00  0.00    -0.288 OA
ATOM     21  H2  UNL     1      -2.212 -43.013   5.563  1.00  0.00     0.244 HD
ENDBRANCH  18  20
BRANCH  17  22
HETATM   22  C7  UNL     1      -0.157 -41.503   4.617  1.00  0.00     0.335 C
HETATM   23  O3  UNL     1      -0.681 -40.930   5.590  1.00  0.00    -0.255 OA
BRANCH  22  24
HETATM   24  O4  UNL     1      -0.081 -40.863   3.435  1.00  0.00    -0.266 OA
BRANCH  24  25
HETATM   25  C8  UNL     1      -0.835 -39.908   2.832  1.00  0.00     0.262 C
BRANCH  25  26
HETATM   26  N7  UNL     1      -0.538 -39.546   1.466  1.00  0.00    -0.210 N
HETATM   27  N8  UNL     1      -1.409 -39.465   0.453  1.00  0.00    -0.012 NA
HETATM   28  N9  UNL     1      -0.797 -39.072  -0.651  1.00  0.00    -0.277 N
HETATM   29  C9  UNL     1       0.508 -38.883  -0.386  1.00  0.00     0.136 A
ATOM     30  H9  UNL     1      -1.242 -38.935  -1.557  1.00  0.00     0.184 HD
HETATM   31  C10 UNL     1       1.605 -38.504  -1.120  1.00  0.00     0.146 A
HETATM   32  C12 UNL     1       0.652 -39.188   0.956  1.00  0.00     0.174 A
HETATM   33  N11 UNL     1       2.824 -38.426  -0.548  1.00  0.00    -0.175 N
HETATM   34  C11 UNL     1       2.985 -38.717   0.746  1.00  0.00     0.679 A
ATOM     35  H11 UNL     1       3.629 -38.144  -1.107  1.00  0.00     0.186 HD
HETATM   36  N13 UNL     1       1.910 -39.083   1.445  1.00  0.00    -0.173 N
ATOM     37  H13 UNL     1       2.047 -39.303   2.432  1.00  0.00     0.186 HD
BRANCH  31  38
HETATM   38  N10 UNL     1       1.498 -38.215  -2.365  1.00  0.00    -0.383 N
ATOM     39 2H10 UNL     1       0.637 -37.771  -2.686  1.00  0.00     0.157 HD
ATOM     40 1H10 UNL     1       2.253 -38.424  -3.018  1.00  0.00     0.157 HD
ENDBRANCH  31  38
BRANCH  34  41
HETATM   41  N12 UNL     1       4.161 -38.637   1.279  1.00  0.00    -0.234 N
ATOM     42 2H12 UNL     1       4.882 -38.013   0.918  1.00  0.00     0.174 HD
ATOM     43 1H12 UNL     1       4.389 -39.213   2.090  1.00  0.00     0.174 HD
ENDBRANCH  34  41
ENDBRANCH  25  26
ENDBRANCH  24  25
ENDBRANCH  22  24
ENDBRANCH  17  22
ENDBRANCH  15  17
ENDBRANCH  12  15
ENDBRANCH   9  12
BRANCH  11  44
HETATM   44  O5  UNL     1       4.025 -44.627   1.205  1.00  0.00    -0.343 OA
ATOM     45  H5  UNL     1       4.179 -45.173   1.967  1.00  0.00     0.219 HD
ENDBRANCH  11  44
ENDBRANCH   2   5
TORSDOF 13
ENDMDL