MODEL 2
REMARK VINA RESULT: -8.508928222      4.010      4.926
REMARK  10 active torsions:
REMARK  status: ('A' for Active; 'I' for Inactive)
REMARK    1  A    between atoms: C2_2  and  N1_4
REMARK    2  A    between atoms: C2_2  and  N2_8
REMARK       I    between atoms: N2_8  and  C4_10
REMARK    3  A    between atoms: C4_10  and  C5_12
REMARK    4  A    between atoms: C6_14  and  C7_15
REMARK    5  A    between atoms: C7_15  and  O2_16
REMARK    6  A    between atoms: C7_15  and  C8_18
REMARK    7  A    between atoms: C8_18  and  O3_19
REMARK    8  A    between atoms: C8_18  and  C9_21
REMARK    9  A    between atoms: N5_26  and  C10_27
REMARK   10  A    between atoms: N7_31  and  N8_32
ROOT
HETATM    1  C7  UNL     1       1.094 -38.512   0.081  1.00  0.00     0.211 C
ENDROOT
BRANCH   1   2
HETATM    2  C6  UNL     1       0.787 -37.961  -1.292  1.00  0.00     0.085 A
HETATM    3  S1  UNL     1       1.602 -38.336  -2.775  1.00  0.00    -0.065 SA
HETATM    4  C5  UNL     1       0.687 -37.333  -3.817  1.00  0.00     0.115 A
HETATM    5  C13 UNL     1      -0.202 -36.765  -2.942  1.00  0.00     0.139 A
HETATM    6  N11 UNL     1      -0.115 -37.105  -1.698  1.00  0.00    -0.339 N
HETATM    7  N12 UNL     1      -1.193 -35.816  -3.422  1.00  0.00    -0.081 NA
ATOM      8  H11 UNL     1      -0.762 -36.700  -1.021  1.00  0.00     0.167 HD
BRANCH   4   9
HETATM    9  C4  UNL     1       0.834 -37.145  -5.271  1.00  0.00     0.263 C
HETATM   10  N2  UNL     1      -0.236 -37.448  -6.122  1.00  0.00    -0.324 N
ATOM     11  H2  UNL     1      -1.111 -37.797  -5.730  1.00  0.00     0.165 HD
HETATM   12  O1  UNL     1       1.950 -36.711  -5.658  1.00  0.00    -0.267 OA
BRANCH  10  13
HETATM   13  C2  UNL     1      -0.112 -37.273  -7.539  1.00  0.00     0.190 C
HETATM   14  C1  UNL     1      -0.339 -35.817  -7.943  1.00  0.00     0.070 C
HETATM   15  C3  UNL     1      -1.158 -38.127  -8.226  1.00  0.00     0.070 C
BRANCH  13  16
HETATM   16  N1  UNL     1       1.168 -37.688  -8.070  1.00  0.00    -0.053 N
ATOM     17  H13 UNL     1       1.133 -37.890  -9.069  1.00  0.00     0.277 HD
ATOM     18  H12 UNL     1       1.844 -36.926  -8.108  1.00  0.00     0.277 HD
ATOM     19  H11 UNL     1       1.495 -38.480  -7.517  1.00  0.00     0.277 HD
ENDBRANCH  13  16
ENDBRANCH  10  13
ENDBRANCH   4   9
ENDBRANCH   1   2
BRANCH   1  20
HETATM   20  O2  UNL     1       2.067 -37.643   0.611  1.00  0.00    -0.386 OA
ATOM     21  H2  UNL     1       1.582 -36.878   0.897  1.00  0.00     0.210 HD
ENDBRANCH   1  20
BRANCH   1  22
HETATM   22  C8  UNL     1      -0.180 -38.415   0.886  1.00  0.00     0.223 C
BRANCH  22  23
HETATM   23  O3  UNL     1       0.073 -37.463   1.911  1.00  0.00    -0.385 OA
ATOM     24  H3  UNL     1      -0.397 -36.676   1.661  1.00  0.00     0.210 HD
ENDBRANCH  22  23
BRANCH  22  25
HETATM   25  C9  UNL     1      -0.353 -39.732   1.601  1.00  0.00     0.145 A
HETATM   26  N3  UNL     1      -1.420 -40.270   2.173  1.00  0.00    -0.269 N
HETATM   27  N4  UNL     1      -1.062 -41.444   2.665  1.00  0.00    -0.219 N
ATOM     28  H3  UNL     1      -2.350 -39.853   2.225  1.00  0.00     0.190 HD
HETATM   29  N5  UNL     1       0.213 -41.671   2.417  1.00  0.00    -0.176 N
ATOM     30  H4  UNL     1      -1.683 -42.081   3.164  1.00  0.00     0.210 HD
HETATM   31  N10 UNL     1       0.658 -40.618   1.759  1.00  0.00    -0.263 N
ATOM     32  H10 UNL     1       1.613 -40.490   1.424  1.00  0.00     0.190 HD
BRANCH  29  33
HETATM   33  C10 UNL     1       0.987 -42.829   2.782  1.00  0.00     0.137 A
HETATM   34  C11 UNL     1       0.790 -43.655   3.863  1.00  0.00     0.146 A
HETATM   35  N6  UNL     1       1.734 -44.596   3.815  1.00  0.00    -0.287 N
HETATM   36  N7  UNL     1       2.535 -44.452   2.789  1.00  0.00    -0.187 N
ATOM     37  H6  UNL     1       1.823 -45.346   4.501  1.00  0.00     0.188 HD
HETATM   38  C12 UNL     1       2.093 -43.353   2.121  1.00  0.00     0.187 A
HETATM   39  N9  UNL     1       2.648 -42.803   0.940  1.00  0.00    -0.076 NA
BRANCH  36  40
HETATM   40  N8  UNL     1       3.636 -45.249   2.421  1.00  0.00    -0.323 N
ATOM     41  H82 UNL     1       3.584 -46.165   1.975  1.00  0.00     0.179 HD
ATOM     42  H81 UNL     1       4.629 -45.048   2.537  1.00  0.00     0.179 HD
ENDBRANCH  36  40
ENDBRANCH  29  33
ENDBRANCH  22  25
ENDBRANCH   1  22
TORSDOF 10
ENDMDL