MODEL 5
REMARK VINA RESULT: -7.930260294      2.634      9.897
REMARK  12 active torsions:
REMARK  status: ('A' for Active; 'I' for Inactive)
REMARK    1  A    between atoms: C3_6  and  C4_7
REMARK    2  A    between atoms: C4_7  and  N3_8
REMARK    3  A    between atoms: N3_8  and  N4_10
REMARK       I    between atoms: N4_10  and  C5_12
REMARK    4  A    between atoms: C5_12  and  C6_14
REMARK    5  A    between atoms: N5_16  and  C8_17
REMARK    6  A    between atoms: C9_22  and  C10_23
REMARK    7  A    between atoms: C10_23  and  N8_24
REMARK    8  A    between atoms: C10_23  and  N9_28
REMARK    9  A    between atoms: N9_28  and  N10_29
REMARK   10  A    between atoms: C11_32  and  O2_33
REMARK   11  A    between atoms: C12_35  and  C13_36
REMARK   12  A    between atoms: C14_43  and  O5_44
ROOT
HETATM    1  C6  UNL     1      -0.574 -37.964  -1.237  1.00  0.00     0.136 A
HETATM    2  C7  UNL     1      -0.823 -39.171  -0.610  1.00  0.00     0.156 A
HETATM    3  N5  UNL     1      -0.159 -39.152   0.583  1.00  0.00    -0.232 N
HETATM    4  N11 UNL     1       0.462 -37.991   0.674  1.00  0.00    -0.234 N
ATOM      5  H11 UNL     1       1.040 -37.692   1.459  1.00  0.00     0.209 HD
HETATM    6  N12 UNL     1       0.222 -37.284  -0.398  1.00  0.00    -0.279 N
ATOM      7  H12 UNL     1       0.587 -36.348  -0.573  1.00  0.00     0.189 HD
ENDROOT
BRANCH   3   8
HETATM    8  C8  UNL     1      -0.165 -40.248   1.510  1.00  0.00     0.162 A
HETATM    9  N6  UNL     1      -1.241 -40.396   2.328  1.00  0.00    -0.283 N
HETATM   10  N7  UNL     1      -1.361 -41.359   3.216  1.00  0.00    -0.297 N
ATOM     11  H6  UNL     1      -2.000 -39.720   2.248  1.00  0.00     0.188 HD
HETATM   12  C9  UNL     1      -0.413 -42.284   3.384  1.00  0.00     0.107 A
ATOM     13  H7  UNL     1      -2.202 -41.400   3.791  1.00  0.00     0.187 HD
HETATM   14  C11 UNL     1       0.730 -42.186   2.566  1.00  0.00     0.114 A
HETATM   15  C12 UNL     1       0.857 -41.163   1.623  1.00  0.00     0.123 A
BRANCH  12  16
HETATM   16  C10 UNL     1      -0.530 -43.378   4.380  1.00  0.00     0.348 C
BRANCH  16  17
HETATM   17  N8  UNL     1       0.529 -43.352   5.353  1.00  0.00    -0.054 N
ATOM     18  H83 UNL     1       1.102 -44.194   5.296  1.00  0.00     0.276 HD
ATOM     19  H82 UNL     1       1.235 -42.657   5.109  1.00  0.00     0.276 HD
ATOM     20  H81 UNL     1       0.183 -43.207   6.302  1.00  0.00     0.276 HD
ENDBRANCH  16  17
BRANCH  16  21
HETATM   21  N9  UNL     1      -1.847 -43.238   5.019  1.00  0.00    -0.108 NA
BRANCH  21  22
HETATM   22  N10 UNL     1      -1.993 -44.078   6.104  1.00  0.00    -0.346 N
ATOM     23 2H10 UNL     1      -2.871 -44.187   6.610  1.00  0.00     0.172 HD
ATOM     24 1H10 UNL     1      -1.127 -44.567   6.332  1.00  0.00     0.172 HD
ENDBRANCH  21  22
ENDBRANCH  16  21
ENDBRANCH  12  16
BRANCH  14  25
HETATM   25  O2  UNL     1       1.664 -43.130   2.759  1.00  0.00    -0.357 OA
ATOM     26  H2  UNL     1       1.928 -43.267   3.662  1.00  0.00     0.217 HD
ENDBRANCH  14  25
BRANCH  15  27
HETATM   27  C13 UNL     1       2.031 -41.044   0.768  1.00  0.00     0.216 C
HETATM   28  O3  UNL     1       2.313 -41.908  -0.110  1.00  0.00    -0.644 OA
HETATM   29  O4  UNL     1       2.913 -39.989   0.855  1.00  0.00    -0.644 OA
ENDBRANCH  15  27
ENDBRANCH   3   8
BRANCH   1  30
HETATM   30  C5  UNL     1      -1.089 -37.564  -2.535  1.00  0.00     0.289 C
HETATM   31  N4  UNL     1      -0.751 -36.329  -3.176  1.00  0.00    -0.265 N
ATOM     32  H4  UNL     1      -0.114 -35.697  -2.692  1.00  0.00     0.190 HD
HETATM   33  O1  UNL     1      -1.872 -38.329  -3.144  1.00  0.00    -0.264 OA
BRANCH  31  34
HETATM   34  N3  UNL     1      -1.218 -35.954  -4.365  1.00  0.00    -0.308 N
ATOM     35  H3  UNL     1      -2.192 -35.655  -4.303  1.00  0.00     0.186 HD
BRANCH  34  36
HETATM   36  C4  UNL     1      -0.798 -35.870  -5.511  1.00  0.00     0.124 C
BRANCH  36  37
HETATM   37  C3  UNL     1      -0.496 -36.883  -6.494  1.00  0.00     0.050 A
HETATM   38  C2  UNL     1       0.441 -36.707  -7.532  1.00  0.00     0.124 A
HETATM   39  N2  UNL     1       0.480 -37.830  -8.259  1.00  0.00    -0.307 N
HETATM   40  N1  UNL     1      -0.344 -38.724  -7.793  1.00  0.00    -0.275 N
ATOM     41  H2  UNL     1       1.078 -37.969  -9.073  1.00  0.00     0.186 HD
HETATM   42  C1  UNL     1      -0.604 -40.080  -8.299  1.00  0.00     0.180 C
HETATM   43  C14 UNL     1      -0.951 -38.158  -6.709  1.00  0.00     0.170 A
BRANCH  43  44
HETATM   44  O5  UNL     1      -1.884 -38.832  -5.978  1.00  0.00    -0.344 OA
ATOM     45  H5  UNL     1      -2.177 -38.518  -5.130  1.00  0.00     0.219 HD
ENDBRANCH  43  44
ENDBRANCH  36  37
ENDBRANCH  34  36
ENDBRANCH  31  34
ENDBRANCH   1  30
TORSDOF 12
ENDMDL