MODEL 1
REMARK VINA RESULT: -7.245823162      0.000      0.000
REMARK  7 active torsions:
REMARK  status: ('A' for Active; 'I' for Inactive)
REMARK    1  A    between atoms: N1_2  and  C2_3
REMARK    2  A    between atoms: C4_9  and  N4_10
REMARK    3  A    between atoms: N4_10  and  C5_12
REMARK    4  A    between atoms: C5_12  and  C6_13
REMARK    5  A    between atoms: C6_13  and  N5_14
REMARK    6  A    between atoms: C11_19  and  O1_20
REMARK    7  A    between atoms: C12_22  and  O2_23
ROOT
HETATM    1  C2  UNL     1     -22.361  -0.409  20.435  1.00  0.00     0.201 A
HETATM    2  C3  UNL     1     -23.166   0.531  21.085  1.00  0.00     0.148 A
HETATM    3  N2  UNL     1     -24.324  -0.040  21.402  1.00  0.00    -0.308 N
ATOM      4  H2  UNL     1     -25.105   0.406  21.883  1.00  0.00     0.186 HD
HETATM    5  N3  UNL     1     -24.277  -1.291  20.979  1.00  0.00    -0.284 N
ATOM      6  H3  UNL     1     -25.031  -1.968  21.088  1.00  0.00     0.188 HD
HETATM    7  C4  UNL     1     -23.097  -1.549  20.387  1.00  0.00     0.152 A
ENDROOT
BRANCH   7   8
HETATM    8  N4  UNL     1     -22.689  -2.652  19.857  1.00  0.00    -0.372 N
ATOM      9  H4  UNL     1     -22.102  -2.620  19.023  1.00  0.00     0.161 HD
BRANCH   8  10
HETATM   10  C5  UNL     1     -23.050  -3.934  20.428  1.00  0.00     0.149 C
BRANCH  10  11
HETATM   11  C6  UNL     1     -23.101  -5.008  19.362  1.00  0.00     0.257 C
BRANCH  11  12
HETATM   12  N5  UNL     1     -23.968  -6.089  19.709  1.00  0.00    -0.063 N
HETATM   13  C7  UNL     1     -25.363  -5.781  19.600  1.00  0.00     0.238 C
HETATM   14  C8  UNL     1     -26.011  -7.145  19.503  1.00  0.00     0.037 C
HETATM   15  C9  UNL     1     -24.920  -8.094  19.084  1.00  0.00     0.044 C
HETATM   16  C10 UNL     1     -23.778  -7.151  18.740  1.00  0.00     0.245 C
HETATM   17  C11 UNL     1     -24.494  -8.880  20.295  1.00  0.00     0.154 C
HETATM   18  C12 UNL     1     -23.508  -8.080  21.082  1.00  0.00     0.173 C
HETATM   19  C13 UNL     1     -23.728  -6.607  21.039  1.00  0.00     0.271 C
BRANCH  17  20
HETATM   20  O1  UNL     1     -23.934 -10.077  19.833  1.00  0.00    -0.393 OA
ATOM     21  H1  UNL     1     -24.565 -10.474  19.245  1.00  0.00     0.210 HD
ENDBRANCH  17  20
BRANCH  18  22
HETATM   22  O2  UNL     1     -23.641  -8.480  22.432  1.00  0.00    -0.391 OA
ATOM     23  H2  UNL     1     -23.315  -9.371  22.488  1.00  0.00     0.210 HD
ENDBRANCH  18  22
ENDBRANCH  11  12
ENDBRANCH  10  11
ENDBRANCH   8  10
ENDBRANCH   7   8
BRANCH   1  24
HETATM   24  N1  UNL     1     -21.063  -0.087  19.978  1.00  0.00    -0.005 N
HETATM   25  C1  UNL     1     -20.588   1.014  20.796  1.00  0.00     0.283 C
HETATM   26  C14 UNL     1     -20.168  -1.195  19.923  1.00  0.00     0.249 C
HETATM   27  C15 UNL     1     -18.773  -0.736  19.585  1.00  0.00     0.048 C
HETATM   28  C16 UNL     1     -18.713   0.161  18.389  1.00  0.00     0.088 C
HETATM   29 CL1  UNL     1     -17.264   1.186  18.535  1.00  0.00    -0.125 Cl
HETATM   30  C17 UNL     1     -19.893   1.033  18.192  1.00  0.00     0.088 C
HETATM   31  C18 UNL     1     -21.199   0.418  18.615  1.00  0.00     0.379 C
HETATM   32  F1  UNL     1     -22.183   1.375  18.497  1.00  0.00    -0.218 F
ENDBRANCH   1  24
TORSDOF 7
ENDMDL