MODEL 2
REMARK VINA RESULT: -6.219530936      4.152      7.268
REMARK  7 active torsions:
REMARK  status: ('A' for Active; 'I' for Inactive)
REMARK    1  A    between atoms: C3_5  and  C4_6
REMARK    2  A    between atoms: C4_6  and  C5_7
REMARK    3  A    between atoms: C6_9  and  C7_10
REMARK    4  A    between atoms: C7_10  and  O1_11
REMARK    5  A    between atoms: C8_13  and  C9_14
REMARK    6  A    between atoms: C9_14  and  C10_15
REMARK    7  A    between atoms: C11_18  and  C12_19
ROOT
HETATM    1  C10 UNL     1     -19.783  -0.435  20.465  1.00  0.00     0.061 A
HETATM    2  N2  UNL     1     -20.290  -1.683  20.345  1.00  0.00    -0.355 N
ATOM      3  H2  UNL     1     -19.738  -2.525  20.180  1.00  0.00     0.166 HD
HETATM    4  C11 UNL     1     -21.625  -1.650  20.475  1.00  0.00     0.056 A
HETATM    5  C13 UNL     1     -22.038  -0.349  20.689  1.00  0.00     0.086 A
HETATM    6  C14 UNL     1     -23.234   0.290  20.887  1.00  0.00     0.264 A
HETATM    7  O2  UNL     1     -24.271  -0.431  20.888  1.00  0.00    -0.267 OA
HETATM    8  N3  UNL     1     -23.304   1.630  21.072  1.00  0.00    -0.275 N
ATOM      9  H3  UNL     1     -24.206   2.082  21.217  1.00  0.00     0.173 HD
HETATM   10  C15 UNL     1     -22.178   2.360  21.063  1.00  0.00     0.327 A
HETATM   11  O3  UNL     1     -22.255   3.616  21.237  1.00  0.00    -0.247 OA
HETATM   12  N4  UNL     1     -21.007   1.736  20.871  1.00  0.00    -0.305 N
ATOM     13  H4  UNL     1     -20.155   2.298  20.866  1.00  0.00     0.171 HD
HETATM   14  C16 UNL     1     -20.895   0.397  20.682  1.00  0.00     0.081 A
ENDROOT
BRANCH   1  15
HETATM   15  C9  UNL     1     -18.436   0.056  20.334  1.00  0.00     0.046 C
BRANCH  15  16
HETATM   16  C8  UNL     1     -17.499  -0.039  19.443  1.00  0.00     0.006 A
HETATM   17  C2  UNL     1     -17.295   0.994  18.478  1.00  0.00     0.034 A
HETATM   18  C1  UNL     1     -17.987   2.111  18.381  1.00  0.00     0.044 C
HETATM   19  N1  UNL     1     -16.280   0.655  17.676  1.00  0.00    -0.359 N
HETATM   20  C3  UNL     1     -15.796  -0.511  18.024  1.00  0.00     0.023 A
ATOM     21  H1  UNL     1     -15.933   1.223  16.904  1.00  0.00     0.166 HD
HETATM   22  C6  UNL     1     -16.549  -0.981  19.149  1.00  0.00     0.021 A
BRANCH  20  23
HETATM   23  C4  UNL     1     -14.680  -1.239  17.329  1.00  0.00     0.069 C
BRANCH  23  24
HETATM   24  C5  UNL     1     -14.125  -0.502  16.155  1.00  0.00     0.091 C
HETATM   25 BR1  UNL     1     -12.952  -1.648  15.100  1.00  0.00    -0.096 Br
ENDBRANCH  23  24
ENDBRANCH  20  23
BRANCH  22  26
HETATM   26  C7  UNL     1     -16.165  -2.255  19.741  1.00  0.00     0.145 C
BRANCH  26  27
HETATM   27  O1  UNL     1     -17.000  -3.272  19.823  1.00  0.00    -0.372 OA
ATOM     28  H1  UNL     1     -16.799  -4.123  19.450  1.00  0.00     0.216 HD
ENDBRANCH  26  27
ENDBRANCH  22  26
ENDBRANCH  15  16
ENDBRANCH   1  15
BRANCH   4  29
HETATM   29  C12 UNL     1     -22.583  -2.797  20.413  1.00  0.00     0.280 C
HETATM   30  F1  UNL     1     -22.576  -3.553  21.561  1.00  0.00    -0.249 F
ENDBRANCH   4  29
TORSDOF 7
ENDMDL