MODEL 3
REMARK VINA RESULT: -5.538615152      1.262      1.537
REMARK  7 active torsions:
REMARK  status: ('A' for Active; 'I' for Inactive)
REMARK    1  A    between atoms: C4_6  and  C5_7
REMARK    2  A    between atoms: C5_7  and  O1_8
REMARK    3  A    between atoms: C6_10  and  C7_11
REMARK    4  A    between atoms: C7_11  and  C8_12
REMARK    5  A    between atoms: N2_14  and  C10_15
REMARK    6  A    between atoms: C10_15  and  C11_16
REMARK    7  A    between atoms: C12_18  and  N3_19
ROOT
HETATM    1  C8  UNL     1     -20.769   0.913  20.436  1.00  0.00     0.016 A
HETATM    2  C9  UNL     1     -21.180  -0.397  20.252  1.00  0.00     0.123 A
HETATM    3  N2  UNL     1     -22.487  -0.714  20.489  1.00  0.00    -0.192 N
HETATM    4  C12 UNL     1     -23.362   0.216  20.892  1.00  0.00     0.678 A
HETATM    5  N4  UNL     1     -22.987   1.518  21.083  1.00  0.00    -0.184 N
ATOM      6  H4  UNL     1     -23.658   2.222  21.391  1.00  0.00     0.185 HD
HETATM    7  C13 UNL     1     -21.706   1.834  20.852  1.00  0.00     0.107 A
HETATM    8 BR2  UNL     1     -21.134   3.631  21.104  1.00  0.00    -0.030 Br
ENDROOT
BRANCH   1   9
HETATM    9  C7  UNL     1     -19.423   1.349  20.184  1.00  0.00     0.030 C
BRANCH   9  10
HETATM   10  C6  UNL     1     -18.343   0.682  19.959  1.00  0.00     0.000 A
HETATM   11  C2  UNL     1     -17.485   0.215  20.964  1.00  0.00     0.033 A
HETATM   12  C1  UNL     1     -17.616   0.365  22.284  1.00  0.00     0.044 C
HETATM   13  N1  UNL     1     -16.463  -0.436  20.377  1.00  0.00    -0.365 N
HETATM   14  C3  UNL     1     -16.626  -0.408  19.058  1.00  0.00     0.098 A
ATOM     15  H1  UNL     1     -15.686  -0.881  20.866  1.00  0.00     0.165 HD
HETATM   16  C4  UNL     1     -17.802   0.291  18.761  1.00  0.00    -0.007 A
BRANCH  16  17
HETATM   17  C5  UNL     1     -18.286   0.516  17.368  1.00  0.00     0.205 C
BRANCH  17  18
HETATM   18  O1  UNL     1     -19.340  -0.397  17.119  1.00  0.00    -0.396 OA
ATOM     19  H1  UNL     1     -20.157   0.036  17.332  1.00  0.00     0.209 HD
ENDBRANCH  17  18
ENDBRANCH  16  17
ENDBRANCH   9  10
ENDBRANCH   1   9
BRANCH   3  20
HETATM   20  C10 UNL     1     -22.901  -2.064  20.301  1.00  0.00     0.157 C
BRANCH  20  21
HETATM   21  C11 UNL     1     -22.315  -3.016  21.316  1.00  0.00     0.106 C
HETATM   22 BR1  UNL     1     -22.818  -4.814  20.741  1.00  0.00    -0.095 Br
ENDBRANCH  20  21
ENDBRANCH   3  20
BRANCH   4  23
HETATM   23  N3  UNL     1     -24.577  -0.118  21.097  1.00  0.00    -0.234 N
ATOM     24  H32 UNL     1     -25.210  -0.205  20.302  1.00  0.00     0.174 HD
ATOM     25  H31 UNL     1     -24.889  -0.298  22.051  1.00  0.00     0.174 HD
ENDBRANCH   4  23
TORSDOF 7
ENDMDL