MODEL 1
REMARK VINA RESULT: -6.226923700      0.000      0.000
REMARK  7 active torsions:
REMARK  status: ('A' for Active; 'I' for Inactive)
REMARK    1  A    between atoms: C3_5  and  C4_6
REMARK    2  A    between atoms: C4_6  and  O1_7
REMARK    3  A    between atoms: C5_9  and  C6_10
REMARK    4  A    between atoms: C6_10  and  C7_11
REMARK    5  A    between atoms: C7_11  and  O2_12
REMARK    6  A    between atoms: C8_14  and  C9_15
REMARK    7  A    between atoms: C9_15  and  C10_16
ROOT
HETATM    1  C1  UNL     1     -19.415   1.240  17.471  1.00  0.00     0.044 C
HETATM    2  C2  UNL     1     -18.342   0.593  17.825  1.00  0.00     0.034 A
HETATM    3  N1  UNL     1     -17.300   0.357  16.956  1.00  0.00    -0.357 N
ATOM      4  H1  UNL     1     -17.272   0.658  15.983  1.00  0.00     0.166 HD
HETATM    5  C3  UNL     1     -16.333  -0.323  17.575  1.00  0.00     0.040 A
HETATM    6  C5  UNL     1     -16.758  -0.527  18.861  1.00  0.00    -0.019 A
HETATM    7  C8  UNL     1     -18.033   0.042  19.057  1.00  0.00     0.002 A
ENDROOT
BRANCH   7   8
HETATM    8  C9  UNL     1     -18.694   0.004  20.188  1.00  0.00     0.063 C
BRANCH   8   9
HETATM    9  C10 UNL     1     -20.012  -0.507  20.468  1.00  0.00     0.109 A
HETATM   10  N2  UNL     1     -20.371  -1.791  20.317  1.00  0.00    -0.334 N
HETATM   11  C11 UNL     1     -21.637  -1.955  20.682  1.00  0.00     0.116 A
ATOM     12  H2  UNL     1     -19.762  -2.532  19.972  1.00  0.00     0.168 HD
HETATM   13 BR1  UNL     1     -22.679  -3.563  20.680  1.00  0.00    -0.028 Br
HETATM   14  C12 UNL     1     -22.077  -0.723  21.074  1.00  0.00     0.117 A
HETATM   15 BR2  UNL     1     -23.823  -0.278  21.715  1.00  0.00    -0.028 Br
HETATM   16  N3  UNL     1     -21.077   0.160  20.940  1.00  0.00    -0.329 N
HETATM   17  C13 UNL     1     -21.160   1.587  21.259  1.00  0.00     0.158 C
ENDBRANCH   8   9
ENDBRANCH   7   8
BRANCH   6  18
HETATM   18  C6  UNL     1     -16.006  -1.242  19.892  1.00  0.00     0.067 C
BRANCH  18  19
HETATM   19  C7  UNL     1     -15.868  -2.731  19.640  1.00  0.00     0.168 C
BRANCH  19  20
HETATM   20  O2  UNL     1     -17.105  -3.358  19.799  1.00  0.00    -0.401 OA
ATOM     21  H2  UNL     1     -17.041  -4.039  20.458  1.00  0.00     0.209 HD
ENDBRANCH  19  20
ENDBRANCH  18  19
ENDBRANCH   6  18
BRANCH   5  22
HETATM   22  C4  UNL     1     -15.066  -0.734  16.917  1.00  0.00     0.221 C
BRANCH  22  23
HETATM   23  O1  UNL     1     -15.110  -2.072  16.517  1.00  0.00    -0.395 OA
ATOM     24  H1  UNL     1     -14.728  -2.642  17.175  1.00  0.00     0.209 HD
ENDBRANCH  22  23
ENDBRANCH   5  22
TORSDOF 7
ENDMDL