MODEL 1
REMARK VINA RESULT: -6.717315292      0.000      0.000
REMARK  8 active torsions:
REMARK  status: ('A' for Active; 'I' for Inactive)
REMARK    1  A    between atoms: N1_2  and  C2_4
REMARK    2  A    between atoms: N1_2  and  C3_6
REMARK    3  A    between atoms: C3_6  and  C4_7
REMARK    4  A    between atoms: C4_7  and  N2_8
REMARK    5  A    between atoms: N2_8  and  C5_10
REMARK    6  A    between atoms: C5_10  and  N3_12
REMARK    7  A    between atoms: N3_12  and  C6_14
REMARK    8  A    between atoms: C9_22  and  N6_23
ROOT
HETATM    1  N3  UNL     1     -22.664  -2.490  19.814  1.00  0.00    -0.316 N
ATOM      2  H3  UNL     1     -22.596  -2.372  18.802  1.00  0.00     0.170 HD
ENDROOT
BRANCH   1   3
HETATM    3  C5  UNL     1     -22.814  -3.782  20.360  1.00  0.00     0.173 C
HETATM    4  S1  UNL     1     -22.280  -4.033  21.878  1.00  0.00    -0.041 SA
BRANCH   3   5
HETATM    5  N2  UNL     1     -23.405  -4.842  19.633  1.00  0.00    -0.365 N
ATOM      6  H2  UNL     1     -23.930  -4.629  18.784  1.00  0.00     0.161 HD
BRANCH   5   7
HETATM    7  C4  UNL     1     -23.286  -6.222  20.058  1.00  0.00     0.158 C
BRANCH   7   8
HETATM    8  C3  UNL     1     -24.589  -6.731  20.621  1.00  0.00     0.332 C
BRANCH   8   9
HETATM    9  N1  UNL     1     -25.347  -7.503  19.694  1.00  0.00     0.020 N
HETATM   10  C1  UNL     1     -26.370  -8.310  20.289  1.00  0.00     0.357 C
HETATM   11  O1  UNL     1     -25.974  -6.648  18.823  1.00  0.00    -0.064 OA
BRANCH   9  12
HETATM   12  C2  UNL     1     -24.526  -8.372  18.859  1.00  0.00     0.395 C
HETATM   13 BR1  UNL     1     -24.405 -10.152  19.560  1.00  0.00    -0.058 Br
ENDBRANCH   9  12
ENDBRANCH   8   9
ENDBRANCH   7   8
ENDBRANCH   5   7
ENDBRANCH   3   5
ENDBRANCH   1   3
BRANCH   1  14
HETATM   14  C6  UNL     1     -22.614  -1.464  20.579  1.00  0.00     0.152 A
HETATM   15  N4  UNL     1     -23.747  -1.007  21.140  1.00  0.00    -0.346 N
HETATM   16  C7  UNL     1     -23.762   0.073  21.957  1.00  0.00     0.127 A
ATOM     17  H4  UNL     1     -24.624  -1.491  20.944  1.00  0.00     0.167 HD
HETATM   18  C8  UNL     1     -22.592   0.734  22.232  1.00  0.00     0.096 A
HETATM   19 BR2  UNL     1     -22.581   2.272  23.389  1.00  0.00    -0.030 Br
HETATM   20  N5  UNL     1     -21.459   0.279  21.671  1.00  0.00    -0.333 N
HETATM   21  C9  UNL     1     -21.439  -0.792  20.859  1.00  0.00     0.145 A
ATOM     22  H5  UNL     1     -20.583   0.764  21.869  1.00  0.00     0.168 HD
BRANCH  21  23
HETATM   23  N6  UNL     1     -20.352  -1.223  20.326  1.00  0.00    -0.382 N
ATOM     24  H62 UNL     1     -20.239  -1.303  19.316  1.00  0.00     0.157 HD
ATOM     25  H61 UNL     1     -19.585  -1.490  20.944  1.00  0.00     0.157 HD
ENDBRANCH  21  23
ENDBRANCH   1  14
TORSDOF 8
ENDMDL