MODEL 5
REMARK VINA RESULT: -5.938034929      1.470      2.012
REMARK  5 active torsions:
REMARK  status: ('A' for Active; 'I' for Inactive)
REMARK    1  A    between atoms: C5_7  and  O1_8
REMARK    2  A    between atoms: C6_10  and  C7_11
REMARK    3  A    between atoms: C7_11  and  N2_12
REMARK    4  A    between atoms: C12_17  and  C13_18
REMARK    5  A    between atoms: C13_18  and  N3_19
ROOT
HETATM    1  C1  UNL     1     -24.824   6.084  16.569  1.00  0.00     0.014 C
HETATM    2  C2  UNL     1     -24.893   4.902  16.801  1.00  0.00    -0.089 C
HETATM    3  C3  UNL     1     -24.977   3.445  17.060  1.00  0.00     0.191 C
HETATM    4  N1  UNL     1     -24.046   2.740  16.259  1.00  0.00    -0.402 N
ATOM      5  H1  UNL     1     -23.807   3.052  15.318  1.00  0.00     0.154 HD
HETATM    6  C4  UNL     1     -23.463   1.585  16.827  1.00  0.00     0.153 C
HETATM    7  C5  UNL     1     -22.883   1.748  18.187  1.00  0.00     0.085 C
HETATM    8  C6  UNL     1     -21.388   2.135  18.133  1.00  0.00     0.048 C
HETATM    9  C18 UNL     1     -21.497   3.608  18.187  1.00  0.00     0.010 C
HETATM   10  C19 UNL     1     -22.625   3.956  19.131  1.00  0.00     0.011 C
HETATM   11  C20 UNL     1     -23.551   2.786  19.022  1.00  0.00     0.059 C
HETATM   12  C21 UNL     1     -24.921   3.170  18.516  1.00  0.00     0.211 C
HETATM   13  F1  UNL     1     -25.280   4.338  19.193  1.00  0.00    -0.246 F
ENDROOT
BRANCH   7  14
HETATM   14  O1  UNL     1     -23.018   0.504  18.849  1.00  0.00    -0.387 OA
ATOM     15  H1  UNL     1     -23.699   0.608  19.503  1.00  0.00     0.210 HD
ENDBRANCH   7  14
BRANCH   8  16
HETATM   16  C7  UNL     1     -20.751   1.441  19.263  1.00  0.00     0.245 C
BRANCH  16  17
HETATM   17  N2  UNL     1     -19.550   0.715  19.039  1.00  0.00    -0.062 N
HETATM   18  C8  UNL     1     -19.702  -0.709  19.196  1.00  0.00     0.273 C
HETATM   19  C9  UNL     1     -19.028   1.117  17.752  1.00  0.00     0.238 C
HETATM   20  C10 UNL     1     -18.010   0.090  17.339  1.00  0.00     0.028 C
HETATM   21  C11 UNL     1     -16.865   0.163  18.292  1.00  0.00     0.010 C
HETATM   22  C12 UNL     1     -17.135   0.791  19.604  1.00  0.00     0.039 C
HETATM   23  C15 UNL     1     -18.505   1.102  20.004  1.00  0.00     0.127 C
HETATM   24  C16 UNL     1     -18.787   0.426  21.353  1.00  0.00     0.046 C
HETATM   25  C17 UNL     1     -18.673   2.598  20.302  1.00  0.00     0.046 C
BRANCH  22  26
HETATM   26  C13 UNL     1     -16.377  -0.042  20.660  1.00  0.00     0.129 C
BRANCH  26  27
HETATM   27  N3  UNL     1     -15.021   0.477  20.647  1.00  0.00    -0.366 N
HETATM   28  C14 UNL     1     -14.597   1.257  21.582  1.00  0.00     0.196 C
HETATM   29  N4  UNL     1     -13.299   1.795  21.630  1.00  0.00    -0.067 NA
HETATM   30  N5  UNL     1     -15.490   1.602  22.635  1.00  0.00    -0.067 NA
ATOM     31  H3  UNL     1     -14.393   0.220  19.886  1.00  0.00     0.161 HD
ENDBRANCH  26  27
ENDBRANCH  22  26
ENDBRANCH  16  17
ENDBRANCH   8  16
TORSDOF 5
ENDMDL