MODEL 1
REMARK VINA RESULT: -6.824149913      0.000      0.000
REMARK  6 active torsions:
REMARK  status: ('A' for Active; 'I' for Inactive)
REMARK    1  A    between atoms: C3_3  and  C4_4
REMARK    2  A    between atoms: C4_4  and  O1_5
REMARK    3  A    between atoms: C6_10  and  C7_11
REMARK    4  A    between atoms: C8_12  and  C9_13
REMARK    5  A    between atoms: C9_13  and  C10_14
REMARK    6  A    between atoms: C11_15  and  C12_16
ROOT
HETATM    1  C7  UNL     1     -18.001  -0.143  20.110  1.00  0.00     0.057 A
HETATM    2  C8  UNL     1     -17.594   0.497  18.983  1.00  0.00    -0.013 A
HETATM    3  C13 UNL     1     -16.328   0.162  18.333  1.00  0.00     0.021 A
HETATM    4  C14 UNL     1     -15.696   0.656  17.215  1.00  0.00     0.105 A
HETATM    5  N2  UNL     1     -14.535  -0.027  17.083  1.00  0.00    -0.340 N
ATOM      6  H2  UNL     1     -13.855   0.124  16.338  1.00  0.00     0.167 HD
HETATM    7  C15 UNL     1     -14.403  -0.922  18.059  1.00  0.00     0.217 A
HETATM    8  F1  UNL     1     -13.386  -1.809  18.294  1.00  0.00    -0.184 F
HETATM    9  C16 UNL     1     -15.518  -0.822  18.859  1.00  0.00     0.116 A
HETATM   10  N3  UNL     1     -15.907  -1.506  20.021  1.00  0.00    -0.295 N
ATOM     11  H3  UNL     1     -15.323  -2.238  20.424  1.00  0.00     0.187 HD
HETATM   12  N4  UNL     1     -17.152  -1.142  20.619  1.00  0.00    -0.300 N
ATOM     13  H4  UNL     1     -17.441  -1.635  21.463  1.00  0.00     0.187 HD
ENDROOT
BRANCH   1  14
HETATM   14  C6  UNL     1     -19.254   0.231  20.693  1.00  0.00     0.061 C
HETATM   15  C5  UNL     1     -20.385  -0.415  20.893  1.00  0.00     0.045 A
HETATM   16  N1  UNL     1     -20.749  -1.669  20.615  1.00  0.00    -0.353 N
HETATM   17  C17 UNL     1     -21.506   0.196  21.500  1.00  0.00    -0.007 A
HETATM   18  C3  UNL     1     -22.040  -1.937  20.993  1.00  0.00     0.065 A
ATOM     19  H1  UNL     1     -20.135  -2.352  20.169  1.00  0.00     0.166 HD
HETATM   20  C2  UNL     1     -22.489  -0.781  21.536  1.00  0.00    -0.005 A
HETATM   21  C1  UNL     1     -23.692  -0.551  22.047  1.00  0.00     0.026 C
HETATM   22  C18 UNL     1     -21.602   1.430  21.941  1.00  0.00     0.026 C
BRANCH  18  23
HETATM   23  C4  UNL     1     -22.633  -3.107  20.825  1.00  0.00     0.161 C
BRANCH  23  24
HETATM   24  O1  UNL     1     -22.964  -3.652  19.613  1.00  0.00    -0.370 OA
ATOM     25  H1  UNL     1     -23.180  -4.566  19.469  1.00  0.00     0.216 HD
ENDBRANCH  23  24
ENDBRANCH  18  23
ENDBRANCH   1  14
BRANCH   2  26
HETATM   26  C9  UNL     1     -18.467   1.553  18.424  1.00  0.00     0.068 C
BRANCH  26  27
HETATM   27  C10 UNL     1     -19.530   1.004  17.571  1.00  0.00    -0.025 C
HETATM   28  C11 UNL     1     -20.779   1.325  17.519  1.00  0.00    -0.020 C
BRANCH  28  29
HETATM   29  C12 UNL     1     -21.487   2.331  18.314  1.00  0.00     0.112 C
HETATM   30 BR1  UNL     1     -23.351   1.795  18.517  1.00  0.00    -0.092 Br
ENDBRANCH  28  29
ENDBRANCH  26  27
ENDBRANCH   2  26
TORSDOF 6
ENDMDL