MODEL 1
REMARK VINA RESULT: -6.654359370      0.000      0.000
REMARK  9 active torsions:
REMARK  status: ('A' for Active; 'I' for Inactive)
REMARK    1  A    between atoms: C3_3  and  C4_4
REMARK    2  A    between atoms: C4_4  and  C5_5
REMARK    3  A    between atoms: C5_5  and  C6_6
REMARK    4  A    between atoms: C6_6  and  O1_7
REMARK    5  A    between atoms: C9_11  and  C10_12
REMARK    6  A    between atoms: C15_22  and  C16_23
REMARK    7  A    between atoms: C16_23  and  C17_24
REMARK    8  A    between atoms: C18_28  and  C19_29
REMARK    9  A    between atoms: C19_29  and  C20_30
ROOT
HETATM    1  C1  UNL     1     -19.234  -0.246  18.860  1.00  0.00     0.025 C
HETATM    2  C2  UNL     1     -19.197  -0.115  20.161  1.00  0.00    -0.028 A
HETATM    3  C3  UNL     1     -17.941   0.194  20.721  1.00  0.00    -0.041 A
HETATM    4  C7  UNL     1     -17.867   0.455  22.072  1.00  0.00    -0.044 A
HETATM    5  C8  UNL     1     -16.489   0.646  22.646  1.00  0.00     0.049 C
HETATM    6  C9  UNL     1     -18.950   0.452  22.931  1.00  0.00    -0.018 A
HETATM    7  C15 UNL     1     -20.220   0.146  22.341  1.00  0.00    -0.009 A
HETATM    8  C18 UNL     1     -20.307  -0.148  20.970  1.00  0.00    -0.013 A
ENDROOT
BRANCH   6   9
HETATM    9  C10 UNL     1     -18.939   0.745  24.128  1.00  0.00     0.032 C
HETATM   10  C11 UNL     1     -18.134   1.137  25.233  1.00  0.00     0.058 A
HETATM   11  C12 UNL     1     -18.008   2.499  25.656  1.00  0.00     0.037 A
HETATM   12  C14 UNL     1     -17.282   0.504  26.089  1.00  0.00     0.272 A
HETATM   13  C13 UNL     1     -18.759   3.605  25.053  1.00  0.00     0.070 C
HETATM   14  N1  UNL     1     -17.136   2.526  26.668  1.00  0.00    -0.301 N
HETATM   15  N2  UNL     1     -16.676   1.312  26.952  1.00  0.00    -0.266 N
ATOM     16  H1  UNL     1     -16.859   3.373  27.162  1.00  0.00     0.186 HD
ATOM     17  H2  UNL     1     -16.004   1.057  27.675  1.00  0.00     0.190 HD
HETATM   18  O2  UNL     1     -17.053  -0.757  26.102  1.00  0.00    -0.266 OA
ENDBRANCH   6   9
BRANCH   7  19
HETATM   19  C16 UNL     1     -21.266   0.531  23.009  1.00  0.00     0.101 C
BRANCH  19  20
HETATM   20  C17 UNL     1     -22.324   1.458  23.225  1.00  0.00     0.408 C
HETATM   21  F1  UNL     1     -22.459   2.300  22.019  1.00  0.00    -0.167 F
HETATM   22  F2  UNL     1     -23.630   1.003  23.300  1.00  0.00    -0.167 F
HETATM   23  F3  UNL     1     -22.060   2.464  24.161  1.00  0.00    -0.167 F
ENDBRANCH  19  20
ENDBRANCH   7  19
BRANCH   3  24
HETATM   24  C4  UNL     1     -16.728   0.268  19.851  1.00  0.00     0.042 C
BRANCH  24  25
HETATM   25  C5  UNL     1     -16.012  -1.030  19.819  1.00  0.00     0.030 C
BRANCH  25  26
HETATM   26  C6  UNL     1     -14.941  -1.177  18.798  1.00  0.00     0.164 C
BRANCH  26  27
HETATM   27  O1  UNL     1     -14.012  -2.113  19.282  1.00  0.00    -0.401 OA
ATOM     28  H1  UNL     1     -13.224  -2.038  18.757  1.00  0.00     0.209 HD
ENDBRANCH  26  27
ENDBRANCH  25  26
ENDBRANCH  24  25
ENDBRANCH   3  24
BRANCH   8  29
HETATM   29  C19 UNL     1     -21.417  -0.681  20.571  1.00  0.00     0.045 C
BRANCH  29  30
HETATM   30  C20 UNL     1     -22.025  -1.971  20.464  1.00  0.00     0.065 A
HETATM   31  C21 UNL     1     -21.900  -3.176  21.115  1.00  0.00     0.138 A
HETATM   32  N3  UNL     1     -22.867  -3.658  20.352  1.00  0.00    -0.309 N
HETATM   33  N4  UNL     1     -22.995  -2.513  19.723  1.00  0.00    -0.300 N
ATOM     34  H3  UNL     1     -23.331  -4.563  20.281  1.00  0.00     0.186 HD
ATOM     35  H4  UNL     1     -23.593  -2.174  18.971  1.00  0.00     0.187 HD
ENDBRANCH  29  30
ENDBRANCH   8  29
TORSDOF 9
ENDMDL