MODEL 1
REMARK VINA RESULT: -6.980103816      0.000      0.000
REMARK  6 active torsions:
REMARK  status: ('A' for Active; 'I' for Inactive)
REMARK    1  A    between atoms: C2_3  and  N2_4
REMARK    2  A    between atoms: C5_13  and  C6_14
REMARK    3  A    between atoms: C6_14  and  C7_15
REMARK    4  A    between atoms: C7_15  and  C8_16
REMARK    5  A    between atoms: C8_16  and  C9_17
REMARK    6  A    between atoms: C9_17  and  C10_18
ROOT
HETATM    1  C1  UNL     1      -3.004 -18.669 -10.657  1.00  0.00     0.147 C
HETATM    2  N1  UNL     1      -2.770 -17.736 -11.491  1.00  0.00    -0.167 N
HETATM    3  C2  UNL     1      -2.467 -18.143 -12.744  1.00  0.00     0.682 A
HETATM    4  N3  UNL     1      -2.215 -17.172 -13.664  1.00  0.00    -0.184 N
ATOM      5  H3  UNL     1      -1.984 -17.442 -14.620  1.00  0.00     0.185 HD
HETATM    6  C3  UNL     1      -2.262 -15.891 -13.353  1.00  0.00     0.115 A
HETATM    7 BR1  UNL     1      -1.903 -14.539 -14.669  1.00  0.00    -0.029 Br
HETATM    8  C4  UNL     1      -2.571 -15.435 -12.069  1.00  0.00     0.073 A
HETATM    9 BR2  UNL     1      -2.596 -13.557 -11.759  1.00  0.00    -0.046 Br
HETATM   10  C5  UNL     1      -2.829 -16.407 -11.125  1.00  0.00     0.071 A
ENDROOT
BRANCH  10  11
HETATM   11  C6  UNL     1      -3.118 -16.068  -9.893  1.00  0.00     0.005 C
BRANCH  11  12
HETATM   12  C7  UNL     1      -4.325 -15.676  -9.210  1.00  0.00     0.030 C
BRANCH  12  13
HETATM   13  C8  UNL     1      -4.151 -15.253  -7.763  1.00  0.00     0.010 C
BRANCH  13  14
HETATM   14  C9  UNL     1      -5.455 -15.092  -7.059  1.00  0.00     0.059 C
BRANCH  14  15
HETATM   15  C10 UNL     1      -5.327 -15.034  -5.599  1.00  0.00     0.029 A
HETATM   16  C11 UNL     1      -4.299 -14.552  -4.826  1.00  0.00     0.117 A
HETATM   17  N4  UNL     1      -4.580 -14.686  -3.524  1.00  0.00    -0.317 N
HETATM   18  C12 UNL     1      -5.789 -15.254  -3.469  1.00  0.00     0.324 A
ATOM     19  H4  UNL     1      -3.993 -14.411  -2.736  1.00  0.00     0.170 HD
HETATM   20  O1  UNL     1      -6.378 -15.532  -2.383  1.00  0.00    -0.247 OA
HETATM   21  N5  UNL     1      -6.255 -15.471  -4.735  1.00  0.00    -0.311 N
ATOM     22  H5  UNL     1      -7.152 -15.891  -4.980  1.00  0.00     0.170 HD
ENDBRANCH  14  15
ENDBRANCH  13  14
ENDBRANCH  12  13
ENDBRANCH  11  12
ENDBRANCH  10  11
BRANCH   3  23
HETATM   23  N2  UNL     1      -2.401 -19.364 -13.123  1.00  0.00    -0.234 N
ATOM     24  H22 UNL     1      -2.359 -20.088 -12.406  1.00  0.00     0.174 HD
ATOM     25  H21 UNL     1      -2.387 -19.675 -14.094  1.00  0.00     0.174 HD
ENDBRANCH   3  23
TORSDOF 6
ENDMDL