MODEL 1
REMARK VINA RESULT: -6.208356654      0.000      0.000
REMARK  3 active torsions:
REMARK  status: ('A' for Active; 'I' for Inactive)
REMARK    1  A    between atoms: C2_2  and  N1_3
REMARK    2  A    between atoms: C2_2  and  C4_16
REMARK       I    between atoms: N1_3  and  C3_5
REMARK       I    between atoms: C3_5  and  N3_9
REMARK    3  A    between atoms: N3_9  and  N4_11
ROOT
HETATM    1  C1  UNL     1      -4.143 -14.956 -10.078  1.00  0.00     0.034 C
HETATM    2  C2  UNL     1      -3.235 -15.358 -11.264  1.00  0.00     0.108 C
ENDROOT
BRANCH   2   3
HETATM    3  N1  UNL     1      -3.412 -14.425 -12.265  1.00  0.00    -0.220 N
HETATM    4  C3  UNL     1      -2.858 -13.099 -12.039  1.00  0.00     0.687 C
HETATM    5  N2  UNL     1      -1.619 -12.965 -11.709  1.00  0.00    -0.234 N
HETATM    6  N3  UNL     1      -3.643 -11.937 -12.173  1.00  0.00    -0.119 N
ATOM      7  H22 UNL     1      -1.050 -13.806 -11.612  1.00  0.00     0.174 HD
ATOM      8  H21 UNL     1      -1.231 -12.035 -11.550  1.00  0.00     0.174 HD
ATOM      9  H3  UNL     1      -4.607 -11.937 -11.840  1.00  0.00     0.207 HD
ATOM     10  H1  UNL     1      -3.909 -14.655 -13.125  1.00  0.00     0.178 HD
BRANCH   6  11
HETATM   11  N4  UNL     1      -3.113 -10.791 -12.757  1.00  0.00    -0.235 N
HETATM   12  N5  UNL     1      -3.741  -9.672 -12.734  1.00  0.00    -0.330 N
ATOM     13  H52 UNL     1      -4.649  -9.640 -12.273  1.00  0.00     0.178 HD
ATOM     14  H51 UNL     1      -3.352  -8.832 -13.163  1.00  0.00     0.178 HD
ATOM     15  H4  UNL     1      -2.203 -10.841 -13.214  1.00  0.00     0.208 HD
ENDBRANCH   6  11
ENDBRANCH   2   3
BRANCH   2  16
HETATM   16  C4  UNL     1      -3.542 -16.841 -11.488  1.00  0.00     0.007 A
HETATM   17  C5  UNL     1      -3.660 -17.431 -10.171  1.00  0.00     0.043 A
HETATM   18  C6  UNL     1      -2.461 -18.203 -10.462  1.00  0.00    -0.021 A
HETATM   19  C7  UNL     1      -2.358 -17.739 -11.642  1.00  0.00    -0.067 A
HETATM   20  C8  UNL     1      -2.015 -17.415 -13.063  1.00  0.00     0.035 C
HETATM   21  C9  UNL     1      -1.188 -18.420 -13.789  1.00  0.00     0.067 C
HETATM   22  C12 UNL     1      -3.409 -17.948 -13.543  1.00  0.00     0.010 C
HETATM   23 BR1  UNL     1       0.672 -17.978 -13.749  1.00  0.00    -0.090 Br
HETATM   24  C10 UNL     1      -1.779 -18.219 -15.200  1.00  0.00     0.032 C
HETATM   25  C11 UNL     1      -3.268 -17.954 -14.961  1.00  0.00     0.064 C
HETATM   26 BR2  UNL     1      -3.738 -16.335 -15.855  1.00  0.00    -0.091 Br
HETATM   27  C13 UNL     1      -4.320 -17.130 -12.727  1.00  0.00     0.023 C
ENDBRANCH   2  16
TORSDOF 3
ENDMDL