MODEL 5
REMARK VINA RESULT: -5.982762357      1.809      2.680
REMARK  7 active torsions:
REMARK  status: ('A' for Active; 'I' for Inactive)
REMARK    1  A    between atoms: C2_2  and  C3_3
REMARK    2  A    between atoms: C4_4  and  C5_5
REMARK    3  A    between atoms: C5_5  and  C6_8
REMARK    4  A    between atoms: C7_9  and  C8_10
REMARK    5  A    between atoms: C8_10  and  C10_18
REMARK    6  A    between atoms: N1_11  and  N2_13
REMARK    7  A    between atoms: C12_22  and  N6_23
ROOT
HETATM    1  C8  UNL     1      -2.398 -16.250 -10.921  1.00  0.00     0.130 C
HETATM    2  N1  UNL     1      -1.164 -15.906 -10.830  1.00  0.00    -0.288 N
ATOM      3  H1  UNL     1      -0.866 -15.388 -10.004  1.00  0.00     0.188 HD
ENDROOT
BRANCH   1   4
HETATM    4  C7  UNL     1      -2.804 -16.978 -12.084  1.00  0.00    -0.042 C
HETATM    5  C6  UNL     1      -3.162 -17.584 -13.062  1.00  0.00    -0.062 C
BRANCH   5   6
HETATM    6  C5  UNL     1      -3.628 -18.323 -14.289  1.00  0.00     0.156 C
HETATM    7 BR1  UNL     1      -2.449 -17.917 -15.719  1.00  0.00    -0.054 Br
HETATM    8 BR2  UNL     1      -3.344 -20.251 -13.916  1.00  0.00    -0.054 Br
BRANCH   6   9
HETATM    9  C4  UNL     1      -5.047 -18.051 -14.405  1.00  0.00     0.015 C
HETATM   10  C3  UNL     1      -5.759 -16.807 -14.296  1.00  0.00    -0.028 C
BRANCH  10  11
HETATM   11  C2  UNL     1      -5.548 -15.611 -15.141  1.00  0.00     0.022 C
HETATM   12  C1  UNL     1      -4.693 -14.509 -14.657  1.00  0.00     0.009 C
ENDBRANCH  10  11
ENDBRANCH   6   9
ENDBRANCH   5   6
ENDBRANCH   1   4
BRANCH   1  13
HETATM   13  C10 UNL     1      -3.297 -15.879  -9.844  1.00  0.00     0.102 A
HETATM   14  C11 UNL     1      -4.653 -15.695 -10.014  1.00  0.00     0.139 A
HETATM   15  N5  UNL     1      -5.215 -15.356  -8.821  1.00  0.00    -0.200 N
HETATM   16  C12 UNL     1      -4.216 -15.332  -7.930  1.00  0.00     0.676 A
ATOM     17  H5  UNL     1      -6.200 -15.160  -8.641  1.00  0.00     0.183 HD
HETATM   18  N7  UNL     1      -3.048 -15.650  -8.548  1.00  0.00    -0.188 N
ATOM     19  H7  UNL     1      -2.134 -15.704  -8.099  1.00  0.00     0.184 HD
BRANCH  16  20
HETATM   20  N6  UNL     1      -4.317 -15.054  -6.675  1.00  0.00    -0.234 N
ATOM     21  H62 UNL     1      -3.993 -15.667  -5.927  1.00  0.00     0.174 HD
ATOM     22  H61 UNL     1      -4.723 -14.209  -6.274  1.00  0.00     0.174 HD
ENDBRANCH  16  20
ENDBRANCH   1  13
BRANCH   2  23
HETATM   23  N2  UNL     1      -0.209 -16.207 -11.804  1.00  0.00    -0.275 N
HETATM   24  C9  UNL     1       1.023 -15.888 -11.633  1.00  0.00     0.215 C
HETATM   25  N3  UNL     1       1.510 -15.227 -10.487  1.00  0.00    -0.065 NA
HETATM   26  N4  UNL     1       1.935 -16.233 -12.681  1.00  0.00    -0.065 NA
ATOM     27  H2  UNL     1      -0.494 -16.685 -12.658  1.00  0.00     0.189 HD
ENDBRANCH   2  23
TORSDOF 7
ENDMDL