MODEL 1
REMARK VINA RESULT: -5.542907599      0.000      0.000
REMARK  7 active torsions:
REMARK  status: ('A' for Active; 'I' for Inactive)
REMARK    1  A    between atoms: N2_5  and  C3_6
REMARK    2  A    between atoms: C3_6  and  C4_7
REMARK    3  A    between atoms: C5_10  and  N4_11
REMARK    4  A    between atoms: C6_16  and  C7_17
REMARK    5  A    between atoms: C7_17  and  C8_18
REMARK    6  A    between atoms: N6_19  and  N7_21
REMARK    7  A    between atoms: C9_24  and  C10_25
ROOT
HETATM    1  C4  UNL     1      -3.414 -15.212 -11.015  1.00  0.00     0.090 A
HETATM    2  N3  UNL     1      -4.094 -14.764  -9.937  1.00  0.00    -0.189 N
ATOM      3  H3  UNL     1      -4.808 -14.037  -9.966  1.00  0.00     0.184 HD
HETATM    4  C5  UNL     1      -3.699 -15.407  -8.819  1.00  0.00     0.676 A
HETATM    5  N5  UNL     1      -2.753 -16.272  -9.218  1.00  0.00    -0.193 N
ATOM      6  H5  UNL     1      -2.255 -16.909  -8.598  1.00  0.00     0.184 HD
HETATM    7  C6  UNL     1      -2.546 -16.186 -10.566  1.00  0.00     0.060 A
ENDROOT
BRANCH   1   8
HETATM    8  C3  UNL     1      -3.556 -14.744 -12.384  1.00  0.00     0.148 C
BRANCH   8   9
HETATM    9  N2  UNL     1      -2.893 -13.719 -12.855  1.00  0.00    -0.267 N
HETATM   10  N1  UNL     1      -3.141 -12.454 -12.586  1.00  0.00    -0.294 N
HETATM   11  C2  UNL     1      -2.262 -11.647 -13.235  1.00  0.00     0.058 A
ATOM     12  H1  UNL     1      -3.889 -12.125 -11.976  1.00  0.00     0.187 HD
HETATM   13  C1  UNL     1      -2.182 -10.329 -13.220  1.00  0.00     0.046 C
HETATM   14  C11 UNL     1      -1.445 -12.511 -13.931  1.00  0.00     0.063 A
HETATM   15  C9  UNL     1      -1.840 -13.814 -13.694  1.00  0.00     0.063 A
HETATM   16 BR2  UNL     1       0.012 -12.043 -15.053  1.00  0.00    -0.046 Br
BRANCH  15  17
HETATM   17  C10 UNL     1      -1.219 -15.037 -14.256  1.00  0.00     0.145 C
HETATM   18 BR1  UNL     1      -1.984 -15.516 -15.967  1.00  0.00    -0.090 Br
ENDBRANCH  15  17
ENDBRANCH   8   9
ENDBRANCH   1   8
BRANCH   7  19
HETATM   19  C7  UNL     1      -1.566 -17.017 -11.307  1.00  0.00     0.106 C
BRANCH  19  20
HETATM   20  C8  UNL     1      -0.193 -16.612 -10.989  1.00  0.00     0.085 C
HETATM   21  N6  UNL     1       0.071 -15.482 -10.465  1.00  0.00    -0.322 N
ATOM     22  H6  UNL     1      -0.692 -14.836 -10.258  1.00  0.00     0.185 HD
BRANCH  21  23
HETATM   23  N7  UNL     1       1.398 -15.105 -10.164  1.00  0.00    -0.346 N
ATOM     24  H72 UNL     1       1.579 -14.635  -9.278  1.00  0.00     0.176 HD
ATOM     25  H71 UNL     1       2.162 -15.296 -10.813  1.00  0.00     0.176 HD
ENDBRANCH  21  23
ENDBRANCH  19  20
ENDBRANCH   7  19
BRANCH   4  26
HETATM   26  N4  UNL     1      -4.143 -15.224  -7.605  1.00  0.00    -0.234 N
ATOM     27  H42 UNL     1      -3.809 -14.548  -6.919  1.00  0.00     0.174 HD
ATOM     28  H41 UNL     1      -4.900 -15.728  -7.144  1.00  0.00     0.174 HD
ENDBRANCH   4  26
TORSDOF 7
ENDMDL