MODEL 3
REMARK VINA RESULT: -4.996237520      3.447      5.718
REMARK  6 active torsions:
REMARK  status: ('A' for Active; 'I' for Inactive)
REMARK    1  A    between atoms: N1_2  and  C3_4
REMARK    2  A    between atoms: C3_4  and  C4_5
REMARK    3  A    between atoms: C4_5  and  C5_6
REMARK    4  A    between atoms: C5_6  and  C6_7
REMARK    5  A    between atoms: C7_10  and  N3_11
REMARK    6  A    between atoms: C9_17  and  C10_18
ROOT
HETATM    1  C6  UNL     1      -2.115 -15.717 -11.290  1.00  0.00     0.072 A
HETATM    2  N2  UNL     1      -1.197 -15.382 -10.357  1.00  0.00    -0.190 N
ATOM      3  H2  UNL     1      -1.388 -15.060  -9.408  1.00  0.00     0.184 HD
HETATM    4  C7  UNL     1       0.006 -15.551 -10.908  1.00  0.00     0.676 A
HETATM    5  N4  UNL     1      -0.123 -15.981 -12.160  1.00  0.00    -0.190 N
ATOM      6  H4  UNL     1       0.637 -16.190 -12.808  1.00  0.00     0.184 HD
HETATM    7  C8  UNL     1      -1.465 -16.094 -12.420  1.00  0.00     0.078 A
HETATM    8  C9  UNL     1      -1.909 -16.504 -13.568  1.00  0.00     0.062 C
ENDROOT
BRANCH   1   9
HETATM    9  C5  UNL     1      -3.396 -15.638 -11.042  1.00  0.00     0.007 C
BRANCH   9  10
HETATM   10  C4  UNL     1      -3.966 -16.284  -9.816  1.00  0.00     0.059 C
BRANCH  10  11
HETATM   11  C3  UNL     1      -3.889 -15.293  -8.682  1.00  0.00     0.275 C
BRANCH  11  12
HETATM   12  N1  UNL     1      -5.135 -15.326  -7.960  1.00  0.00     0.080 N
HETATM   13  C1  UNL     1      -6.059 -14.368  -8.516  1.00  0.00     0.309 C
HETATM   14  C2  UNL     1      -4.925 -15.155  -6.555  1.00  0.00     0.309 C
ENDBRANCH  11  12
ENDBRANCH  10  11
ENDBRANCH   9  10
ENDBRANCH   1   9
BRANCH   8  15
HETATM   15  C10 UNL     1      -3.267 -16.691 -14.000  1.00  0.00     0.036 A
HETATM   16  C11 UNL     1      -4.006 -17.869 -14.060  1.00  0.00     0.051 A
HETATM   17  C12 UNL     1      -5.245 -17.620 -14.568  1.00  0.00     0.047 A
HETATM   18 BR1  UNL     1      -6.692 -18.820 -14.888  1.00  0.00    -0.048 Br
HETATM   19  C13 UNL     1      -5.288 -16.272 -14.833  1.00  0.00     0.097 A
HETATM   20 BR2  UNL     1      -6.740 -15.268 -15.558  1.00  0.00    -0.030 Br
HETATM   21  N5  UNL     1      -4.111 -15.733 -14.491  1.00  0.00    -0.349 N
ATOM     22  H5  UNL     1      -3.876 -14.745 -14.584  1.00  0.00     0.166 HD
ENDBRANCH   8  15
BRANCH   4  23
HETATM   23  N3  UNL     1       1.144 -15.326 -10.308  1.00  0.00    -0.234 N
ATOM     24  H32 UNL     1       1.406 -14.446  -9.863  1.00  0.00     0.174 HD
ATOM     25  H31 UNL     1       1.901 -16.004 -10.215  1.00  0.00     0.174 HD
ENDBRANCH   4  23
TORSDOF 6
ENDMDL