MODEL 5
REMARK VINA RESULT: -7.936464112      2.474      3.176
REMARK  6 active torsions:
REMARK  status: ('A' for Active; 'I' for Inactive)
REMARK    1  A    between atoms: O1_1  and  C1_3
REMARK    2  A    between atoms: C2_8  and  C3_9
REMARK    3  A    between atoms: N3_10  and  C4_12
REMARK    4  A    between atoms: C4_12  and  C5_13
REMARK    5  A    between atoms: C7_17  and  C8_18
REMARK    6  A    between atoms: C8_18  and  C9_19
ROOT
HETATM    1  C5  UNL     1      -3.292 -15.102 -10.551  1.00  0.00     0.123 A
HETATM    2  N4  UNL     1      -2.706 -15.431  -9.387  1.00  0.00    -0.328 N
ATOM      3  H4  UNL     1      -1.770 -15.751  -9.139  1.00  0.00     0.169 HD
HETATM    4  C6  UNL     1      -3.815 -15.178  -8.673  1.00  0.00     0.104 A
HETATM    5  C7  UNL     1      -4.221 -15.211  -7.417  1.00  0.00     0.028 C
HETATM    6  N6  UNL     1      -4.421 -14.843  -9.844  1.00  0.00    -0.328 N
ATOM      7  H6  UNL     1      -5.356 -14.523 -10.093  1.00  0.00     0.169 HD
ENDROOT
BRANCH   1   8
HETATM    8  C4  UNL     1      -2.985 -15.038 -11.827  1.00  0.00     0.136 C
BRANCH   8   9
HETATM    9  N3  UNL     1      -4.027 -15.165 -12.782  1.00  0.00    -0.369 N
HETATM   10  C3  UNL     1      -4.466 -16.351 -13.108  1.00  0.00     0.123 C
ATOM     11  H3  UNL     1      -4.431 -14.334 -13.213  1.00  0.00     0.164 HD
BRANCH  10  12
HETATM   12  C2  UNL     1      -5.534 -16.472 -14.089  1.00  0.00     0.115 A
HETATM   13  C1  UNL     1      -6.191 -15.636 -14.961  1.00  0.00     0.185 A
HETATM   14  N1  UNL     1      -6.940 -16.673 -15.369  1.00  0.00    -0.278 N
HETATM   15  N2  UNL     1      -6.300 -17.493 -14.518  1.00  0.00    -0.293 N
ATOM     16  H1  UNL     1      -7.690 -16.791 -16.049  1.00  0.00     0.189 HD
ATOM     17  H2  UNL     1      -6.367 -18.484 -14.290  1.00  0.00     0.187 HD
BRANCH  13  18
HETATM   18  O1  UNL     1      -6.113 -14.309 -15.276  1.00  0.00    -0.343 OA
ATOM     19  H1  UNL     1      -6.140 -13.494 -14.787  1.00  0.00     0.219 HD
ENDBRANCH  13  18
ENDBRANCH  10  12
ENDBRANCH   8   9
ENDBRANCH   1   8
BRANCH   5  20
HETATM   20  C8  UNL     1      -5.600 -14.835  -7.023  1.00  0.00     0.088 C
BRANCH  20  21
HETATM   21  C9  UNL     1      -5.737 -14.833  -5.554  1.00  0.00     0.015 A
HETATM   22  C10 UNL     1      -6.140 -13.774  -4.761  1.00  0.00     0.047 A
HETATM   23  C11 UNL     1      -6.125 -14.214  -3.462  1.00  0.00     0.046 A
HETATM   24 BR1  UNL     1      -6.576 -13.236  -1.889  1.00  0.00    -0.048 Br
HETATM   25  C12 UNL     1      -5.714 -15.525  -3.484  1.00  0.00     0.097 A
HETATM   26 BR2  UNL     1      -5.481 -16.715  -2.016  1.00  0.00    -0.030 Br
HETATM   27  N5  UNL     1      -5.477 -15.902  -4.770  1.00  0.00    -0.352 N
ATOM     28  H5  UNL     1      -5.163 -16.820  -5.084  1.00  0.00     0.166 HD
ENDBRANCH  20  21
ENDBRANCH   5  20
TORSDOF 6
ENDMDL