MODEL 1
REMARK VINA RESULT: -6.116900480      0.000      0.000
REMARK  4 active torsions:
REMARK  status: ('A' for Active; 'I' for Inactive)
REMARK       I    between atoms: C1_2  and  N1_3
REMARK       I    between atoms: C1_2  and  N5_16
REMARK    1  A    between atoms: N5_16  and  C6_18
REMARK    2  A    between atoms: C6_18  and  C7_19
REMARK    3  A    between atoms: C6_18  and  C8_21
REMARK    4  A    between atoms: C8_21  and  C9_22
ROOT
HETATM    1  O1  UNL     1      -6.352 -15.510  -8.783  1.00  0.00    -0.246 OA
HETATM    2  C1  UNL     1      -5.186 -15.019  -8.607  1.00  0.00     0.334 C
HETATM    3  N1  UNL     1      -4.433 -14.636  -9.747  1.00  0.00    -0.141 N
ATOM      4  H1  UNL     1      -4.474 -13.676 -10.091  1.00  0.00     0.189 HD
HETATM    5  C2  UNL     1      -3.696 -15.510 -10.345  1.00  0.00     0.684 C
HETATM    6  N2  UNL     1      -3.668 -16.844  -9.826  1.00  0.00    -0.224 N
ATOM      7  H2  UNL     1      -4.389 -17.039  -9.130  1.00  0.00     0.177 HD
HETATM    8  C3  UNL     1      -2.805 -17.956 -10.111  1.00  0.00     0.157 C
HETATM    9  C4  UNL     1      -2.620 -18.204 -11.588  1.00  0.00     0.142 C
HETATM   10  N3  UNL     1      -1.823 -17.187 -12.223  1.00  0.00    -0.365 N
ATOM     11  H3  UNL     1      -1.009 -17.534 -12.732  1.00  0.00     0.161 HD
HETATM   12  C5  UNL     1      -1.993 -15.766 -12.252  1.00  0.00     0.186 C
HETATM   13  S1  UNL     1      -1.029 -14.886 -13.215  1.00  0.00    -0.040 SA
HETATM   14  N4  UNL     1      -2.966 -15.063 -11.481  1.00  0.00    -0.166 N
ATOM     15  H4  UNL     1      -3.164 -14.109 -11.785  1.00  0.00     0.186 HD
HETATM   16  N5  UNL     1      -4.691 -14.876  -7.280  1.00  0.00    -0.337 N
ATOM     17  H5  UNL     1      -3.761 -14.485  -7.132  1.00  0.00     0.164 HD
ENDROOT
BRANCH  16  18
HETATM   18  C6  UNL     1      -5.485 -15.277  -6.135  1.00  0.00     0.096 C
BRANCH  18  19
HETATM   19  C7  UNL     1      -4.554 -15.744  -5.023  1.00  0.00     0.110 C
HETATM   20 BR1  UNL     1      -3.502 -14.272  -4.398  1.00  0.00    -0.094 Br
ENDBRANCH  18  19
BRANCH  18  21
HETATM   21  C8  UNL     1      -6.258 -14.085  -5.621  1.00  0.00     0.037 C
BRANCH  21  22
HETATM   22  C9  UNL     1      -7.337 -14.495  -4.664  1.00  0.00     0.087 C
HETATM   23 BR2  UNL     1      -6.881 -13.961  -2.850  1.00  0.00    -0.096 Br
ENDBRANCH  21  22
ENDBRANCH  18  21
ENDBRANCH  16  18
TORSDOF 4
ENDMDL