MODEL 1
REMARK VINA RESULT: -5.758948208      0.000      0.000
REMARK  7 active torsions:
REMARK  status: ('A' for Active; 'I' for Inactive)
REMARK    1  A    between atoms: N1_1  and  N2_4
REMARK    2  A    between atoms: N2_4  and  N3_6
REMARK    3  A    between atoms: C1_8  and  O1_9
REMARK    4  A    between atoms: C1_8  and  C2_11
REMARK    5  A    between atoms: C3_12  and  C4_13
REMARK    6  A    between atoms: C4_13  and  O2_14
REMARK    7  A    between atoms: C4_13  and  C5_16
ROOT
HETATM    1  C2  UNL     1      -3.086 -15.008 -11.551  1.00  0.00     0.061 A
HETATM    2  C3  UNL     1      -3.747 -15.648 -10.509  1.00  0.00     0.056 A
HETATM    3  N4  UNL     1      -3.896 -16.944 -10.826  1.00  0.00    -0.350 N
ATOM      4  H4  UNL     1      -4.350 -17.644 -10.239  1.00  0.00     0.166 HD
HETATM    5  C6  UNL     1      -3.355 -17.184 -12.046  1.00  0.00     0.098 A
HETATM    6 BR2  UNL     1      -3.272 -18.830 -13.002  1.00  0.00    -0.030 Br
HETATM    7  C7  UNL     1      -2.851 -16.000 -12.507  1.00  0.00     0.061 A
HETATM    8 BR3  UNL     1      -1.961 -15.734 -14.191  1.00  0.00    -0.047 Br
ENDROOT
BRANCH   1   9
HETATM    9  C1  UNL     1      -2.708 -13.629 -11.727  1.00  0.00     0.170 C
HETATM   10  N3  UNL     1      -3.523 -12.811 -12.298  1.00  0.00    -0.265 N
ATOM     11  H3  UNL     1      -4.419 -13.188 -12.605  1.00  0.00     0.190 HD
BRANCH  10  12
HETATM   12  N2  UNL     1      -3.292 -11.476 -12.529  1.00  0.00    -0.247 N
ATOM     13  H2  UNL     1      -2.353 -11.096 -12.651  1.00  0.00     0.207 HD
BRANCH  12  14
HETATM   14  N1  UNL     1      -4.420 -10.687 -12.586  1.00  0.00    -0.331 N
ATOM     15  H12 UNL     1      -4.936 -10.557 -13.456  1.00  0.00     0.178 HD
ATOM     16  H11 UNL     1      -4.691 -10.253 -11.704  1.00  0.00     0.178 HD
ENDBRANCH  12  14
ENDBRANCH  10  12
BRANCH   9  17
HETATM   17  O1  UNL     1      -1.459 -13.207 -11.273  1.00  0.00    -0.344 OA
ATOM     18  H1  UNL     1      -0.694 -13.766 -11.344  1.00  0.00     0.219 HD
ENDBRANCH   9  17
ENDBRANCH   1   9
BRANCH   2  19
HETATM   19  C4  UNL     1      -4.192 -14.968  -9.268  1.00  0.00     0.178 C
BRANCH  19  20
HETATM   20  O2  UNL     1      -3.178 -15.264  -8.301  1.00  0.00    -0.389 OA
ATOM     21  H2  UNL     1      -3.094 -14.471  -7.784  1.00  0.00     0.210 HD
ENDBRANCH  19  20
BRANCH  19  22
HETATM   22  C5  UNL     1      -5.440 -15.560  -8.658  1.00  0.00     0.123 C
HETATM   23 BR1  UNL     1      -5.589 -15.124  -6.803  1.00  0.00    -0.093 Br
ENDBRANCH  19  22
ENDBRANCH   2  19
TORSDOF 7
ENDMDL