MODEL 1
REMARK VINA RESULT: -6.211278439      0.000      0.000
REMARK  5 active torsions:
REMARK  status: ('A' for Active; 'I' for Inactive)
REMARK    1  A    between atoms: C5_9  and  N2_10
REMARK    2  A    between atoms: C6_13  and  C7_14
REMARK    3  A    between atoms: C7_14  and  C8_15
REMARK    4  A    between atoms: C11_21  and  C12_22
REMARK    5  A    between atoms: N4_23  and  N5_25
ROOT
HETATM    1  C8  UNL     1      -3.622 -16.085  -9.126  1.00  0.00     0.046 A
HETATM    2  N3  UNL     1      -3.826 -17.394  -9.292  1.00  0.00    -0.364 N
ATOM      3  H3  UNL     1      -4.144 -18.023  -8.555  1.00  0.00     0.165 HD
HETATM    4  C9  UNL     1      -3.561 -17.779 -10.548  1.00  0.00     0.108 A
HETATM    5  C10 UNL     1      -3.161 -16.681 -11.271  1.00  0.00     0.040 A
HETATM    6 BR2  UNL     1      -2.655 -16.631 -13.122  1.00  0.00    -0.049 Br
HETATM    7  C11 UNL     1      -3.202 -15.634 -10.378  1.00  0.00     0.026 A
ENDROOT
BRANCH   1   8
HETATM    8  C7  UNL     1      -3.734 -15.199  -8.009  1.00  0.00     0.046 C
BRANCH   8   9
HETATM    9  C6  UNL     1      -4.725 -14.896  -7.228  1.00  0.00     0.017 A
HETATM   10  C2  UNL     1      -4.642 -15.152  -5.765  1.00  0.00    -0.025 A
HETATM   11  C1  UNL     1      -3.398 -15.721  -5.174  1.00  0.00     0.050 C
HETATM   12  C3  UNL     1      -5.644 -14.895  -4.944  1.00  0.00     0.085 A
HETATM   13 BR1  UNL     1      -5.454 -15.254  -3.082  1.00  0.00    -0.045 Br
HETATM   14  C4  UNL     1      -6.919 -14.339  -5.381  1.00  0.00     0.265 A
HETATM   15  O1  UNL     1      -7.849 -14.110  -4.546  1.00  0.00    -0.267 OA
HETATM   16  N1  UNL     1      -7.056 -14.074  -6.761  1.00  0.00    -0.308 N
HETATM   17  C5  UNL     1      -5.978 -14.347  -7.679  1.00  0.00     0.112 A
ATOM     18  H1  UNL     1      -7.930 -13.684  -7.114  1.00  0.00     0.170 HD
BRANCH  17  19
HETATM   19  N2  UNL     1      -6.236 -14.097  -8.901  1.00  0.00    -0.385 N
ATOM     20  H22 UNL     1      -6.936 -14.604  -9.442  1.00  0.00     0.157 HD
ATOM     21  H21 UNL     1      -5.705 -13.325  -9.304  1.00  0.00     0.157 HD
ENDBRANCH  17  19
ENDBRANCH   8   9
ENDBRANCH   1   8
BRANCH   7  22
HETATM   22  C12 UNL     1      -2.846 -14.275 -10.751  1.00  0.00     0.123 C
HETATM   23  N4  UNL     1      -3.477 -13.606 -11.650  1.00  0.00    -0.297 N
ATOM     24  H4  UNL     1      -4.265 -14.045 -12.127  1.00  0.00     0.187 HD
BRANCH  23  25
HETATM   25  N5  UNL     1      -3.126 -12.318 -11.991  1.00  0.00    -0.250 N
HETATM   26  N6  UNL     1      -3.909 -11.506 -12.571  1.00  0.00    -0.331 N
ATOM     27  H62 UNL     1      -4.847 -11.842 -12.790  1.00  0.00     0.178 HD
ATOM     28  H61 UNL     1      -3.649 -10.553 -12.823  1.00  0.00     0.178 HD
ATOM     29  H5  UNL     1      -2.184 -12.000 -11.765  1.00  0.00     0.207 HD
ENDBRANCH  23  25
ENDBRANCH   7  22
TORSDOF 5
ENDMDL