MODEL 1
REMARK VINA RESULT: -5.819895925      0.000      0.000
REMARK  6 active torsions:
REMARK  status: ('A' for Active; 'I' for Inactive)
REMARK    1  A    between atoms: C2_2  and  N1_3
REMARK       I    between atoms: N1_3  and  C3_5
REMARK       I    between atoms: C3_5  and  N3_9
REMARK    2  A    between atoms: N3_9  and  C4_11
REMARK    3  A    between atoms: C5_15  and  O1_16
REMARK    4  A    between atoms: C5_15  and  C6_18
REMARK    5  A    between atoms: C6_18  and  C7_19
REMARK    6  A    between atoms: C6_18  and  N5_21
ROOT
HETATM    1  C4  UNL     1      -3.966 -15.941  -9.243  1.00  0.00     0.322 C
HETATM    2  N4  UNL     1      -4.163 -15.411 -10.587  1.00  0.00    -0.017 N
ATOM      3  H41 UNL     1      -4.638 -14.515 -10.698  1.00  0.00     0.283 HD
ATOM      4  H42 UNL     1      -4.832 -15.869 -11.204  1.00  0.00     0.283 HD
HETATM    5  C5  UNL     1      -2.747 -15.497 -10.900  1.00  0.00     0.273 C
HETATM    6  C11 UNL     1      -2.685 -16.567  -9.800  1.00  0.00     0.174 C
HETATM    7 BR2  UNL     1      -3.130 -18.352 -10.390  1.00  0.00    -0.082 Br
ENDROOT
BRANCH   1   8
HETATM    8  N3  UNL     1      -3.750 -14.979  -8.206  1.00  0.00    -0.196 N
HETATM    9  C3  UNL     1      -4.485 -15.121  -7.011  1.00  0.00     0.669 C
HETATM   10  N1  UNL     1      -5.889 -14.939  -7.027  1.00  0.00    -0.227 N
HETATM   11  N2  UNL     1      -3.871 -15.414  -5.927  1.00  0.00    -0.235 N
ATOM     12  H1  UNL     1      -6.459 -15.592  -7.565  1.00  0.00     0.177 HD
ATOM     13  H22 UNL     1      -4.403 -15.517  -5.063  1.00  0.00     0.174 HD
ATOM     14  H21 UNL     1      -2.860 -15.545  -5.916  1.00  0.00     0.174 HD
ATOM     15  H3  UNL     1      -3.085 -14.216  -8.328  1.00  0.00     0.180 HD
BRANCH  10  16
HETATM   16  C2  UNL     1      -6.549 -13.874  -6.318  1.00  0.00     0.133 C
HETATM   17  C1  UNL     1      -7.240 -14.395  -5.050  1.00  0.00     0.027 C
ENDBRANCH  10  16
ENDBRANCH   1   8
BRANCH   5  18
HETATM   18  O1  UNL     1      -2.020 -14.373 -10.539  1.00  0.00    -0.362 OA
ATOM     19  H1  UNL     1      -1.138 -14.354 -10.890  1.00  0.00     0.212 HD
ENDBRANCH   5  18
BRANCH   5  20
HETATM   20  C6  UNL     1      -2.358 -16.053 -12.222  1.00  0.00     0.263 C
BRANCH  20  21
HETATM   21  C7  UNL     1      -0.869 -15.736 -12.390  1.00  0.00     0.123 C
HETATM   22 BR1  UNL     1       0.259 -17.259 -12.144  1.00  0.00    -0.094 Br
ENDBRANCH  20  21
BRANCH  20  23
HETATM   23  N5  UNL     1      -3.125 -15.550 -13.329  1.00  0.00    -0.069 N
HETATM   24  C8  UNL     1      -3.306 -14.116 -13.341  1.00  0.00     0.272 C
HETATM   25  C9  UNL     1      -2.473 -15.889 -14.586  1.00  0.00     0.272 C
HETATM   26  C10 UNL     1      -4.456 -16.137 -13.388  1.00  0.00     0.272 C
ENDBRANCH  20  23
ENDBRANCH   5  20
TORSDOF 6
ENDMDL