MODEL 1
REMARK VINA RESULT: -7.331901117      0.000      0.000
REMARK  3 active torsions:
REMARK  status: ('A' for Active; 'I' for Inactive)
REMARK    1  A    between atoms: C2_2  and  O2_4
REMARK    2  A    between atoms: O2_4  and  C3_5
REMARK    3  A    between atoms: C7_11  and  C8_12
ROOT
HETATM    1  C3  UNL     1      11.808   5.176  -0.071  1.00  0.00     0.346 A
HETATM    2  O3  UNL     1      11.403   6.465  -0.077  1.00  0.00    -0.167 OA
HETATM    3  O4  UNL     1      12.191   7.147   0.753  1.00  0.00    -0.229 OA
HETATM    4  C4  UNL     1      13.523   7.099   0.427  1.00  0.00     0.173 C
HETATM    5  C5  UNL     1      14.143   8.467   0.316  1.00  0.00     0.029 C
HETATM    6  C6  UNL     1      13.026   9.480   0.569  1.00  0.00     0.014 C
HETATM    7  C7  UNL     1      15.236   8.758   1.274  1.00  0.00     0.093 C
HETATM    8  C9  UNL     1      16.254   7.688   1.444  1.00  0.00     0.017 C
HETATM    9  C10 UNL     1      15.784   6.314   1.065  1.00  0.00     0.013 C
HETATM   10  C11 UNL     1      14.337   6.202   1.362  1.00  0.00    -0.009 C
HETATM   11  C12 UNL     1      14.016   6.590   2.788  1.00  0.00     0.018 C
HETATM   12  C13 UNL     1      13.818   4.762   1.199  1.00  0.00     0.029 C
HETATM   13  C14 UNL     1      14.466   4.091   0.062  1.00  0.00     0.014 C
HETATM   14  C15 UNL     1      12.370   4.868   1.250  1.00  0.00     0.228 A
HETATM   15  O7  UNL     1      11.388   4.157   0.718  1.00  0.00    -0.315 OA
ENDROOT
BRANCH   1  16
HETATM   16  O2  UNL     1      12.313   4.698  -1.283  1.00  0.00    -0.254 OA
BRANCH  16  17
HETATM   17  C2  UNL     1      11.605   3.723  -1.980  1.00  0.00     0.259 C
HETATM   18  C1  UNL     1      10.315   4.000  -2.668  1.00  0.00     0.126 C
HETATM   19  O1  UNL     1      12.081   2.568  -2.023  1.00  0.00    -0.266 OA
ENDBRANCH  16  17
ENDBRANCH   1  16
BRANCH   7  20
HETATM   20  C8  UNL     1      15.962   9.975   0.757  1.00  0.00     0.177 C
HETATM   21  O5  UNL     1      16.023  11.051   1.364  1.00  0.00    -0.648 OA
HETATM   22  O6  UNL     1      16.595   9.869  -0.473  1.00  0.00    -0.648 OA
ENDBRANCH   7  20
TORSDOF 3
ENDMDL