MODEL 3
REMARK VINA RESULT: -6.637525764      7.508      9.872
REMARK  3 active torsions:
REMARK  status: ('A' for Active; 'I' for Inactive)
REMARK    1  A    between atoms: C2_2  and  O1_3
REMARK    2  A    between atoms: C2_2  and  C3_5
REMARK    3  A    between atoms: C3_5  and  C5_7
ROOT
HETATM    1  C5  UNL     1      14.610   9.614   2.081  1.00  0.00     0.030 C
HETATM    2  C6  UNL     1      15.656  10.070   1.060  1.00  0.00     0.125 C
HETATM    3  C7  UNL     1      17.028   9.581   1.313  1.00  0.00     0.040 C
HETATM    4  O2  UNL     1      15.166   9.699  -0.181  1.00  0.00    -0.355 OA
HETATM    5  C8  UNL     1      14.467   8.515   0.022  1.00  0.00     0.274 C
HETATM    6  O3  UNL     1      15.401   7.484   0.115  1.00  0.00    -0.289 OA
HETATM    7  C9  UNL     1      15.404   6.574   1.124  1.00  0.00     0.270 C
HETATM    8  O4  UNL     1      16.409   5.855   1.328  1.00  0.00    -0.264 OA
HETATM    9  C10 UNL     1      14.228   6.413   1.995  1.00  0.00     0.059 C
HETATM   10  C11 UNL     1      14.590   6.211   3.450  1.00  0.00     0.027 C
HETATM   11  C12 UNL     1      13.609   5.065   1.572  1.00  0.00     0.131 C
HETATM   12  C13 UNL     1      13.357   5.140   0.093  1.00  0.00     0.260 C
HETATM   13  O5  UNL     1      13.719   4.261  -0.714  1.00  0.00    -0.265 OA
HETATM   14  O6  UNL     1      12.667   6.308  -0.289  1.00  0.00    -0.321 OA
HETATM   15  C14 UNL     1      12.136   7.063   0.759  1.00  0.00     0.185 C
HETATM   16  C15 UNL     1      13.199   7.495   1.787  1.00  0.00     0.038 C
HETATM   17  C16 UNL     1      13.715   8.810   1.306  1.00  0.00     0.056 C
ENDROOT
BRANCH   1  18
HETATM   18  C3  UNL     1      14.230  10.843   2.805  1.00  0.00     0.017 C
HETATM   19  C4  UNL     1      12.934  11.314   2.078  1.00  0.00     0.013 C
BRANCH  18  20
HETATM   20  C2  UNL     1      15.113  12.017   2.863  1.00  0.00     0.118 C
HETATM   21  C1  UNL     1      16.082  12.082   4.011  1.00  0.00     0.040 C
BRANCH  20  22
HETATM   22  O1  UNL     1      14.284  13.159   3.088  1.00  0.00    -0.396 OA
ATOM     23  H1  UNL     1      14.800  13.673   3.698  1.00  0.00     0.210 HD
ENDBRANCH  20  22
ENDBRANCH  18  20
ENDBRANCH   1  18
TORSDOF 3
ENDMDL