MODEL 2
REMARK VINA RESULT: -7.409424971      3.367      6.273
REMARK  4 active torsions:
REMARK  status: ('A' for Active; 'I' for Inactive)
REMARK    1  A    between atoms: C2_2  and  C4_4
REMARK    2  A    between atoms: C4_4  and  C7_7
REMARK    3  A    between atoms: C11_11  and  O1_12
REMARK    4  A    between atoms: C12_14  and  C13_15
ROOT
HETATM    1  C7  UNL     1      13.321   6.574   1.499  1.00  0.00    -0.032 A
HETATM    2  C8  UNL     1      13.543   7.944   1.784  1.00  0.00     0.039 A
HETATM    3  C9  UNL     1      12.637   8.933   1.512  1.00  0.00     0.057 A
HETATM    4  C10 UNL     1      11.447   8.628   0.938  1.00  0.00     0.093 A
HETATM    5  C11 UNL     1      11.158   7.318   0.633  1.00  0.00     0.097 A
HETATM    6  C12 UNL     1      12.125   6.307   0.933  1.00  0.00     0.043 A
HETATM    7  C14 UNL     1      10.572   9.673   0.684  1.00  0.00     0.266 A
HETATM    8  O3  UNL     1       9.456   9.456   0.155  1.00  0.00    -0.267 OA
HETATM    9  N1  UNL     1      10.856  10.968   0.987  1.00  0.00    -0.270 N
HETATM   10  C15 UNL     1       9.916  12.042   0.708  1.00  0.00     0.164 C
HETATM   11  C16 UNL     1      12.049  11.205   1.554  1.00  0.00     0.331 A
HETATM   12  O4  UNL     1      12.321  12.399   1.836  1.00  0.00    -0.246 OA
HETATM   13  N2  UNL     1      12.917  10.230   1.813  1.00  0.00    -0.303 N
HETATM   14  C17 UNL     1      14.184  10.548   2.424  1.00  0.00     0.161 C
ENDROOT
BRANCH   1  15
HETATM   15  C4  UNL     1      14.423   5.667   1.674  1.00  0.00    -0.017 C
HETATM   16  C5  UNL     1      14.436   5.008   3.079  1.00  0.00     0.020 C
HETATM   17  C6  UNL     1      15.723   6.519   1.765  1.00  0.00     0.020 C
BRANCH  15  18
HETATM   18  C2  UNL     1      14.754   4.626   0.696  1.00  0.00    -0.010 C
HETATM   19  C1  UNL     1      14.924   4.818  -0.731  1.00  0.00     0.010 C
HETATM   20  C3  UNL     1      15.968   3.778   1.173  1.00  0.00     0.010 C
ENDBRANCH  15  18
ENDBRANCH   1  15
BRANCH   6  21
HETATM   21  C13 UNL     1      11.673   4.963   0.696  1.00  0.00     0.273 C
HETATM   22  O2  UNL     1      11.402   4.548  -0.473  1.00  0.00    -0.301 OA
ENDBRANCH   6  21
BRANCH   5  23
HETATM   23  O1  UNL     1      10.000   6.964   0.065  1.00  0.00    -0.359 OA
ATOM     24  H1  UNL     1       9.924   6.823  -0.872  1.00  0.00     0.217 HD
ENDBRANCH   5  23
TORSDOF 4
ENDMDL