MODEL 2
REMARK VINA RESULT: -6.629351543      6.790      9.482
REMARK  3 active torsions:
REMARK  status: ('A' for Active; 'I' for Inactive)
REMARK    1  A    between atoms: C2_2  and  C4_4
REMARK    2  A    between atoms: C4_4  and  O1_5
REMARK    3  A    between atoms: C4_4  and  C5_7
ROOT
HETATM    1  C5  UNL     1      11.743   6.492   0.647  1.00  0.00     0.139 C
HETATM    2  C6  UNL     1      10.377   6.935   0.396  1.00  0.00     0.198 C
HETATM    3  O2  UNL     1      10.483   7.974  -0.568  1.00  0.00    -0.364 OA
HETATM    4  C7  UNL     1      11.749   8.540  -0.290  1.00  0.00     0.232 C
HETATM    5  C8  UNL     1      11.525   9.480   0.833  1.00  0.00     0.131 C
HETATM    6  S1  UNL     1      12.918   9.388   1.979  1.00  0.00    -0.119 SA
HETATM    7  C9  UNL     1      14.314   8.719   1.043  1.00  0.00     0.166 C
HETATM    8  C10 UNL     1      15.385   8.320   2.033  1.00  0.00     0.227 C
HETATM    9  O3  UNL     1      16.588   8.695   1.394  1.00  0.00    -0.352 OA
HETATM   10  C11 UNL     1      16.206   9.892   0.806  1.00  0.00     0.159 C
HETATM   11  C12 UNL     1      17.206  10.229  -0.279  1.00  0.00     0.078 C
HETATM   12  C13 UNL     1      16.268  10.981   1.837  1.00  0.00     0.078 C
HETATM   13  O4  UNL     1      14.949   9.696   0.284  1.00  0.00    -0.327 OA
HETATM   14  C14 UNL     1      13.904   7.526   0.255  1.00  0.00     0.113 C
HETATM   15  N1  UNL     1      12.560   7.417  -0.103  1.00  0.00    -0.354 N
ENDROOT
BRANCH   1  16
HETATM   16  C4  UNL     1      12.119   5.094   0.431  1.00  0.00     0.146 C
BRANCH  16  17
HETATM   17  C2  UNL     1      12.766   4.649  -0.815  1.00  0.00     0.008 C
HETATM   18  C1  UNL     1      14.152   4.060  -0.652  1.00  0.00     0.012 C
HETATM   19  C3  UNL     1      11.917   3.852  -1.764  1.00  0.00     0.012 C
ENDBRANCH  16  17
BRANCH  16  20
HETATM   20  O1  UNL     1      10.950   4.293   0.561  1.00  0.00    -0.393 OA
ATOM     21  H1  UNL     1      10.505   4.615   1.337  1.00  0.00     0.210 HD
ENDBRANCH  16  20
ENDBRANCH   1  16
TORSDOF 3
ENDMDL