MODEL 4
REMARK VINA RESULT: -7.140785185      1.786      2.563
REMARK  3 active torsions:
REMARK  status: ('A' for Active; 'I' for Inactive)
REMARK    1  A    between atoms: O1_2  and  C2_3
REMARK    2  A    between atoms: C4_5  and  O2_6
REMARK    3  A    between atoms: C16_21  and  O6_22
ROOT
HETATM    1  C2  UNL     1      15.850   2.830   0.317  1.00  0.00     0.071 A
HETATM    2  C3  UNL     1      16.030   3.886   1.182  1.00  0.00     0.074 A
HETATM    3  C4  UNL     1      15.093   4.884   1.307  1.00  0.00     0.084 A
HETATM    4  C6  UNL     1      13.940   4.788   0.517  1.00  0.00     0.046 A
HETATM    5  C7  UNL     1      13.763   3.732  -0.345  1.00  0.00     0.037 A
HETATM    6  C8  UNL     1      14.712   2.737  -0.461  1.00  0.00     0.053 A
HETATM    7  C9  UNL     1      12.547   3.665  -1.152  1.00  0.00     0.233 A
HETATM    8  O3  UNL     1      12.356   2.723  -1.942  1.00  0.00    -0.283 OA
HETATM    9  C10 UNL     1      11.564   4.729  -1.007  1.00  0.00     0.234 A
HETATM   10  O4  UNL     1      10.506   4.725  -1.672  1.00  0.00    -0.283 OA
HETATM   11  C11 UNL     1      11.791   5.829  -0.084  1.00  0.00     0.062 A
HETATM   12  C12 UNL     1      12.909   5.833   0.616  1.00  0.00     0.097 A
HETATM   13  O5  UNL     1      12.932   6.973   1.443  1.00  0.00    -0.336 OA
HETATM   14  C13 UNL     1      12.104   7.927   0.802  1.00  0.00     0.091 C
HETATM   15  C14 UNL     1      11.604   8.992   1.730  1.00  0.00     0.049 C
HETATM   16  C15 UNL     1      12.800   8.510  -0.416  1.00  0.00     0.049 C
HETATM   17  C16 UNL     1      10.992   7.040   0.283  1.00  0.00     0.192 C
ENDROOT
BRANCH   1  18
HETATM   18  O1  UNL     1      16.808   1.848   0.218  1.00  0.00    -0.356 OA
HETATM   19  C1  UNL     1      17.702   1.632   1.291  1.00  0.00     0.210 C
ENDBRANCH   1  18
BRANCH   3  20
HETATM   20  O2  UNL     1      15.272   5.950   2.177  1.00  0.00    -0.355 OA
HETATM   21  C5  UNL     1      16.127   7.001   1.775  1.00  0.00     0.210 C
ENDBRANCH   3  20
BRANCH  17  22
HETATM   22  O6  UNL     1      10.102   6.662   1.270  1.00  0.00    -0.388 OA
ATOM     23  H6  UNL     1       9.306   6.376   0.839  1.00  0.00     0.210 HD
ENDBRANCH  17  22
TORSDOF 3
ENDMDL