MODEL 1
REMARK VINA RESULT: -8.667821917      0.000      0.000
REMARK  3 active torsions:
REMARK  status: ('A' for Active; 'I' for Inactive)
REMARK    1  A    between atoms: O1_2  and  C2_3
REMARK    2  A    between atoms: C9_12  and  O4_13
REMARK    3  A    between atoms: C13_18  and  O5_19
ROOT
HETATM    1  C2  UNL     1      12.659   6.630  -0.113  1.00  0.00     0.130 A
HETATM    2  C3  UNL     1      13.738   7.172   0.370  1.00  0.00     0.042 A
HETATM    3  C4  UNL     1      14.074   8.569   0.762  1.00  0.00     0.227 C
HETATM    4  O2  UNL     1      13.586   9.580   0.247  1.00  0.00    -0.284 OA
HETATM    5  C5  UNL     1      15.051   8.488   1.827  1.00  0.00     0.200 C
HETATM    6  O3  UNL     1      15.585   9.375   2.504  1.00  0.00    -0.289 OA
HETATM    7  C6  UNL     1      15.342   6.999   2.004  1.00  0.00     0.102 C
HETATM    8  C7  UNL     1      15.018   6.443   0.643  1.00  0.00     0.070 A
HETATM    9  C8  UNL     1      14.954   5.047   0.413  1.00  0.00     0.001 A
HETATM   10  C9  UNL     1      16.097   4.267   0.649  1.00  0.00     0.074 A
HETATM   11  C10 UNL     1      16.059   2.917   0.354  1.00  0.00     0.046 A
HETATM   12  C11 UNL     1      14.942   2.278  -0.164  1.00  0.00    -0.025 A
HETATM   13  C12 UNL     1      14.982   0.811  -0.438  1.00  0.00     0.051 C
HETATM   14  C13 UNL     1      13.845   3.069  -0.378  1.00  0.00     0.089 A
HETATM   15  C15 UNL     1      13.838   4.417  -0.103  1.00  0.00     0.060 A
HETATM   16  C16 UNL     1      12.629   5.200  -0.390  1.00  0.00     0.219 A
HETATM   17  O6  UNL     1      11.582   4.731  -0.856  1.00  0.00    -0.284 OA
ENDROOT
BRANCH   1  18
HETATM   18  O1  UNL     1      11.535   7.424  -0.358  1.00  0.00    -0.351 OA
HETATM   19  C1  UNL     1      10.484   7.637   0.534  1.00  0.00     0.210 C
ENDBRANCH   1  18
BRANCH  14  20
HETATM   20  O5  UNL     1      12.725   2.436  -0.891  1.00  0.00    -0.354 OA
HETATM   21  C14 UNL     1      12.697   1.699  -2.097  1.00  0.00     0.210 C
ENDBRANCH  14  20
BRANCH  10  22
HETATM   22  O4  UNL     1      17.236   4.839   1.176  1.00  0.00    -0.360 OA
ATOM     23  H4  UNL     1      17.600   4.519   1.994  1.00  0.00     0.217 HD
ENDBRANCH  10  22
TORSDOF 3
ENDMDL