MODEL 1
REMARK VINA RESULT: -7.279699552      0.000      0.000
REMARK  4 active torsions:
REMARK  status: ('A' for Active; 'I' for Inactive)
REMARK    1  A    between atoms: C7_8  and  O2_10
REMARK    2  A    between atoms: C9_12  and  C10_13
REMARK    3  A    between atoms: C10_13  and  C12_15
REMARK    4  A    between atoms: C12_15  and  O4_17
ROOT
HETATM    1  C1  UNL     1      23.937  14.084   4.719  1.00  0.00     0.023 C
HETATM    2  C2  UNL     1      23.101  14.983   4.192  1.00  0.00    -0.008 C
HETATM    3  C3  UNL     1      22.503  15.992   5.053  1.00  0.00     0.156 C
HETATM    4  O1  UNL     1      23.031  16.262   6.185  1.00  0.00    -0.293 OA
HETATM    5  C4  UNL     1      21.277  16.724   4.641  1.00  0.00     0.090 C
HETATM    6  C5  UNL     1      20.039  16.042   5.070  1.00  0.00     0.025 C
HETATM    7  C6  UNL     1      19.048  17.013   5.688  1.00  0.00     0.013 C
HETATM    8  C7  UNL     1      19.377  15.151   4.042  1.00  0.00     0.085 C
HETATM    9  C8  UNL     1      19.283  15.850   2.707  1.00  0.00     0.049 C
HETATM   10  C9  UNL     1      20.036  13.789   3.959  1.00  0.00     0.179 C
HETATM   11  O5  UNL     1      20.664  13.640   2.714  1.00  0.00    -0.311 OA
HETATM   12  C14 UNL     1      21.957  13.773   2.349  1.00  0.00     0.267 C
HETATM   13  O6  UNL     1      22.480  12.888   1.600  1.00  0.00    -0.264 OA
HETATM   14  C15 UNL     1      22.845  14.885   2.750  1.00  0.00     0.117 C
HETATM   15  C16 UNL     1      24.223  14.761   2.095  1.00  0.00     0.025 C
ENDROOT
BRANCH  10  16
HETATM   16  C10 UNL     1      19.086  12.665   4.276  1.00  0.00     0.114 C
HETATM   17  C11 UNL     1      18.283  12.828   5.511  1.00  0.00     0.023 C
BRANCH  16  18
HETATM   18  C12 UNL     1      18.193  12.382   3.149  1.00  0.00     0.264 C
HETATM   19  O3  UNL     1      16.999  12.710   3.228  1.00  0.00    -0.265 OA
BRANCH  18  20
HETATM   20  O4  UNL     1      18.630  11.764   2.000  1.00  0.00    -0.326 OA
HETATM   21  C13 UNL     1      17.790  10.999   1.156  1.00  0.00     0.213 C
ENDBRANCH  18  20
ENDBRANCH  16  18
ENDBRANCH  10  16
BRANCH   8  22
HETATM   22  O2  UNL     1      18.050  15.038   4.501  1.00  0.00    -0.387 OA
ATOM     23  H2  UNL     1      17.527  15.176   3.719  1.00  0.00     0.210 HD
ENDBRANCH   8  22
TORSDOF 4
ENDMDL