MODEL 5
REMARK VINA RESULT: -5.808516591      5.366      9.605
REMARK  4 active torsions:
REMARK  status: ('A' for Active; 'I' for Inactive)
REMARK    1  A    between atoms: C2_2  and  C3_3
REMARK    2  A    between atoms: C10_10  and  C11_11
REMARK    3  A    between atoms: C11_11  and  N1_12
REMARK    4  A    between atoms: N2_21  and  O4_23
ROOT
HETATM    1  C3  UNL     1      18.787  14.840   4.004  1.00  0.00     0.046 C
HETATM    2  C4  UNL     1      17.574  15.398   3.417  1.00  0.00     0.026 C
HETATM    3  C5  UNL     1      20.050  15.009   3.176  1.00  0.00     0.039 C
HETATM    4  C6  UNL     1      20.594  16.390   3.223  1.00  0.00     0.025 C
HETATM    5  C7  UNL     1      19.768  14.570   1.779  1.00  0.00     0.019 C
HETATM    6  C8  UNL     1      18.888  13.357   1.668  1.00  0.00     0.012 C
HETATM    7  C9  UNL     1      18.866  12.551   2.915  1.00  0.00     0.066 C
HETATM    8  C10 UNL     1      17.706  11.627   3.067  1.00  0.00     0.123 C
HETATM    9  C14 UNL     1      16.927  12.192   4.195  1.00  0.00     0.268 C
HETATM   10  O1  UNL     1      15.668  12.087   4.332  1.00  0.00    -0.265 OA
HETATM   11  O2  UNL     1      17.850  12.823   5.013  1.00  0.00    -0.281 OA
HETATM   12  C15 UNL     1      18.840  13.345   4.184  1.00  0.00     0.196 C
HETATM   13  O3  UNL     1      20.152  13.248   4.754  1.00  0.00    -0.297 OA
HETATM   14  C16 UNL     1      20.936  14.026   3.907  1.00  0.00     0.150 C
HETATM   15  N2  UNL     1      22.224  13.926   3.764  1.00  0.00    -0.250 N
ATOM     16  H2  UNL     1      22.712  14.544   3.115  1.00  0.00     0.196 HD
ENDROOT
BRANCH   8  17
HETATM   17  C11 UNL     1      16.890  11.374   1.857  1.00  0.00     0.286 C
BRANCH  17  18
HETATM   18  N1  UNL     1      17.192  10.114   1.256  1.00  0.00     0.080 N
HETATM   19  C12 UNL     1      16.084   9.208   1.137  1.00  0.00     0.309 C
HETATM   20  C13 UNL     1      17.708  10.378  -0.076  1.00  0.00     0.309 C
ENDBRANCH  17  18
ENDBRANCH   8  17
BRANCH   1  21
HETATM   21  C2  UNL     1      19.055  15.448   5.338  1.00  0.00    -0.021 C
HETATM   22  C1  UNL     1      18.304  16.428   5.821  1.00  0.00     0.008 C
ENDBRANCH   1  21
BRANCH  15  23
HETATM   23  O4  UNL     1      22.922  13.003   4.474  1.00  0.00    -0.288 OA
ATOM     24  H4  UNL     1      23.461  13.272   5.209  1.00  0.00     0.244 HD
ENDBRANCH  15  23
TORSDOF 4
ENDMDL