MODEL 1
REMARK VINA RESULT: -7.984522181      0.000      0.000
REMARK  4 active torsions:
REMARK  status: ('A' for Active; 'I' for Inactive)
REMARK    1  A    between atoms: C2_2  and  C3_4
REMARK    2  A    between atoms: C3_4  and  O3_6
REMARK    3  A    between atoms: O3_6  and  C4_7
REMARK    4  A    between atoms: C14_19  and  O6_20
ROOT
HETATM    1  C4  UNL     1      18.106  14.299   3.681  1.00  0.00     0.139 C
HETATM    2  C5  UNL     1      18.492  15.663   3.379  1.00  0.00     0.040 C
HETATM    3  C6  UNL     1      19.858  16.107   3.273  1.00  0.00     0.020 C
HETATM    4  C7  UNL     1      20.313  16.604   4.671  1.00  0.00     0.010 C
HETATM    5  C8  UNL     1      21.190  15.455   5.206  1.00  0.00     0.044 C
HETATM    6  C9  UNL     1      21.193  14.423   4.160  1.00  0.00     0.117 C
HETATM    7  O4  UNL     1      22.466  13.952   3.779  1.00  0.00    -0.340 OA
HETATM    8  C10 UNL     1      22.551  14.068   2.392  1.00  0.00     0.158 C
HETATM    9  C11 UNL     1      23.002  12.829   1.693  1.00  0.00     0.078 C
HETATM   10  C12 UNL     1      23.619  15.129   2.081  1.00  0.00     0.078 C
HETATM   11  O5  UNL     1      21.274  14.523   1.957  1.00  0.00    -0.347 OA
HETATM   12  C13 UNL     1      20.997  15.346   2.943  1.00  0.00     0.166 C
HETATM   13  C14 UNL     1      20.300  13.299   4.247  1.00  0.00     0.161 C
HETATM   14  C15 UNL     1      18.877  13.490   4.646  1.00  0.00     0.043 C
HETATM   15  C16 UNL     1      18.625  13.749   6.095  1.00  0.00     0.015 C
ENDROOT
BRANCH   1  16
HETATM   16  O3  UNL     1      16.748  14.300   4.156  1.00  0.00    -0.309 OA
BRANCH  16  17
HETATM   17  C3  UNL     1      15.795  13.407   3.751  1.00  0.00     0.329 C
HETATM   18  O2  UNL     1      14.673  13.897   3.383  1.00  0.00    -0.256 OA
BRANCH  17  19
HETATM   19  C2  UNL     1      16.014  11.978   3.729  1.00  0.00     0.220 C
HETATM   20  C1  UNL     1      16.576  11.340   2.525  1.00  0.00     0.103 C
HETATM   21  O1  UNL     1      15.728  11.283   4.722  1.00  0.00    -0.287 OA
ENDBRANCH  17  19
ENDBRANCH  16  17
ENDBRANCH   1  16
BRANCH  13  22
HETATM   22  O6  UNL     1      20.217  12.656   2.985  1.00  0.00    -0.392 OA
ATOM     23  H6  UNL     1      19.310  12.617   2.704  1.00  0.00     0.210 HD
ENDBRANCH  13  22
TORSDOF 4
ENDMDL