MODEL 4
REMARK VINA RESULT: -5.014049006     10.435     13.148
REMARK  3 active torsions:
REMARK  status: ('A' for Active; 'I' for Inactive)
REMARK    1  A    between atoms: O1_2  and  C2_3
REMARK    2  A    between atoms: C12_15  and  O4_16
REMARK    3  A    between atoms: C15_21  and  O6_22
ROOT
HETATM    1  C2  UNL     1      10.667  12.013  -1.939  1.00  0.00     0.190 C
HETATM    2  C3  UNL     1       9.594  11.616  -1.331  1.00  0.00     0.040 C
HETATM    3  C4  UNL     1       8.716  10.517  -1.611  1.00  0.00    -0.035 C
HETATM    4  C5  UNL     1       8.166  10.347  -2.869  1.00  0.00     0.024 C
HETATM    5  C6  UNL     1       8.750   9.619  -0.520  1.00  0.00    -0.002 C
HETATM    6  C7  UNL     1       9.684  10.023   0.611  1.00  0.00     0.096 C
HETATM    7  C8  UNL     1      10.260   8.708   0.985  1.00  0.00     0.203 C
HETATM    8  O2  UNL     1       9.528   7.754   1.414  1.00  0.00    -0.288 OA
HETATM    9  C9  UNL     1      11.667   8.457   0.879  1.00  0.00     0.201 C
HETATM   10  O3  UNL     1      12.151   7.402   0.355  1.00  0.00    -0.289 OA
HETATM   11  C10 UNL     1      12.567   9.541   1.434  1.00  0.00     0.089 C
HETATM   12  C11 UNL     1      13.798   9.720   0.605  1.00  0.00     0.021 C
HETATM   13  C12 UNL     1      11.736  10.792   1.586  1.00  0.00     0.137 C
HETATM   14  C13 UNL     1      10.810  10.960   0.358  1.00  0.00     0.063 C
HETATM   15  C14 UNL     1      10.708  12.431   0.232  1.00  0.00     0.172 C
HETATM   16  O5  UNL     1      11.194  13.039  -1.099  1.00  0.00    -0.321 OA
HETATM   17  C15 UNL     1       9.262  12.704  -0.289  1.00  0.00     0.189 C
ENDROOT
BRANCH   1  18
HETATM   18  O1  UNL     1      11.093  11.411  -3.096  1.00  0.00    -0.335 OA
HETATM   19  C1  UNL     1      11.129  12.182  -4.295  1.00  0.00     0.212 C
ENDBRANCH   1  18
BRANCH  17  20
HETATM   20  O6  UNL     1       8.305  12.407   0.592  1.00  0.00    -0.383 OA
HETATM   21  C16 UNL     1       8.275  13.385   1.599  1.00  0.00     0.202 C
ENDBRANCH  17  20
BRANCH  13  22
HETATM   22  O4  UNL     1      12.504  11.913   1.802  1.00  0.00    -0.394 OA
ATOM     23  H4  UNL     1      12.274  12.363   2.606  1.00  0.00     0.210 HD
ENDBRANCH  13  22
TORSDOF 3
ENDMDL