MODEL 1
REMARK VINA RESULT: -7.867008982      0.000      0.000
REMARK  6 active torsions:
REMARK  status: ('A' for Active; 'I' for Inactive)
REMARK    1  A    between atoms: O1_2  and  C2_3
REMARK    2  A    between atoms: C5_6  and  O2_7
REMARK    3  A    between atoms: O2_7  and  C6_8
REMARK       I    between atoms: C6_8  and  N1_10
REMARK    4  A    between atoms: N1_10  and  C8_12
REMARK    5  A    between atoms: C13_17  and  O4_18
REMARK    6  A    between atoms: O4_18  and  C14_19
ROOT
HETATM    1  C2  UNL     1       6.229   8.858  11.006  1.00  0.00     0.116 A
HETATM    2  C3  UNL     1       6.474   7.726  10.207  1.00  0.00     0.141 A
HETATM    3  C4  UNL     1       7.711   7.135  10.123  1.00  0.00     0.144 A
HETATM    4  C5  UNL     1       8.740   7.687  10.857  1.00  0.00     0.151 A
HETATM    5  C11 UNL     1       8.565   8.787  11.650  1.00  0.00     0.118 A
HETATM    6  C12 UNL     1       7.272   9.347  11.694  1.00  0.00     0.044 A
HETATM    7  C13 UNL     1       7.162  10.554  12.550  1.00  0.00     0.173 C
HETATM    8  C16 UNL     1       7.874  10.320  13.878  1.00  0.00     0.075 C
HETATM    9  C17 UNL     1       9.284   9.828  13.698  1.00  0.00     0.063 C
HETATM   10  C18 UNL     1       9.604   8.745  14.733  1.00  0.00     0.046 C
HETATM   11  C19 UNL     1      10.220  11.015  13.928  1.00  0.00     0.046 C
HETATM   12  O6  UNL     1       9.573   9.364  12.398  1.00  0.00    -0.337 OA
HETATM   13  O7  UNL     1       7.600   6.060   9.261  1.00  0.00    -0.320 OA
HETATM   14  C20 UNL     1       6.226   5.780   9.101  1.00  0.00     0.352 C
HETATM   15  O8  UNL     1       5.606   7.012   9.398  1.00  0.00    -0.320 OA
ENDROOT
BRANCH   4  16
HETATM   16  O2  UNL     1       9.982   7.088  10.767  1.00  0.00    -0.255 OA
BRANCH  16  17
HETATM   17  C6  UNL     1      10.690   7.000   9.578  1.00  0.00     0.368 C
HETATM   18  O3  UNL     1      10.658   7.923   8.751  1.00  0.00    -0.238 OA
HETATM   19  N1  UNL     1      11.449   5.829   9.336  1.00  0.00    -0.328 N
HETATM   20  C7  UNL     1      12.188   5.730   8.100  1.00  0.00     0.155 C
BRANCH  19  21
HETATM   21  C8  UNL     1      11.482   4.745  10.317  1.00  0.00     0.080 C
HETATM   22  C9  UNL     1      10.294   3.814  10.114  1.00  0.00     0.032 C
HETATM   23  C10 UNL     1      12.784   3.994  10.274  1.00  0.00     0.032 C
ENDBRANCH  19  21
ENDBRANCH  16  17
ENDBRANCH   4  16
BRANCH   1  24
HETATM   24  O1  UNL     1       4.958   9.403  11.047  1.00  0.00    -0.352 OA
HETATM   25  C1  UNL     1       3.925   8.510  11.511  1.00  0.00     0.210 C
ENDBRANCH   1  24
BRANCH   7  26
HETATM   26  O4  UNL     1       5.915  11.123  12.652  1.00  0.00    -0.311 OA
BRANCH  26  27
HETATM   27  C14 UNL     1       5.648  12.468  12.414  1.00  0.00     0.255 C
HETATM   28  C15 UNL     1       4.646  12.849  11.392  1.00  0.00     0.126 C
HETATM   29  O5  UNL     1       6.270  13.331  13.078  1.00  0.00    -0.266 OA
ENDBRANCH  26  27
ENDBRANCH   7  26
TORSDOF 6
ENDMDL