MODEL 5
REMARK VINA RESULT: -8.021948889      2.447      4.235
REMARK  7 active torsions:
REMARK  status: ('A' for Active; 'I' for Inactive)
REMARK    1  A    between atoms: O1_2  and  C2_3
REMARK    2  A    between atoms: C7_8  and  O2_9
REMARK    3  A    between atoms: O2_9  and  C8_10
REMARK    4  A    between atoms: C11_14  and  O4_15
REMARK    5  A    between atoms: O4_15  and  C12_16
REMARK    6  A    between atoms: C15_20  and  O6_21
REMARK    7  A    between atoms: O6_21  and  C16_22
ROOT
HETATM    1  C2  UNL     1      12.892   6.123   8.027  1.00  0.00     0.154 C
HETATM    2  C3  UNL     1      14.032   6.337   8.998  1.00  0.00     0.047 C
HETATM    3  C4  UNL     1      13.714   7.428   9.964  1.00  0.00     0.056 C
HETATM    4  C5  UNL     1      12.324   7.264  10.481  1.00  0.00    -0.036 C
HETATM    5  C6  UNL     1      11.389   6.507   9.961  1.00  0.00     0.016 C
HETATM    6  C7  UNL     1      11.639   5.684   8.712  1.00  0.00     0.184 C
HETATM    7  C10 UNL     1      11.989   8.058  11.680  1.00  0.00     0.038 A
HETATM    8  C11 UNL     1      10.781   8.647  11.813  1.00  0.00     0.095 A
HETATM    9  C14 UNL     1      10.550   9.388  12.985  1.00  0.00     0.075 A
HETATM   10  C15 UNL     1      11.508   9.514  13.967  1.00  0.00     0.084 A
HETATM   11  C18 UNL     1      12.740   8.892  13.789  1.00  0.00     0.075 A
HETATM   12  C19 UNL     1      12.993   8.171  12.666  1.00  0.00     0.086 A
HETATM   13  O8  UNL     1      14.156   7.521  12.375  1.00  0.00    -0.339 OA
HETATM   14  C20 UNL     1      14.730   7.506  11.076  1.00  0.00     0.068 C
HETATM   15  C21 UNL     1      15.516   8.790  10.933  1.00  0.00     0.047 C
HETATM   16  C22 UNL     1      15.719   6.369  10.938  1.00  0.00     0.047 C
ENDROOT
BRANCH   6  17
HETATM   17  O2  UNL     1      11.525   4.324   8.963  1.00  0.00    -0.310 OA
BRANCH  17  18
HETATM   18  C8  UNL     1      11.795   3.700  10.157  1.00  0.00     0.255 C
HETATM   19  C9  UNL     1      13.156   3.339  10.543  1.00  0.00     0.126 C
HETATM   20  O3  UNL     1      10.836   3.444  10.914  1.00  0.00    -0.266 OA
ENDBRANCH  17  18
ENDBRANCH   6  17
BRANCH   1  21
HETATM   21  O1  UNL     1      12.704   7.304   7.310  1.00  0.00    -0.388 OA
HETATM   22  C1  UNL     1      11.356   7.516   7.017  1.00  0.00     0.202 C
ENDBRANCH   1  21
BRANCH   8  23
HETATM   23  O4  UNL     1       9.786   8.570  10.887  1.00  0.00    -0.278 OA
BRANCH  23  24
HETATM   24  C12 UNL     1       8.444   8.289  11.145  1.00  0.00     0.260 C
HETATM   25  C13 UNL     1       8.083   7.048  11.854  1.00  0.00     0.126 C
HETATM   26  O5  UNL     1       7.571   9.089  10.776  1.00  0.00    -0.265 OA
ENDBRANCH  23  24
ENDBRANCH   8  23
BRANCH  10  27
HETATM   27  O6  UNL     1      11.194  10.261  15.087  1.00  0.00    -0.279 OA
BRANCH  27  28
HETATM   28  C16 UNL     1      11.902  10.170  16.274  1.00  0.00     0.260 C
HETATM   29  C17 UNL     1      12.971  11.158  16.569  1.00  0.00     0.126 C
HETATM   30  O7  UNL     1      11.595   9.242  17.047  1.00  0.00    -0.265 OA
ENDBRANCH  27  28
ENDBRANCH  10  27
TORSDOF 7
ENDMDL