MODEL 5
REMARK VINA RESULT: -7.768042164      2.647      6.572
REMARK  4 active torsions:
REMARK  status: ('A' for Active; 'I' for Inactive)
REMARK    1  A    between atoms: C2_2  and  C3_3
REMARK    2  A    between atoms: C3_3  and  C4_4
REMARK    3  A    between atoms: C7_7  and  C8_8
REMARK    4  A    between atoms: C8_8  and  O2_10
ROOT
HETATM    1  C4  UNL     1      10.893   9.288  12.990  1.00  0.00    -0.002 C
HETATM    2  C5  UNL     1      12.183   8.550  12.866  1.00  0.00    -0.018 C
HETATM    3  C6  UNL     1      12.243   8.067  11.645  1.00  0.00    -0.004 C
HETATM    4  C7  UNL     1      11.032   8.421  10.848  1.00  0.00     0.127 C
HETATM    5  C10 UNL     1      11.017   9.763  10.239  1.00  0.00     0.288 C
HETATM    6  O3  UNL     1      11.945  10.643  10.670  1.00  0.00    -0.359 OA
HETATM    7  C11 UNL     1      11.722  11.365  11.788  1.00  0.00     0.176 C
HETATM    8  C12 UNL     1      11.243  10.714  13.010  1.00  0.00     0.019 C
HETATM    9  C13 UNL     1      10.312  11.661  13.744  1.00  0.00     0.013 C
HETATM   10  O4  UNL     1       9.753  10.335  10.473  1.00  0.00    -0.297 OA
HETATM   11  C14 UNL     1       9.041   9.536  11.309  1.00  0.00     0.347 C
HETATM   12  O5  UNL     1       8.173   8.772  10.494  1.00  0.00    -0.165 OA
HETATM   13  O6  UNL     1       7.024   9.391  10.313  1.00  0.00    -0.192 OA
HETATM   14  C15 UNL     1       6.281   9.155  11.493  1.00  0.00     0.230 C
HETATM   15  C16 UNL     1       5.098  10.048  11.613  1.00  0.00     0.074 C
HETATM   16  C17 UNL     1       3.792   9.294  11.397  1.00  0.00     0.006 C
HETATM   17  C18 UNL     1       3.950   8.417  10.181  1.00  0.00     0.000 C
HETATM   18  C19 UNL     1       4.914   7.318  10.488  1.00  0.00     0.006 C
HETATM   19  C20 UNL     1       5.949   7.689  11.510  1.00  0.00     0.074 C
HETATM   20  O7  UNL     1       7.172   9.395  12.541  1.00  0.00    -0.192 OA
HETATM   21  O8  UNL     1       8.151  10.167  12.162  1.00  0.00    -0.165 OA
HETATM   22  C21 UNL     1      10.062   8.675  11.971  1.00  0.00     0.124 C
ENDROOT
BRANCH   1  23
HETATM   23  C3  UNL     1      10.352   8.864  14.347  1.00  0.00     0.041 C
BRANCH  23  24
HETATM   24  C2  UNL     1      11.412   8.490  15.299  1.00  0.00    -0.036 C
HETATM   25  C1  UNL     1      11.722   9.233  16.354  1.00  0.00     0.007 C
ENDBRANCH  23  24
ENDBRANCH   1  23
BRANCH   4  26
HETATM   26  C8  UNL     1      10.773   7.281   9.992  1.00  0.00     0.276 C
HETATM   27  O1  UNL     1      10.431   6.121  10.285  1.00  0.00    -0.264 OA
BRANCH  26  28
HETATM   28  O2  UNL     1      10.927   7.488   8.603  1.00  0.00    -0.325 OA
HETATM   29  C9  UNL     1      12.013   6.940   7.889  1.00  0.00     0.213 C
ENDBRANCH  26  28
ENDBRANCH   4  26
TORSDOF 4
ENDMDL