MODEL 2
REMARK VINA RESULT: -7.991155425      0.479      1.021
REMARK  8 active torsions:
REMARK  status: ('A' for Active; 'I' for Inactive)
REMARK    1  A    between atoms: C8_9  and  O2_11
REMARK    2  A    between atoms: O2_11  and  C10_12
REMARK    3  A    between atoms: C10_12  and  O4_14
REMARK    4  A    between atoms: C12_16  and  O5_17
REMARK    5  A    between atoms: O5_17  and  O6_18
REMARK    6  A    between atoms: C18_25  and  C19_26
REMARK    7  A    between atoms: C19_26  and  O8_28
REMARK    8  A    between atoms: O8_28  and  C20_29
ROOT
HETATM    1  C1  UNL     1       9.091   4.086  10.414  1.00  0.00     0.015 C
HETATM    2  C2  UNL     1       9.366   5.367  10.254  1.00  0.00    -0.075 C
HETATM    3  C3  UNL     1       8.210   6.218   9.790  1.00  0.00     0.039 C
HETATM    4  C4  UNL     1       7.676   6.896  11.080  1.00  0.00    -0.007 C
HETATM    5  C5  UNL     1       6.817   8.020  10.712  1.00  0.00     0.011 C
HETATM    6  C6  UNL     1       8.849   7.062  11.938  1.00  0.00     0.035 A
HETATM    7  C7  UNL     1       9.423   8.140  12.671  1.00  0.00     0.144 A
HETATM    8  O1  UNL     1       8.692   9.269  12.949  1.00  0.00    -0.345 OA
HETATM    9  C8  UNL     1       9.450  10.331  13.420  1.00  0.00     0.204 C
HETATM   10  C9  UNL     1       8.493  11.482  13.658  1.00  0.00     0.083 C
HETATM   11  C12 UNL     1      10.420  10.822  12.334  1.00  0.00     0.245 C
HETATM   12  C13 UNL     1       9.732  10.430  11.047  1.00  0.00     0.010 C
HETATM   13  C14 UNL     1       9.483   9.210  10.608  1.00  0.00    -0.015 C
HETATM   14  C15 UNL     1       9.825   7.946  11.281  1.00  0.00     0.015 A
HETATM   15  C16 UNL     1      10.968   7.211  10.727  1.00  0.00     0.014 C
HETATM   16  C17 UNL     1      11.358   7.750   9.365  1.00  0.00     0.012 C
HETATM   17  C18 UNL     1      10.756   5.723  10.594  1.00  0.00     0.118 C
ENDROOT
BRANCH   9  18
HETATM   18  O2  UNL     1      10.122  10.062  14.617  1.00  0.00    -0.257 OA
BRANCH  18  19
HETATM   19  C10 UNL     1      11.493  10.094  14.667  1.00  0.00     0.408 C
HETATM   20  O3  UNL     1      12.129   9.030  14.461  1.00  0.00    -0.229 OA
BRANCH  19  21
HETATM   21  O4  UNL     1      12.238  11.231  14.931  1.00  0.00    -0.303 OA
HETATM   22  C11 UNL     1      11.783  12.198  15.863  1.00  0.00     0.215 C
ENDBRANCH  19  21
ENDBRANCH  18  19
ENDBRANCH   9  18
BRANCH  11  23
HETATM   23  O5  UNL     1      10.520  12.187  12.424  1.00  0.00    -0.228 OA
BRANCH  23  24
HETATM   24  O6  UNL     1      11.760  12.575  12.254  1.00  0.00    -0.250 OA
ATOM     25  H6  UNL     1      12.346  12.090  12.823  1.00  0.00     0.253 HD
ENDBRANCH  23  24
ENDBRANCH  11  23
BRANCH  17  26
HETATM   26  C19 UNL     1      11.685   5.047   9.678  1.00  0.00     0.267 C
HETATM   27  O7  UNL     1      11.428   4.963   8.434  1.00  0.00    -0.264 OA
BRANCH  26  28
HETATM   28  O8  UNL     1      12.887   4.459  10.045  1.00  0.00    -0.321 OA
BRANCH  28  29
HETATM   29  C20 UNL     1      12.967   3.111  10.486  1.00  0.00     0.174 C
HETATM   30  C21 UNL     1      14.345   2.541  10.410  1.00  0.00     0.034 C
ENDBRANCH  28  29
ENDBRANCH  26  28
ENDBRANCH  17  26
TORSDOF 8
ENDMDL