MODEL 3
REMARK VINA RESULT: -9.171505591      1.822      2.407
REMARK  6 active torsions:
REMARK  status: ('A' for Active; 'I' for Inactive)
REMARK    1  A    between atoms: N3_11  and  N4_12
REMARK    2  A    between atoms: N4_12  and  C9_13
REMARK    3  A    between atoms: C9_13  and  C10_14
REMARK    4  A    between atoms: C9_13  and  C16_20
REMARK    5  A    between atoms: C19_23  and  N5_24
REMARK    6  A    between atoms: C21_28  and  N6_29
ROOT
HETATM    1  N1  UNL     1      14.578   3.300  10.277  1.00  0.00    -0.195 NA
HETATM    2  C1  UNL     1      13.539   3.797  10.163  1.00  0.00     0.087 C
HETATM    3  C2  UNL     1      12.201   4.416  10.031  1.00  0.00     0.165 C
HETATM    4  C3  UNL     1      11.234   3.488  10.541  1.00  0.00     0.087 C
HETATM    5  N2  UNL     1      10.468   2.742  10.948  1.00  0.00    -0.195 NA
HETATM    6  C4  UNL     1      11.986   4.793   8.577  1.00  0.00     0.074 C
HETATM    7  C5  UNL     1      12.028   6.285   8.628  1.00  0.00     0.141 C
HETATM    8  C6  UNL     1      13.369   6.720   9.050  1.00  0.00    -0.001 C
HETATM    9  C7  UNL     1      13.514   6.394  10.347  1.00  0.00     0.002 C
HETATM   10  C8  UNL     1      12.249   5.744  10.746  1.00  0.00     0.175 C
HETATM   11  N3  UNL     1      11.297   6.515   9.903  1.00  0.00    -0.244 N
ENDROOT
BRANCH  11  12
HETATM   12  N4  UNL     1      10.245   7.115  10.270  1.00  0.00    -0.325 NA
BRANCH  12  13
HETATM   13  C9  UNL     1       9.347   7.810  10.734  1.00  0.00     0.154 C
BRANCH  13  14
HETATM   14  C10 UNL     1       7.977   7.555  10.319  1.00  0.00     0.008 A
HETATM   15  C11 UNL     1       6.922   8.399  10.576  1.00  0.00     0.015 A
HETATM   16  C12 UNL     1       5.652   8.054  10.184  1.00  0.00     0.001 A
HETATM   17  C13 UNL     1       5.373   6.855   9.517  1.00  0.00     0.000 A
HETATM   18  C14 UNL     1       6.423   6.016   9.259  1.00  0.00     0.001 A
HETATM   19  C15 UNL     1       7.685   6.352   9.645  1.00  0.00     0.015 A
ENDBRANCH  13  14
BRANCH  13  20
HETATM   20  C16 UNL     1       9.745   8.919  11.595  1.00  0.00     0.041 A
HETATM   21  C17 UNL     1      10.381   9.989  10.886  1.00  0.00     0.020 A
HETATM   22  C18 UNL     1      10.592  11.197  11.468  1.00  0.00     0.037 A
HETATM   23  C19 UNL     1      10.210  11.469  12.774  1.00  0.00     0.105 A
HETATM   24  C20 UNL     1       9.612  10.437  13.434  1.00  0.00     0.073 A
HETATM   25  C21 UNL     1       9.388   9.184  12.858  1.00  0.00     0.118 A
BRANCH  23  26
HETATM   26  N5  UNL     1      10.440  12.743  13.354  1.00  0.00    -0.116 N
HETATM   27  O1  UNL     1       9.775  13.180  14.310  1.00  0.00    -0.532 OA
HETATM   28  O2  UNL     1      11.433  13.546  12.854  1.00  0.00    -0.532 OA
ENDBRANCH  23  26
BRANCH  25  29
HETATM   29  N6  UNL     1       8.947   8.130  13.746  1.00  0.00    -0.115 N
HETATM   30  O3  UNL     1       8.436   7.084  13.338  1.00  0.00    -0.532 OA
HETATM   31  O4  UNL     1       9.196   8.287  15.072  1.00  0.00    -0.532 OA
ENDBRANCH  25  29
ENDBRANCH  13  20
ENDBRANCH  12  13
ENDBRANCH  11  12
TORSDOF 6
ENDMDL