MODEL 4
REMARK VINA RESULT: -8.687814439      2.598      6.446
REMARK  8 active torsions:
REMARK  status: ('A' for Active; 'I' for Inactive)
REMARK    1  A    between atoms: O1_2  and  C2_3
REMARK    2  A    between atoms: C2_3  and  C3_5
REMARK    3  A    between atoms: C8_10  and  O3_11
REMARK    4  A    between atoms: O3_11  and  C9_12
REMARK    5  A    between atoms: C9_12  and  O5_14
REMARK    6  A    between atoms: O5_14  and  C10_15
REMARK    7  A    between atoms: C10_15  and  C13_18
REMARK    8  A    between atoms: C16_25  and  C17_26
ROOT
HETATM    1  C13 UNL     1      12.112   9.698  11.278  1.00  0.00     0.233 C
HETATM    2  N1  UNL     1      11.988  11.067  11.697  1.00  0.00    -0.050 N
ATOM      3  H11 UNL     1      12.186  11.825  11.044  1.00  0.00     0.279 HD
ATOM      4  H12 UNL     1      12.658  11.467  12.355  1.00  0.00     0.279 HD
HETATM    5  C14 UNL     1      10.628  10.800  12.114  1.00  0.00     0.302 C
HETATM    6  C15 UNL     1      10.211  11.386  13.363  1.00  0.00     0.093 C
HETATM    7  N2  UNL     1       9.888  11.858  14.368  1.00  0.00    -0.195 NA
HETATM    8  C16 UNL     1      10.950   9.323  12.142  1.00  0.00     0.097 C
ENDROOT
BRANCH   8   9
HETATM    9  C17 UNL     1       9.918   8.478  11.471  1.00  0.00    -0.049 A
HETATM   10  C18 UNL     1       8.775   9.022  10.915  1.00  0.00     0.008 A
HETATM   11  C19 UNL     1       7.810   8.283  10.293  1.00  0.00     0.007 A
HETATM   12  C20 UNL     1       7.964   6.921  10.207  1.00  0.00    -0.062 A
HETATM   13  C21 UNL     1       6.932   6.065   9.534  1.00  0.00     0.048 C
HETATM   14  C22 UNL     1       9.099   6.329  10.754  1.00  0.00     0.007 A
HETATM   15  C23 UNL     1      10.055   7.107  11.374  1.00  0.00     0.008 A
ENDBRANCH   8   9
BRANCH   1  16
HETATM   16  C10 UNL     1      13.420   9.023  11.574  1.00  0.00     0.095 C
HETATM   17  C11 UNL     1      14.499   9.507  10.638  1.00  0.00     0.048 C
HETATM   18  C12 UNL     1      13.774   9.359  13.021  1.00  0.00     0.048 C
BRANCH  16  19
HETATM   19  O5  UNL     1      13.233   7.616  11.488  1.00  0.00    -0.285 OA
BRANCH  19  20
HETATM   20  C9  UNL     1      14.238   6.734  11.152  1.00  0.00     0.412 C
HETATM   21  O4  UNL     1      15.241   6.623  11.881  1.00  0.00    -0.229 OA
BRANCH  20  22
HETATM   22  O3  UNL     1      14.200   5.931  10.007  1.00  0.00    -0.255 OA
BRANCH  22  23
HETATM   23  C8  UNL     1      13.223   4.975   9.810  1.00  0.00     0.097 A
HETATM   24  C3  UNL     1      12.283   5.145   8.830  1.00  0.00     0.073 A
HETATM   25  C4  UNL     1      11.301   4.169   8.648  1.00  0.00     0.020 A
HETATM   26  C5  UNL     1      11.252   3.034   9.430  1.00  0.00     0.001 A
HETATM   27  C6  UNL     1      12.192   2.860  10.412  1.00  0.00     0.003 A
HETATM   28  C7  UNL     1      13.160   3.819  10.596  1.00  0.00     0.038 A
BRANCH  24  29
HETATM   29  C2  UNL     1      12.332   6.333   7.995  1.00  0.00     0.295 C
HETATM   30  O2  UNL     1      12.887   6.420   6.892  1.00  0.00    -0.259 OA
BRANCH  29  31
HETATM   31  O1  UNL     1      11.701   7.478   8.470  1.00  0.00    -0.322 OA
HETATM   32  C1  UNL     1      10.624   8.092   7.788  1.00  0.00     0.213 C
ENDBRANCH  29  31
ENDBRANCH  24  29
ENDBRANCH  22  23
ENDBRANCH  20  22
ENDBRANCH  19  20
ENDBRANCH  16  19
ENDBRANCH   1  16
TORSDOF 8
ENDMDL