MODEL 1
REMARK VINA RESULT: -10.223732804      0.000      0.000
REMARK  6 active torsions:
REMARK  status: ('A' for Active; 'I' for Inactive)
REMARK    1  A    between atoms: C2_2  and  O2_4
REMARK    2  A    between atoms: O2_4  and  C3_5
REMARK    3  A    between atoms: C9_13  and  O5_14
REMARK    4  A    between atoms: O5_14  and  C10_15
REMARK    5  A    between atoms: C10_15  and  C11_17
REMARK    6  A    between atoms: C17_23  and  C18_24
ROOT
HETATM    1  C3  UNL     1      10.583  10.708  13.282  1.00  0.00     0.305 C
HETATM    2  O3  UNL     1      11.065   9.376  13.268  1.00  0.00    -0.341 OA
HETATM    3  C4  UNL     1       9.929   9.003  12.617  1.00  0.00     0.226 C
HETATM    4  C5  UNL     1       9.991  10.355  11.933  1.00  0.00     0.031 C
HETATM    5  C6  UNL     1       9.490  10.193  10.732  1.00  0.00     0.149 C
HETATM    6  O4  UNL     1       9.155   8.853  10.460  1.00  0.00    -0.320 OA
HETATM    7  C7  UNL     1       9.951   8.119  11.429  1.00  0.00     0.234 C
HETATM    8  C8  UNL     1       9.153   6.829  11.677  1.00  0.00     0.110 C
HETATM    9  C9  UNL     1       9.077   6.153  10.319  1.00  0.00     0.174 C
HETATM   10  C17 UNL     1      10.377   6.131   9.622  1.00  0.00     0.223 C
HETATM   11  O7  UNL     1      11.052   7.359   9.697  1.00  0.00    -0.225 OA
HETATM   12  O8  UNL     1      11.173   7.759  10.944  1.00  0.00    -0.196 OA
ENDROOT
BRANCH   9  13
HETATM   13  O5  UNL     1       8.105   6.886   9.536  1.00  0.00    -0.309 OA
BRANCH  13  14
HETATM   14  C10 UNL     1       6.765   6.583   9.590  1.00  0.00     0.293 C
HETATM   15  O6  UNL     1       6.390   5.468   9.143  1.00  0.00    -0.259 OA
BRANCH  14  16
HETATM   16  C11 UNL     1       5.770   7.516  10.149  1.00  0.00     0.039 A
HETATM   17  C12 UNL     1       6.121   8.603  10.889  1.00  0.00     0.017 A
HETATM   18  C13 UNL     1       5.153   9.460  11.399  1.00  0.00     0.001 A
HETATM   19  C14 UNL     1       3.816   9.239  11.175  1.00  0.00     0.000 A
HETATM   20  C15 UNL     1       3.466   8.142  10.430  1.00  0.00     0.001 A
HETATM   21  C16 UNL     1       4.432   7.291   9.923  1.00  0.00     0.017 A
ENDBRANCH  14  16
ENDBRANCH  13  14
ENDBRANCH   9  13
BRANCH   1  22
HETATM   22  O2  UNL     1       9.529  10.939  14.192  1.00  0.00    -0.286 OA
BRANCH  22  23
HETATM   23  C2  UNL     1       8.538  11.865  13.963  1.00  0.00     0.257 C
HETATM   24  C1  UNL     1       8.789  13.308  13.723  1.00  0.00     0.126 C
HETATM   25  O1  UNL     1       7.341  11.478  13.954  1.00  0.00    -0.266 OA
ENDBRANCH  22  23
ENDBRANCH   1  22
BRANCH  10  26
HETATM   26  C18 UNL     1      11.275   5.012   9.997  1.00  0.00    -0.024 A
HETATM   27  C19 UNL     1      10.776   3.806  10.371  1.00  0.00     0.010 A
HETATM   28  C20 UNL     1      11.651   2.767  10.714  1.00  0.00     0.001 A
HETATM   29  C21 UNL     1      13.013   2.925  10.684  1.00  0.00     0.000 A
HETATM   30  C22 UNL     1      13.486   4.153  10.304  1.00  0.00     0.001 A
HETATM   31  C23 UNL     1      12.658   5.189   9.964  1.00  0.00     0.010 A
ENDBRANCH  10  26
TORSDOF 6
ENDMDL