MODEL 3
REMARK VINA RESULT: -7.918078274      1.019      1.116
REMARK  8 active torsions:
REMARK  status: ('A' for Active; 'I' for Inactive)
REMARK    1  A    between atoms: C3_3  and  C5_5
REMARK    2  A    between atoms: C5_5  and  O2_7
REMARK    3  A    between atoms: O2_7  and  C6_8
REMARK    4  A    between atoms: C6_8  and  O3_9
REMARK    5  A    between atoms: C6_8  and  N1_15
REMARK    6  A    between atoms: O3_9  and  C7_10
REMARK    7  A    between atoms: C7_10  and  O5_12
REMARK    8  A    between atoms: O5_12  and  C8_13
ROOT
HETATM    1  N1  UNL     1      11.560   7.736  10.686  1.00  0.00    -0.355 N
HETATM    2  C10 UNL     1      11.148   8.811   9.859  1.00  0.00     0.148 C
HETATM    3  C11 UNL     1      10.718   9.952  10.764  1.00  0.00     0.187 C
HETATM    4  O6  UNL     1      10.177   9.545  11.950  1.00  0.00    -0.382 OA
HETATM    5  C12 UNL     1      11.055   8.816  12.756  1.00  0.00     0.146 C
HETATM    6  C13 UNL     1      11.527   9.705  13.835  1.00  0.00     0.050 C
HETATM    7  C14 UNL     1      12.989   9.650  14.153  1.00  0.00     0.017 C
HETATM    8  C15 UNL     1      13.256   8.501  15.112  1.00  0.00     0.023 C
HETATM    9  C16 UNL     1      13.343  10.921  14.906  1.00  0.00     0.023 C
HETATM   10  C17 UNL     1      13.799   9.590  12.945  1.00  0.00     0.154 C
HETATM   11  O7  UNL     1      14.817  10.246  12.854  1.00  0.00    -0.296 OA
HETATM   12  C18 UNL     1      13.405   8.742  11.825  1.00  0.00     0.188 C
HETATM   13  C19 UNL     1      14.462   7.712  11.661  1.00  0.00     0.073 C
HETATM   14  N2  UNL     1      15.290   6.912  11.544  1.00  0.00    -0.196 NA
HETATM   15  C20 UNL     1      12.077   8.077  11.968  1.00  0.00     0.137 C
ENDROOT
BRANCH   1  16
HETATM   16  C6  UNL     1      11.039   6.478  10.438  1.00  0.00     0.389 C
BRANCH  16  17
HETATM   17  O2  UNL     1      11.829   5.772   9.492  1.00  0.00    -0.267 OA
BRANCH  17  18
HETATM   18  C5  UNL     1      11.714   4.427   9.261  1.00  0.00     0.292 C
HETATM   19  O1  UNL     1      11.523   4.116   8.025  1.00  0.00    -0.259 OA
BRANCH  18  20
HETATM   20  C3  UNL     1      11.785   3.374  10.251  1.00  0.00     0.009 C
HETATM   21  C2  UNL     1      12.931   2.958  10.727  1.00  0.00    -0.018 C
HETATM   22  C1  UNL     1      14.202   3.528  10.288  1.00  0.00     0.036 C
HETATM   23  C4  UNL     1      10.537   2.723  10.767  1.00  0.00     0.054 C
ENDBRANCH  18  20
ENDBRANCH  17  18
ENDBRANCH  16  17
BRANCH  16  24
HETATM   24  O3  UNL     1       9.723   6.436   9.919  1.00  0.00    -0.247 OA
BRANCH  24  25
HETATM   25  C7  UNL     1       8.651   6.081  10.706  1.00  0.00     0.410 C
HETATM   26  O4  UNL     1       7.961   5.079  10.323  1.00  0.00    -0.229 OA
BRANCH  25  27
HETATM   27  O5  UNL     1       8.279   6.731  11.871  1.00  0.00    -0.298 OA
BRANCH  27  28
HETATM   28  C8  UNL     1       7.143   7.610  11.885  1.00  0.00     0.176 C
HETATM   29  C9  UNL     1       7.110   8.489  10.683  1.00  0.00     0.034 C
ENDBRANCH  27  28
ENDBRANCH  25  27
ENDBRANCH  24  25
ENDBRANCH  16  24
ENDBRANCH   1  16
TORSDOF 8
ENDMDL