MODEL 4
REMARK VINA RESULT: -8.297217862      0.861      1.561
REMARK  4 active torsions:
REMARK  status: ('A' for Active; 'I' for Inactive)
REMARK    1  A    between atoms: O1_2  and  C2_3
REMARK    2  A    between atoms: C2_3  and  C3_5
REMARK    3  A    between atoms: C3_5  and  C6_8
REMARK    4  A    between atoms: C18_26  and  C19_27
ROOT
HETATM    1  C6  UNL     1      13.336   8.118  10.726  1.00  0.00     0.284 C
HETATM    2  O3  UNL     1      12.951   9.268  11.542  1.00  0.00    -0.327 OA
HETATM    3  C7  UNL     1      11.604   9.118  11.543  1.00  0.00     0.300 C
HETATM    4  O4  UNL     1      11.422   9.193  10.215  1.00  0.00    -0.347 OA
HETATM    5  C8  UNL     1      10.493   8.542   9.576  1.00  0.00     0.190 C
HETATM    6  C9  UNL     1      10.960   7.783   8.313  1.00  0.00     0.043 C
HETATM    7  C10 UNL     1      11.933   6.709   8.611  1.00  0.00     0.071 C
HETATM    8  C11 UNL     1      11.685   6.455  10.092  1.00  0.00     0.167 C
HETATM    9  C12 UNL     1      11.990   4.932  10.214  1.00  0.00     0.079 C
HETATM   10  O5  UNL     1      12.553   7.052  10.827  1.00  0.00    -0.324 OA
HETATM   11  O6  UNL     1      10.295   6.469  10.285  1.00  0.00    -0.314 OA
HETATM   12  C13 UNL     1       9.773   7.717  10.565  1.00  0.00     0.230 C
HETATM   13  O7  UNL     1       9.807   7.730  11.881  1.00  0.00    -0.196 OA
HETATM   14  O8  UNL     1       9.655   8.667  12.701  1.00  0.00    -0.222 OA
HETATM   15  C14 UNL     1      10.477   9.726  12.171  1.00  0.00     0.142 C
HETATM   16  C15 UNL     1      10.862  10.575  13.338  1.00  0.00     0.054 C
HETATM   17  C16 UNL     1       9.373  10.319  11.320  1.00  0.00     0.047 C
HETATM   18  C17 UNL     1       8.231   9.498  10.922  1.00  0.00     0.014 C
HETATM   19  C18 UNL     1       8.381   8.095  10.338  1.00  0.00     0.057 C
ENDROOT
BRANCH   1  20
HETATM   20  C3  UNL     1      14.739   7.820  11.278  1.00  0.00     0.090 C
HETATM   21  C4  UNL     1      15.026   6.333  11.275  1.00  0.00     0.031 C
HETATM   22  C5  UNL     1      15.786   8.444  10.346  1.00  0.00     0.031 C
BRANCH  20  23
HETATM   23  C2  UNL     1      14.925   8.320  12.651  1.00  0.00     0.271 C
HETATM   24  O2  UNL     1      15.627   9.353  12.846  1.00  0.00    -0.264 OA
BRANCH  23  25
HETATM   25  O1  UNL     1      14.344   7.679  13.734  1.00  0.00    -0.326 OA
HETATM   26  C1  UNL     1      13.780   8.460  14.795  1.00  0.00     0.213 C
ENDBRANCH  23  25
ENDBRANCH  20  23
ENDBRANCH   1  20
BRANCH  19  27
HETATM   27  C19 UNL     1       7.311   7.161  10.771  1.00  0.00    -0.013 C
HETATM   28  C20 UNL     1       6.781   6.429   9.528  1.00  0.00     0.010 C
HETATM   29  C21 UNL     1       6.139   7.693  11.488  1.00  0.00     0.010 C
ENDBRANCH  19  27
TORSDOF 4
ENDMDL