MODEL 1
REMARK VINA RESULT: -8.037418088      0.000      0.000
REMARK  7 active torsions:
REMARK  status: ('A' for Active; 'I' for Inactive)
REMARK    1  A    between atoms: C3_3  and  C5_5
REMARK    2  A    between atoms: C5_5  and  O2_7
REMARK    3  A    between atoms: O2_7  and  C6_8
REMARK    4  A    between atoms: C14_18  and  C15_19
REMARK    5  A    between atoms: C15_19  and  O4_21
REMARK    6  A    between atoms: C17_23  and  O5_24
REMARK    7  A    between atoms: O5_24  and  C18_25
ROOT
HETATM    1  C6  UNL     1      11.600   7.613  11.284  1.00  0.00     0.165 C
HETATM    2  C7  UNL     1      12.777   7.851  10.434  1.00  0.00     0.120 C
HETATM    3  S1  UNL     1      13.455   9.495  10.765  1.00  0.00    -0.094 SA
HETATM    4  S2  UNL     1      11.753  10.195  11.848  1.00  0.00    -0.081 SA
HETATM    5  C8  UNL     1      10.670   8.754  11.417  1.00  0.00     0.080 C
HETATM    6  C9  UNL     1       9.821   9.098  10.285  1.00  0.00     0.029 C
HETATM    7  C10 UNL     1      10.342   8.718   8.912  1.00  0.00     0.016 C
HETATM    8  C11 UNL     1       8.406   8.687  10.321  1.00  0.00    -0.017 C
HETATM    9  C12 UNL     1       7.768   8.653  11.468  1.00  0.00    -0.071 C
HETATM   10  C13 UNL     1       6.321   8.231  11.485  1.00  0.00     0.044 C
HETATM   11  C14 UNL     1       8.478   9.016  12.695  1.00  0.00     0.145 C
HETATM   12  C17 UNL     1       9.886   8.519  12.682  1.00  0.00     0.172 C
ENDROOT
BRANCH   1  13
HETATM   13  O2  UNL     1      10.955   6.456  10.790  1.00  0.00    -0.310 OA
BRANCH  13  14
HETATM   14  C5  UNL     1      11.458   5.555   9.905  1.00  0.00     0.289 C
HETATM   15  O1  UNL     1      11.475   5.841   8.683  1.00  0.00    -0.260 OA
BRANCH  14  16
HETATM   16  C3  UNL     1      11.993   4.245  10.297  1.00  0.00     0.009 C
HETATM   17  C2  UNL     1      13.287   4.025  10.335  1.00  0.00    -0.018 C
HETATM   18  C1  UNL     1      13.862   2.714  10.726  1.00  0.00     0.036 C
HETATM   19  C4  UNL     1      11.091   3.123  10.665  1.00  0.00     0.054 C
ENDBRANCH  14  16
ENDBRANCH  13  14
ENDBRANCH   1  13
BRANCH  12  20
HETATM   20  O5  UNL     1      10.514   9.163  13.807  1.00  0.00    -0.313 OA
BRANCH  20  21
HETATM   21  C18 UNL     1      10.562   8.537  15.030  1.00  0.00     0.255 C
HETATM   22  C19 UNL     1      11.822   8.525  15.852  1.00  0.00     0.126 C
HETATM   23  O6  UNL     1       9.591   7.946  15.539  1.00  0.00    -0.266 OA
ENDBRANCH  20  21
ENDBRANCH  12  20
BRANCH  11  24
HETATM   24  C15 UNL     1       8.295  10.390  13.165  1.00  0.00     0.269 C
HETATM   25  O3  UNL     1       7.557  10.601  14.160  1.00  0.00    -0.264 OA
BRANCH  24  26
HETATM   26  O4  UNL     1       8.886  11.497  12.586  1.00  0.00    -0.326 OA
HETATM   27  C16 UNL     1       9.242  12.583  13.414  1.00  0.00     0.213 C
ENDBRANCH  24  26
ENDBRANCH  11  24
TORSDOF 7
ENDMDL