MODEL 2
REMARK VINA RESULT: -7.376581352      1.652      6.336
REMARK  5 active torsions:
REMARK  status: ('A' for Active; 'I' for Inactive)
REMARK    1  A    between atoms: C2_2  and  N1_3
REMARK    2  A    between atoms: C2_2  and  C3_7
REMARK       I    between atoms: C3_7  and  N2_9
REMARK       I    between atoms: N2_9  and  C4_11
REMARK    3  A    between atoms: C4_11  and  C5_13
REMARK    4  A    between atoms: C7_20  and  C8_21
REMARK    5  A    between atoms: N5_22  and  N6_24
ROOT
HETATM    1  C5  UNL     1       3.734  21.690  22.168  1.00  0.00     0.133 A
HETATM    2  N3  UNL     1       2.980  21.170  23.147  1.00  0.00    -0.302 N
ATOM      3  H3  UNL     1       1.963  21.230  23.196  1.00  0.00     0.171 HD
HETATM    4  C6  UNL     1       3.758  20.559  24.054  1.00  0.00     0.325 A
HETATM    5  O3  UNL     1       3.405  19.960  25.103  1.00  0.00    -0.247 OA
HETATM    6  N4  UNL     1       5.059  20.687  23.655  1.00  0.00    -0.305 N
ATOM      7  H4  UNL     1       5.874  20.323  24.148  1.00  0.00     0.171 HD
HETATM    8  C7  UNL     1       5.079  21.373  22.505  1.00  0.00     0.086 A
ENDROOT
BRANCH   1   9
HETATM    9  C4  UNL     1       3.367  22.392  20.962  1.00  0.00     0.277 C
HETATM   10  N2  UNL     1       2.246  23.189  20.781  1.00  0.00    -0.290 N
HETATM   11  C3  UNL     1       1.151  23.408  21.615  1.00  0.00     0.254 C
ATOM     12  H2  UNL     1       2.219  23.695  19.896  1.00  0.00     0.172 HD
HETATM   13  O1  UNL     1       0.981  22.907  22.732  1.00  0.00    -0.271 OA
HETATM   14  O2  UNL     1       4.143  22.280  19.936  1.00  0.00    -0.266 OA
BRANCH  11  15
HETATM   15  C2  UNL     1       0.045  24.333  21.163  1.00  0.00     0.271 C
HETATM   16  C1  UNL     1       0.447  25.722  21.633  1.00  0.00     0.050 C
BRANCH  15  17
HETATM   17  N1  UNL     1      -0.049  24.254  19.736  1.00  0.00    -0.067 N
ATOM     18  H13 UNL     1      -1.020  24.183  19.433  1.00  0.00     0.275 HD
ATOM     19  H12 UNL     1       0.193  25.144  19.300  1.00  0.00     0.275 HD
ATOM     20  H11 UNL     1       0.513  23.491  19.357  1.00  0.00     0.275 HD
ENDBRANCH  15  17
ENDBRANCH  11  15
ENDBRANCH   1   9
BRANCH   8  21
HETATM   21  C8  UNL     1       6.227  21.738  21.696  1.00  0.00     0.139 C
HETATM   22  N5  UNL     1       6.641  21.083  20.704  1.00  0.00    -0.308 N
ATOM     23  H5  UNL     1       7.460  21.491  20.255  1.00  0.00     0.186 HD
BRANCH  22  24
HETATM   24  N6  UNL     1       6.211  19.948  20.123  1.00  0.00    -0.276 N
HETATM   25  C9  UNL     1       6.949  18.909  19.890  1.00  0.00     0.215 C
HETATM   26  N7  UNL     1       6.386  17.776  19.274  1.00  0.00    -0.065 NA
HETATM   27  N8  UNL     1       8.308  18.984  20.282  1.00  0.00    -0.065 NA
ATOM     28  H6  UNL     1       5.231  19.903  19.844  1.00  0.00     0.189 HD
ENDBRANCH  22  24
ENDBRANCH   8  21
TORSDOF 5
ENDMDL