MODEL 1
REMARK VINA RESULT: -7.839142383      0.000      0.000
REMARK  6 active torsions:
REMARK  status: ('A' for Active; 'I' for Inactive)
REMARK    1  A    between atoms: S1_2  and  N1_5
REMARK       I    between atoms: N1_5  and  C2_7
REMARK    2  A    between atoms: C2_7  and  C3_9
REMARK    3  A    between atoms: C5_16  and  N4_17
REMARK    4  A    between atoms: C6_19  and  O5_20
REMARK    5  A    between atoms: C6_19  and  N5_22
REMARK    6  A    between atoms: N5_22  and  N6_24
ROOT
HETATM    1  C3  UNL     1       3.101  21.807  22.095  1.00  0.00     0.150 A
HETATM    2  N2  UNL     1       3.397  21.207  23.266  1.00  0.00    -0.301 N
ATOM      3  H2  UNL     1       4.286  20.767  23.505  1.00  0.00     0.171 HD
HETATM    4  C4  UNL     1       2.332  21.287  24.050  1.00  0.00     0.326 A
HETATM    5  O4  UNL     1       2.256  20.829  25.219  1.00  0.00    -0.247 OA
HETATM    6  N3  UNL     1       1.347  21.932  23.405  1.00  0.00    -0.292 N
ATOM      7  H3  UNL     1       0.422  22.128  23.788  1.00  0.00     0.172 HD
HETATM    8  C5  UNL     1       1.774  22.283  22.164  1.00  0.00     0.145 A
ENDROOT
BRANCH   8   9
HETATM    9  N4  UNL     1       1.087  22.964  21.143  1.00  0.00    -0.305 N
HETATM   10  C6  UNL     1       0.515  24.200  21.124  1.00  0.00     0.237 C
ATOM     11  H4  UNL     1       1.004  22.445  20.269  1.00  0.00     0.171 HD
BRANCH  10  12
HETATM   12  O5  UNL     1      -0.059  24.531  20.002  1.00  0.00    -0.331 OA
ATOM     13  H5  UNL     1      -0.427  25.407  19.977  1.00  0.00     0.221 HD
ENDBRANCH  10  12
BRANCH  10  14
HETATM   14  N5  UNL     1       0.441  25.170  22.112  1.00  0.00    -0.272 N
ATOM     15  H5  UNL     1       0.449  24.916  23.100  1.00  0.00     0.190 HD
BRANCH  14  16
HETATM   16  N6  UNL     1       0.353  26.539  21.702  1.00  0.00    -0.342 N
ATOM     17  H62 UNL     1      -0.501  26.889  21.268  1.00  0.00     0.176 HD
ATOM     18  H61 UNL     1       1.163  27.138  21.859  1.00  0.00     0.176 HD
ENDBRANCH  14  16
ENDBRANCH  10  14
ENDBRANCH   8   9
BRANCH   1  19
HETATM   19  C2  UNL     1       4.014  21.925  20.986  1.00  0.00     0.285 C
HETATM   20  N1  UNL     1       4.731  20.764  20.532  1.00  0.00    -0.249 N
ATOM     21  H1  UNL     1       4.577  19.875  21.009  1.00  0.00     0.182 HD
HETATM   22  O3  UNL     1       4.268  22.963  20.349  1.00  0.00    -0.265 OA
BRANCH  20  23
HETATM   23  S1  UNL     1       5.843  20.813  19.211  1.00  0.00     0.229 S
HETATM   24  C1  UNL     1       6.377  19.157  18.876  1.00  0.00     0.186 C
HETATM   25  O1  UNL     1       5.056  21.354  18.023  1.00  0.00    -0.206 OA
HETATM   26  O2  UNL     1       7.037  21.653  19.526  1.00  0.00    -0.206 OA
ENDBRANCH  20  23
ENDBRANCH   1  19
TORSDOF 6
ENDMDL