MODEL 2
REMARK VINA RESULT: -5.263576669      1.991      7.583
REMARK  5 active torsions:
REMARK  status: ('A' for Active; 'I' for Inactive)
REMARK    1  A    between atoms: C2_5  and  N3_6
REMARK    2  A    between atoms: C5_9  and  N4_10
REMARK       I    between atoms: N4_10  and  C6_12
REMARK       I    between atoms: C6_12  and  N5_14
REMARK    3  A    between atoms: N5_14  and  N6_16
REMARK       I    between atoms: C7_18  and  N8_20
REMARK    4  A    between atoms: N8_20  and  N9_22
REMARK    5  A    between atoms: C8_25  and  N10_26
ROOT
HETATM    1  N1  UNL     1       3.665  18.862  27.091  1.00  0.00    -0.172 NA
HETATM    2  C1  UNL     1       2.873  19.516  27.661  1.00  0.00     0.182 C
HETATM    3  N2  UNL     1       1.935  20.300  28.341  1.00  0.00    -0.290 N
ATOM      4  H2  UNL     1       1.355  20.982  27.853  1.00  0.00     0.178 HD
HETATM    5  C2  UNL     1       1.840  20.117  29.625  1.00  0.00     0.188 C
ENDROOT
BRANCH   5   6
HETATM    6  N3  UNL     1       0.904  20.878  30.406  1.00  0.00    -0.374 N
HETATM    7  C3  UNL     1       1.381  21.798  31.404  1.00  0.00     0.125 C
HETATM    8  C4  UNL     1       0.484  23.040  31.490  1.00  0.00     0.047 C
HETATM    9  C5  UNL     1      -0.309  23.070  30.201  1.00  0.00     0.119 C
HETATM   10  C8  UNL     1      -1.287  21.943  30.238  1.00  0.00     0.224 C
HETATM   11  C9  UNL     1      -0.500  20.653  30.115  1.00  0.00     0.158 C
BRANCH   9  12
HETATM   12  N4  UNL     1      -0.917  24.355  29.962  1.00  0.00    -0.335 N
HETATM   13  C6  UNL     1      -0.829  25.067  28.757  1.00  0.00     0.335 C
HETATM   14  O1  UNL     1      -0.184  24.584  27.798  1.00  0.00    -0.246 OA
HETATM   15  N5  UNL     1      -1.453  26.314  28.609  1.00  0.00    -0.249 N
ATOM     16  H5  UNL     1      -1.977  26.707  29.390  1.00  0.00     0.192 HD
ATOM     17  H4  UNL     1      -1.449  24.777  30.724  1.00  0.00     0.164 HD
BRANCH  15  18
HETATM   18  N6  UNL     1      -1.370  27.024  27.418  1.00  0.00    -0.268 N
HETATM   19  C7  UNL     1      -0.673  28.111  27.300  1.00  0.00     0.221 C
HETATM   20  N7  UNL     1       0.019  28.571  28.440  1.00  0.00    -0.061 NA
HETATM   21  N8  UNL     1      -0.590  28.833  26.085  1.00  0.00    -0.279 N
ATOM     22  H8  UNL     1       0.302  29.258  25.830  1.00  0.00     0.189 HD
ATOM     23  H6  UNL     1      -1.877  26.676  26.605  1.00  0.00     0.190 HD
BRANCH  21  24
HETATM   24  N9  UNL     1      -1.686  28.989  25.212  1.00  0.00    -0.343 N
ATOM     25  H92 UNL     1      -2.522  29.443  25.581  1.00  0.00     0.176 HD
ATOM     26  H91 UNL     1      -1.671  28.671  24.243  1.00  0.00     0.176 HD
ENDBRANCH  21  24
ENDBRANCH  15  18
ENDBRANCH   9  12
BRANCH  10  27
HETATM   27  N10 UNL     1      -1.951  21.877  31.539  1.00  0.00    -0.071 N
ATOM     28 3H10 UNL     1      -2.508  21.027  31.635  1.00  0.00     0.274 HD
ATOM     29 2H10 UNL     1      -1.287  21.711  32.294  1.00  0.00     0.274 HD
ATOM     30 1H10 UNL     1      -2.508  22.715  31.702  1.00  0.00     0.274 HD
ENDBRANCH  10  27
ENDBRANCH   5   6
TORSDOF 5
ENDMDL