MODEL 4
REMARK VINA RESULT: -7.166436014      2.149      2.979
REMARK  6 active torsions:
REMARK  status: ('A' for Active; 'I' for Inactive)
REMARK    1  A    between atoms: C2_2  and  N2_7
REMARK    2  A    between atoms: N1_3  and  O1_5
REMARK    3  A    between atoms: N2_7  and  C3_9
REMARK    4  A    between atoms: C3_9  and  C4_10
REMARK    5  A    between atoms: C3_9  and  C5_14
REMARK       I    between atoms: C5_14  and  N4_16
REMARK    6  A    between atoms: N4_16  and  N5_18
REMARK       I    between atoms: N5_18  and  C6_20
REMARK       I    between atoms: C6_20  and  N6_22
ROOT
HETATM    1  C5  UNL     1       2.203  22.029  22.566  1.00  0.00     0.264 C
HETATM    2  O2  UNL     1       1.058  22.328  22.983  1.00  0.00    -0.269 OA
HETATM    3  N4  UNL     1       3.057  21.272  23.411  1.00  0.00    -0.264 N
ATOM      4  H4  UNL     1       3.988  21.028  23.074  1.00  0.00     0.190 HD
ENDROOT
BRANCH   1   5
HETATM    5  C3  UNL     1       2.645  22.458  21.232  1.00  0.00     0.215 C
BRANCH   5   6
HETATM    6  N2  UNL     1       4.046  22.735  21.151  1.00  0.00    -0.361 N
ATOM      7  H2  UNL     1       4.359  23.657  21.455  1.00  0.00     0.162 HD
BRANCH   6   8
HETATM    8  C2  UNL     1       5.040  21.826  20.679  1.00  0.00     0.094 C
HETATM    9  C1  UNL     1       4.898  21.259  19.315  1.00  0.00     0.090 C
HETATM   10  N1  UNL     1       6.056  21.470  21.379  1.00  0.00    -0.258 N
ATOM     11  H1  UNL     1       6.173  21.848  22.319  1.00  0.00     0.195 HD
BRANCH  10  12
HETATM   12  O1  UNL     1       6.970  20.605  20.892  1.00  0.00    -0.288 OA
ATOM     13  H1  UNL     1       6.991  19.699  21.178  1.00  0.00     0.244 HD
ENDBRANCH  10  12
ENDBRANCH   6   8
ENDBRANCH   5   6
BRANCH   5  14
HETATM   14  C4  UNL     1       1.915  23.659  20.775  1.00  0.00     0.087 C
HETATM   15  N3  UNL     1       0.710  23.558  20.402  1.00  0.00    -0.409 N
ATOM     16  H32 UNL     1       0.258  22.644  20.424  1.00  0.00     0.155 HD
ATOM     17  H31 UNL     1       0.206  24.388  20.087  1.00  0.00     0.155 HD
ENDBRANCH   5  14
ENDBRANCH   1   5
BRANCH   3  18
HETATM   18  N5  UNL     1       2.675  20.851  24.679  1.00  0.00    -0.249 N
HETATM   19  C6  UNL     1       3.556  20.114  25.494  1.00  0.00     0.338 C
HETATM   20  O3  UNL     1       4.699  19.843  25.054  1.00  0.00    -0.245 OA
HETATM   21  N6  UNL     1       3.211  19.661  26.800  1.00  0.00    -0.308 N
HETATM   22  C7  UNL     1       4.022  18.909  27.711  1.00  0.00     0.254 C
HETATM   23  C9  UNL     1       1.931  19.900  27.440  1.00  0.00     0.232 C
HETATM   24  N7  UNL     1       3.488  19.227  29.043  1.00  0.00    -0.343 N
HETATM   25  C8  UNL     1       2.094  19.444  28.835  1.00  0.00     0.236 C
ATOM     26  H7  UNL     1       4.002  19.281  29.922  1.00  0.00     0.164 HD
HETATM   27  O4  UNL     1       1.185  19.277  29.684  1.00  0.00    -0.272 OA
ATOM     28  H5  UNL     1       1.744  21.079  25.024  1.00  0.00     0.192 HD
ENDBRANCH   3  18
TORSDOF 6
ENDMDL