MODEL 5
REMARK VINA RESULT: -3.161619967      9.917     11.407
REMARK  4 active torsions:
REMARK  status: ('A' for Active; 'I' for Inactive)
REMARK    1  A    between atoms: C3_4  and  N1_5
REMARK       I    between atoms: N1_5  and  C4_7
REMARK    2  A    between atoms: C5_12  and  N4_13
REMARK    3  A    between atoms: C8_16  and  N5_17
REMARK       I    between atoms: N5_17  and  C9_19
REMARK    4  A    between atoms: C10_22  and  O3_24
ROOT
HETATM    1  C1  UNL     1       6.132  17.326  21.642  1.00  0.00     0.042 C
HETATM    2  C2  UNL     1       5.120  18.451  21.579  1.00  0.00     0.156 C
HETATM    3  O1  UNL     1       5.095  19.043  22.819  1.00  0.00    -0.357 OA
HETATM    4  C3  UNL     1       4.165  20.038  22.988  1.00  0.00     0.248 C
HETATM    5  C5  UNL     1       4.142  21.100  21.939  1.00  0.00     0.153 C
HETATM    6  C8  UNL     1       4.740  20.737  20.619  1.00  0.00     0.149 C
HETATM    7  C10 UNL     1       5.608  19.520  20.624  1.00  0.00     0.102 C
HETATM    8  C11 UNL     1       7.023  19.862  21.045  1.00  0.00     0.051 C
ENDROOT
BRANCH   4   9
HETATM    9  N1  UNL     1       4.391  20.568  24.316  1.00  0.00    -0.337 N
HETATM   10  C4  UNL     1       3.716  20.091  25.461  1.00  0.00     0.183 C
HETATM   11  N2  UNL     1       4.146  19.210  26.259  1.00  0.00    -0.374 N
HETATM   12  N3  UNL     1       2.428  20.685  25.711  1.00  0.00    -0.064 NA
ATOM     13  H22 UNL     1       5.058  18.789  26.082  1.00  0.00     0.158 HD
ATOM     14  H21 UNL     1       3.658  18.866  27.086  1.00  0.00     0.158 HD
ATOM     15  H1  UNL     1       5.070  21.321  24.430  1.00  0.00     0.164 HD
ENDBRANCH   4   9
BRANCH   5  16
HETATM   16  N4  UNL     1       2.843  21.707  21.769  1.00  0.00    -0.411 N
HETATM   17  C6  UNL     1       2.859  22.925  21.026  1.00  0.00     0.143 C
HETATM   18  C7  UNL     1       2.016  21.693  22.920  1.00  0.00     0.143 C
ENDBRANCH   5  16
BRANCH   6  19
HETATM   19  N5  UNL     1       5.482  21.820  19.999  1.00  0.00    -0.336 N
HETATM   20  C9  UNL     1       5.463  22.080  18.617  1.00  0.00     0.329 C
HETATM   21  N6  UNL     1       6.218  23.159  18.108  1.00  0.00    -0.040 NA
HETATM   22  O2  UNL     1       4.799  21.392  17.809  1.00  0.00    -0.251 OA
ATOM     23  H5  UNL     1       6.047  22.424  20.597  1.00  0.00     0.164 HD
ENDBRANCH   6  19
BRANCH   7  24
HETATM   24  O3  UNL     1       5.700  18.930  19.364  1.00  0.00    -0.385 OA
ATOM     25  H3  UNL     1       5.211  19.479  18.763  1.00  0.00     0.210 HD
ENDBRANCH   7  24
TORSDOF 4
ENDMDL