MODEL 2
REMARK VINA RESULT: -5.501214697     10.192     11.774
REMARK  6 active torsions:
REMARK  status: ('A' for Active; 'I' for Inactive)
REMARK    1  A    between atoms: C2_2  and  C4_4
REMARK    2  A    between atoms: C4_4  and  N1_5
REMARK    3  A    between atoms: C4_4  and  C10_21
REMARK       I    between atoms: N1_5  and  C5_7
REMARK       I    between atoms: C5_7  and  N2_9
REMARK    4  A    between atoms: N6_17  and  O2_18
REMARK    5  A    between atoms: C10_21  and  O3_22
REMARK    6  A    between atoms: C10_21  and  O4_24
ROOT
HETATM    1  N1  UNL     1       0.290  22.610  29.853  1.00  0.00    -0.333 N
ATOM      2  H1  UNL     1      -0.052  22.499  28.898  1.00  0.00     0.164 HD
HETATM    3  C5  UNL     1       0.520  23.926  30.351  1.00  0.00     0.321 C
HETATM    4  O1  UNL     1       0.943  24.012  31.543  1.00  0.00    -0.247 OA
HETATM    5  N2  UNL     1       0.287  25.084  29.556  1.00  0.00    -0.298 N
HETATM    6  C6  UNL     1      -0.194  24.899  28.215  1.00  0.00     0.151 C
HETATM    7  C7  UNL     1      -0.562  26.181  27.535  1.00  0.00     0.154 C
HETATM    8  N3  UNL     1      -0.860  27.254  28.426  1.00  0.00    -0.349 N
ATOM      9  H3  UNL     1      -1.688  27.834  28.295  1.00  0.00     0.174 HD
HETATM   10  N4  UNL     1      -0.009  27.473  29.447  1.00  0.00    -0.179 NA
HETATM   11  C8  UNL     1       1.036  28.437  29.201  1.00  0.00     0.248 C
HETATM   12  N5  UNL     1       2.053  28.024  30.161  1.00  0.00    -0.120 NA
HETATM   13  N6  UNL     1       1.985  26.625  30.054  1.00  0.00    -0.070 NA
HETATM   14  C9  UNL     1       0.540  26.366  30.124  1.00  0.00     0.306 C
ENDROOT
BRANCH   1  15
HETATM   15  C4  UNL     1       0.522  21.426  30.651  1.00  0.00     0.144 C
BRANCH  15  16
HETATM   16  C2  UNL     1       1.899  20.842  30.388  1.00  0.00     0.005 C
HETATM   17  C1  UNL     1       1.936  20.027  29.140  1.00  0.00     0.012 C
HETATM   18  C3  UNL     1       2.394  20.025  31.543  1.00  0.00     0.012 C
ENDBRANCH  15  16
BRANCH  15  19
HETATM   19  C10 UNL     1      -0.541  20.422  30.290  1.00  0.00     0.276 C
BRANCH  19  20
HETATM   20  O3  UNL     1      -1.435  20.990  29.404  1.00  0.00    -0.369 OA
ATOM     21  H3  UNL     1      -2.293  21.051  29.810  1.00  0.00     0.212 HD
ENDBRANCH  19  20
BRANCH  19  22
HETATM   22  O4  UNL     1      -1.250  20.151  31.482  1.00  0.00    -0.369 OA
ATOM     23  H4  UNL     1      -2.172  20.245  31.270  1.00  0.00     0.212 HD
ENDBRANCH  19  22
ENDBRANCH  15  19
ENDBRANCH   1  15
BRANCH  13  24
HETATM   24  O2  UNL     1       2.337  26.332  28.764  1.00  0.00    -0.294 OA
ATOM     25  H2  UNL     1       3.160  25.862  28.821  1.00  0.00     0.238 HD
ENDBRANCH  13  24
TORSDOF 6
ENDMDL