MODEL 1
REMARK VINA RESULT: -7.171972113      0.000      0.000
REMARK  8 active torsions:
REMARK  status: ('A' for Active; 'I' for Inactive)
REMARK    1  A    between atoms: C2_2  and  C3_4
REMARK       I    between atoms: C3_4  and  N2_6
REMARK    2  A    between atoms: N2_6  and  N3_8
REMARK    3  A    between atoms: C4_10  and  C5_11
REMARK       I    between atoms: C5_11  and  N4_13
REMARK    4  A    between atoms: N4_13  and  C6_15
REMARK    5  A    between atoms: C6_15  and  O3_16
REMARK    6  A    between atoms: C6_15  and  N5_18
REMARK    7  A    between atoms: N5_18  and  N6_19
REMARK    8  A    between atoms: N6_19  and  C7_21
ROOT
HETATM    1  C5  UNL     1       1.786  23.358  21.397  1.00  0.00     0.266 C
HETATM    2  O2  UNL     1       1.186  22.910  22.160  1.00  0.00    -0.267 OA
HETATM    3  N4  UNL     1       1.578  24.837  20.781  1.00  0.00    -0.275 N
ATOM      4  H4  UNL     1       2.091  25.296  20.027  1.00  0.00     0.173 HD
ENDROOT
BRANCH   1   5
HETATM    5  C4  UNL     1       2.943  22.782  20.756  1.00  0.00     0.181 C
HETATM    6  N3  UNL     1       4.009  22.284  21.370  1.00  0.00    -0.304 N
ATOM      7  H3  UNL     1       4.234  22.204  22.362  1.00  0.00     0.186 HD
BRANCH   6   8
HETATM    8  N2  UNL     1       4.786  21.873  20.138  1.00  0.00    -0.265 N
HETATM    9  C3  UNL     1       5.263  20.582  20.109  1.00  0.00     0.279 C
HETATM   10  O1  UNL     1       5.403  19.747  20.928  1.00  0.00    -0.265 OA
ATOM     11  H2  UNL     1       4.948  22.520  19.366  1.00  0.00     0.190 HD
BRANCH   9  12
HETATM   12  C2  UNL     1       5.617  20.285  18.580  1.00  0.00     0.089 C
HETATM   13  C1  UNL     1       6.511  19.167  18.449  1.00  0.00     0.070 C
HETATM   14  N1  UNL     1       4.962  21.056  17.631  1.00  0.00    -0.102 NA
ENDBRANCH   9  12
ENDBRANCH   6   8
ENDBRANCH   1   5
BRANCH   3  15
HETATM   15  C6  UNL     1       0.447  25.360  21.592  1.00  0.00     0.321 C
BRANCH  15  16
HETATM   16  O3  UNL     1      -0.498  24.386  21.418  1.00  0.00    -0.320 OA
ATOM     17  H3  UNL     1      -1.262  24.780  21.822  1.00  0.00     0.222 HD
ENDBRANCH  15  16
BRANCH  15  18
HETATM   18  N5  UNL     1       0.440  26.440  22.241  1.00  0.00    -0.278 NA
BRANCH  18  19
HETATM   19  N6  UNL     1       0.421  27.639  22.949  1.00  0.00    -0.207 N
ATOM     20  H6  UNL     1      -0.477  28.106  23.066  1.00  0.00     0.204 HD
BRANCH  19  21
HETATM   21  C7  UNL     1       1.546  28.247  23.511  1.00  0.00     0.210 C
HETATM   22  N7  UNL     1       2.657  28.649  22.607  1.00  0.00    -0.068 NA
HETATM   23  S1  UNL     1       1.676  28.539  25.058  1.00  0.00    -0.042 SA
ENDBRANCH  19  21
ENDBRANCH  18  19
ENDBRANCH  15  18
ENDBRANCH   3  15
TORSDOF 8
ENDMDL