MODEL 5
REMARK VINA RESULT: -4.618368854      1.473      1.923
REMARK  6 active torsions:
REMARK  status: ('A' for Active; 'I' for Inactive)
REMARK       I    between atoms: C2_2  and  N1_4
REMARK    1  A    between atoms: N1_4  and  N2_6
REMARK       I    between atoms: N2_6  and  C3_8
REMARK       I    between atoms: C3_8  and  N3_10
REMARK    2  A    between atoms: N3_10  and  C4_12
REMARK    3  A    between atoms: C7_16  and  N5_17
REMARK    4  A    between atoms: C9_22  and  N6_23
REMARK    5  A    between atoms: C9_22  and  C10_27
REMARK    6  A    between atoms: C10_27  and  N7_28
ROOT
HETATM    1  C4  UNL     1       5.126  20.187  20.694  1.00  0.00     0.152 C
HETATM    2  C5  UNL     1       5.723  18.883  21.165  1.00  0.00     0.302 C
HETATM    3  N4  UNL     1       6.335  18.176  20.071  1.00  0.00     0.117 N
HETATM    4  C6  UNL     1       7.024  17.023  20.624  1.00  0.00     0.312 C
HETATM    5  C7  UNL     1       7.340  18.980  19.393  1.00  0.00     0.419 C
HETATM    6  C8  UNL     1       6.724  20.248  18.871  1.00  0.00     0.107 C
HETATM    7  C9  UNL     1       6.211  21.027  20.070  1.00  0.00     0.172 C
ENDROOT
BRANCH   1   8
HETATM    8  N3  UNL     1       4.515  20.914  21.752  1.00  0.00    -0.333 N
HETATM    9  C3  UNL     1       3.896  20.334  22.896  1.00  0.00     0.335 C
HETATM   10  N2  UNL     1       3.315  21.154  23.894  1.00  0.00    -0.249 N
HETATM   11  O2  UNL     1       3.831  19.093  23.080  1.00  0.00    -0.246 OA
ATOM     12  H2  UNL     1       3.358  22.164  23.760  1.00  0.00     0.192 HD
ATOM     13  H3  UNL     1       4.520  21.932  21.686  1.00  0.00     0.164 HD
BRANCH  10  14
HETATM   14  N1  UNL     1       2.692  20.682  25.041  1.00  0.00    -0.266 N
HETATM   15  C2  UNL     1       3.393  19.996  26.084  1.00  0.00     0.232 C
HETATM   16  C1  UNL     1       2.661  19.516  27.289  1.00  0.00     0.119 C
HETATM   17  O1  UNL     1       4.624  19.826  25.928  1.00  0.00    -0.272 OA
ATOM     18  H1  UNL     1       1.689  20.830  25.146  1.00  0.00     0.190 HD
ENDBRANCH  10  14
ENDBRANCH   1   8
BRANCH   7  19
HETATM   19  N6  UNL     1       7.309  21.113  20.998  1.00  0.00    -0.067 N
ATOM     20  H63 UNL     1       7.929  20.304  20.949  1.00  0.00     0.275 HD
ATOM     21  H62 UNL     1       7.989  21.826  20.736  1.00  0.00     0.275 HD
ATOM     22  H61 UNL     1       6.929  21.260  21.934  1.00  0.00     0.275 HD
ENDBRANCH   7  19
BRANCH   7  23
HETATM   23  C10 UNL     1       5.751  22.368  19.585  1.00  0.00     0.270 C
BRANCH  23  24
HETATM   24  N7  UNL     1       5.556  22.479  18.177  1.00  0.00    -0.077 N
ATOM     25  H73 UNL     1       6.452  22.629  17.712  1.00  0.00     0.274 HD
ATOM     26  H72 UNL     1       5.300  21.572  17.788  1.00  0.00     0.274 HD
ATOM     27  H71 UNL     1       4.887  23.189  17.880  1.00  0.00     0.274 HD
ENDBRANCH  23  24
ENDBRANCH   7  23
BRANCH   5  28
HETATM   28  N5  UNL     1       7.862  18.236  18.290  1.00  0.00    -0.047 N
ATOM     29  H53 UNL     1       7.969  17.244  18.505  1.00  0.00     0.276 HD
ATOM     30  H52 UNL     1       7.188  18.143  17.530  1.00  0.00     0.276 HD
ATOM     31  H51 UNL     1       8.736  18.665  17.986  1.00  0.00     0.276 HD
ENDBRANCH   5  28
TORSDOF 6
ENDMDL