MODEL 1
REMARK VINA RESULT: -7.498380757      0.000      0.000
REMARK  7 active torsions:
REMARK  status: ('A' for Active; 'I' for Inactive)
REMARK    1  A    between atoms: N1_2  and  C2_4
REMARK    2  A    between atoms: C2_4  and  N2_6
REMARK    3  A    between atoms: N2_6  and  C3_8
REMARK    4  A    between atoms: C3_8  and  C4_9
REMARK       I    between atoms: C4_9  and  N3_11
REMARK    5  A    between atoms: N3_11  and  N4_12
REMARK    6  A    between atoms: N4_12  and  C5_14
REMARK    7  A    between atoms: C6_17  and  N6_18
ROOT
HETATM    1  N4  UNL     1       5.248  22.142  20.487  1.00  0.00    -0.208 N
ATOM      2  H4  UNL     1       5.857  22.951  20.615  1.00  0.00     0.204 HD
ENDROOT
BRANCH   1   3
HETATM    3  N3  UNL     1       5.301  21.499  19.244  1.00  0.00    -0.283 NA
HETATM    4  C4  UNL     1       5.303  20.962  18.095  1.00  0.00     0.330 C
HETATM    5  O1  UNL     1       4.708  21.187  16.992  1.00  0.00    -0.253 OA
BRANCH   4   6
HETATM    6  C3  UNL     1       6.232  19.693  17.863  1.00  0.00     0.243 C
BRANCH   6   7
HETATM    7  N2  UNL     1       6.078  18.742  18.871  1.00  0.00    -0.357 N
ATOM      8  H2  UNL     1       5.502  17.947  18.595  1.00  0.00     0.162 HD
BRANCH   7   9
HETATM    9  C2  UNL     1       6.555  18.658  20.188  1.00  0.00     0.167 C
HETATM   10  S1  UNL     1       6.050  17.430  21.181  1.00  0.00    -0.041 SA
BRANCH   9  11
HETATM   11  N1  UNL     1       7.482  19.550  20.720  1.00  0.00    -0.372 N
HETATM   12  C1  UNL     1       8.895  19.643  20.393  1.00  0.00     0.148 C
ATOM     13  H1  UNL     1       7.131  20.211  21.413  1.00  0.00     0.161 HD
ENDBRANCH   9  11
ENDBRANCH   7   9
ENDBRANCH   6   7
ENDBRANCH   4   6
ENDBRANCH   1   3
BRANCH   1  14
HETATM   14  C5  UNL     1       4.537  21.824  21.440  1.00  0.00     0.193 A
HETATM   15  N5  UNL     1       4.918  21.039  22.483  1.00  0.00    -0.168 N
HETATM   16  C6  UNL     1       4.149  20.715  23.505  1.00  0.00     0.681 A
ATOM     17  H5  UNL     1       5.870  20.673  22.475  1.00  0.00     0.186 HD
HETATM   18  N7  UNL     1       2.900  21.055  23.749  1.00  0.00    -0.150 N
HETATM   19  C7  UNL     1       2.124  21.833  22.973  1.00  0.00     0.305 A
ATOM     20  H7  UNL     1       2.482  20.695  24.607  1.00  0.00     0.188 HD
HETATM   21  O2  UNL     1       0.920  22.139  23.251  1.00  0.00    -0.259 OA
HETATM   22  S2  UNL     1       2.921  22.374  21.569  1.00  0.00     0.010 SA
BRANCH  16  23
HETATM   23  N6  UNL     1       4.685  19.942  24.438  1.00  0.00    -0.234 N
ATOM     24  H62 UNL     1       4.506  18.947  24.301  1.00  0.00     0.174 HD
ATOM     25  H61 UNL     1       5.205  20.407  25.181  1.00  0.00     0.174 HD
ENDBRANCH  16  23
ENDBRANCH   1  14
TORSDOF 7
ENDMDL