MODEL 1
REMARK VINA RESULT: -6.219619632      0.000      0.000
REMARK  6 active torsions:
REMARK  status: ('A' for Active; 'I' for Inactive)
REMARK    1  A    between atoms: N1_2  and  C2_4
REMARK    2  A    between atoms: C2_4  and  N2_6
REMARK    3  A    between atoms: C4_11  and  O1_12
REMARK    4  A    between atoms: C4_11  and  C5_14
REMARK    5  A    between atoms: C7_18  and  N4_19
REMARK    6  A    between atoms: C7_18  and  C8_23
ROOT
HETATM    1  N2  UNL     1       6.281  20.273  20.140  1.00  0.00    -0.268 N
HETATM    2  C3  UNL     1       5.266  20.573  21.097  1.00  0.00     0.128 C
HETATM    3  N3  UNL     1       4.698  19.757  21.907  1.00  0.00    -0.386 N
ATOM      4  H31 UNL     1       3.973  19.971  22.591  1.00  0.00     0.157 HD
ATOM      5  H32 UNL     1       4.909  18.761  21.968  1.00  0.00     0.157 HD
HETATM    6  C4  UNL     1       4.954  22.045  21.005  1.00  0.00     0.208 C
HETATM    7  C6  UNL     1       5.235  22.320  19.569  1.00  0.00     0.129 C
HETATM    8  C7  UNL     1       6.082  21.210  19.051  1.00  0.00     0.286 C
ENDROOT
BRANCH   8   9
HETATM    9  N4  UNL     1       7.364  21.699  18.596  1.00  0.00    -0.043 N
ATOM     10  H43 UNL     1       7.298  22.630  18.185  1.00  0.00     0.278 HD
ATOM     11  H42 UNL     1       7.987  21.925  19.371  1.00  0.00     0.278 HD
ATOM     12  H41 UNL     1       7.776  21.023  17.953  1.00  0.00     0.278 HD
ENDBRANCH   8   9
BRANCH   8  13
HETATM   13  C8  UNL     1       5.401  20.595  17.894  1.00  0.00     0.288 C
HETATM   14  N5  UNL     1       4.588  21.286  16.980  1.00  0.00    -0.058 NA
HETATM   15  O4  UNL     1       5.565  19.361  17.721  1.00  0.00    -0.272 OA
ENDBRANCH   8  13
BRANCH   1  16
HETATM   16  C2  UNL     1       7.280  19.285  20.218  1.00  0.00     0.177 C
HETATM   17  S1  UNL     1       8.828  19.754  20.574  1.00  0.00    -0.041 SA
BRANCH  16  18
HETATM   18  N1  UNL     1       7.105  17.895  20.021  1.00  0.00    -0.371 N
HETATM   19  C1  UNL     1       6.436  17.025  20.944  1.00  0.00     0.148 C
ATOM     20  H1  UNL     1       7.478  17.484  19.165  1.00  0.00     0.161 HD
ENDBRANCH  16  18
ENDBRANCH   1  16
BRANCH   6  21
HETATM   21  O1  UNL     1       5.857  22.698  21.811  1.00  0.00    -0.372 OA
ATOM     22  H1  UNL     1       5.770  22.329  22.682  1.00  0.00     0.211 HD
ENDBRANCH   6  21
BRANCH   6  23
HETATM   23  C5  UNL     1       3.547  22.306  21.392  1.00  0.00     0.217 C
HETATM   24  O2  UNL     1       2.814  22.919  20.605  1.00  0.00    -0.645 OA
HETATM   25  O3  UNL     1       3.055  21.882  22.597  1.00  0.00    -0.645 OA
ENDBRANCH   6  23
TORSDOF 6
ENDMDL