MODEL 2
REMARK VINA RESULT: -6.968629138      6.944      8.649
REMARK  5 active torsions:
REMARK  status: ('A' for Active; 'I' for Inactive)
REMARK    1  A    between atoms: C2_2  and  N2_6
REMARK       I    between atoms: N2_6  and  C3_8
REMARK       I    between atoms: C3_8  and  N5_17
REMARK    2  A    between atoms: N3_9  and  S1_11
REMARK    3  A    between atoms: S1_11  and  N4_12
REMARK    4  A    between atoms: N5_17  and  N6_19
REMARK    5  A    between atoms: N6_19  and  C4_21
ROOT
HETATM    1  N2  UNL     1      18.673  36.249  14.649  1.00  0.00    -0.179 N
ATOM      2  H2  UNL     1      18.442  35.988  15.607  1.00  0.00     0.185 HD
HETATM    3  C3  UNL     1      19.575  37.284  14.392  1.00  0.00     0.709 C
HETATM    4  N3  UNL     1      20.683  37.464  15.027  1.00  0.00    -0.098 N
ATOM      5  H3  UNL     1      21.275  38.252  14.763  1.00  0.00     0.199 HD
HETATM    6  N5  UNL     1      19.258  38.210  13.359  1.00  0.00    -0.129 N
ATOM      7  H5  UNL     1      19.461  38.003  12.381  1.00  0.00     0.205 HD
ENDROOT
BRANCH   1   8
HETATM    8  C2  UNL     1      18.083  35.568  13.555  1.00  0.00     0.087 C
HETATM    9  C1  UNL     1      16.593  35.444  13.412  1.00  0.00     0.089 C
HETATM   10  N1  UNL     1      18.794  35.011  12.616  1.00  0.00    -0.389 N
ATOM     11  H12 UNL     1      18.370  34.521  11.828  1.00  0.00     0.157 HD
ATOM     12  H11 UNL     1      19.806  35.096  12.713  1.00  0.00     0.157 HD
ENDBRANCH   1   8
BRANCH   4  13
HETATM   13  S1  UNL     1      21.203  36.432  16.296  1.00  0.00     0.330 S
HETATM   14  O1  UNL     1      20.345  36.641  17.529  1.00  0.00    -0.182 OA
HETATM   15  O2  UNL     1      21.196  35.021  15.836  1.00  0.00    -0.182 OA
BRANCH  13  16
HETATM   16  N4  UNL     1      22.807  36.947  16.747  1.00  0.00    -0.311 N
ATOM     17  H42 UNL     1      23.658  36.789  16.207  1.00  0.00     0.170 HD
ATOM     18  H41 UNL     1      22.725  37.429  17.642  1.00  0.00     0.170 HD
ENDBRANCH  13  16
ENDBRANCH   4  13
BRANCH   6  19
HETATM   19  N6  UNL     1      18.660  39.407  13.735  1.00  0.00    -0.257 N
ATOM     20  H6  UNL     1      17.771  39.410  14.236  1.00  0.00     0.190 HD
BRANCH  19  21
HETATM   21  C4  UNL     1      19.315  40.635  13.404  1.00  0.00     0.190 C
HETATM   22  N7  UNL     1      20.006  41.352  14.195  1.00  0.00    -0.360 N
HETATM   23  C5  UNL     1      20.495  42.501  13.489  1.00  0.00     0.142 C
ATOM     24  H7  UNL     1      20.184  41.143  15.178  1.00  0.00     0.162 HD
HETATM   25  C6  UNL     1      19.659  42.574  12.235  1.00  0.00     0.142 C
HETATM   26  N8  UNL     1      19.243  41.179  12.102  1.00  0.00    -0.360 N
ATOM     27  H8  UNL     1      18.960  40.698  11.248  1.00  0.00     0.162 HD
ENDBRANCH  19  21
ENDBRANCH   6  19
TORSDOF 5
ENDMDL