MODEL 2
REMARK VINA RESULT: -5.908420338      3.220      7.036
REMARK  4 active torsions:
REMARK  status: ('A' for Active; 'I' for Inactive)
REMARK       I    between atoms: C2_5  and  N3_6
REMARK       I    between atoms: C2_5  and  N8_20
REMARK       I    between atoms: C3_8  and  N5_10
REMARK    1  A    between atoms: N5_10  and  N6_12
REMARK    2  A    between atoms: C4_14  and  C5_15
REMARK    3  A    between atoms: C5_15  and  N7_16
REMARK    4  A    between atoms: N8_20  and  C6_22
ROOT
HETATM    1  N1  UNL     1      16.559  34.930  13.685  1.00  0.00    -0.171 NA
HETATM    2  C1  UNL     1      17.045  35.822  13.149  1.00  0.00     0.196 C
HETATM    3  N2  UNL     1      17.654  36.900  12.511  1.00  0.00    -0.126 N
ATOM      4  H2  UNL     1      17.424  37.115  11.541  1.00  0.00     0.197 HD
HETATM    5  C2  UNL     1      18.505  37.621  13.143  1.00  0.00     0.695 C
HETATM    6  N3  UNL     1      19.081  38.700  12.425  1.00  0.00    -0.161 N
ATOM      7  H3  UNL     1      19.417  38.522  11.478  1.00  0.00     0.187 HD
HETATM    8  C3  UNL     1      19.204  39.884  12.893  1.00  0.00     0.221 C
HETATM    9  N4  UNL     1      18.748  40.177  14.207  1.00  0.00    -0.061 NA
HETATM   10  N5  UNL     1      19.792  40.901  12.104  1.00  0.00    -0.274 N
ATOM     11  H5  UNL     1      20.797  40.868  11.931  1.00  0.00     0.189 HD
HETATM   12  N8  UNL     1      18.816  37.315  14.483  1.00  0.00    -0.168 N
ATOM     13  H8  UNL     1      18.143  37.529  15.219  1.00  0.00     0.186 HD
ENDROOT
BRANCH  12  14
HETATM   14  C6  UNL     1      19.965  36.757  14.795  1.00  0.00     0.183 A
HETATM   15  N9  UNL     1      20.558  35.709  14.215  1.00  0.00    -0.276 N
HETATM   16  N10 UNL     1      21.680  35.311  14.663  1.00  0.00    -0.258 N
ATOM     17  H9  UNL     1      20.118  35.237  13.425  1.00  0.00     0.189 HD
HETATM   18  C7  UNL     1      22.233  35.946  15.696  1.00  0.00     0.305 A
ATOM     19  H10 UNL     1      22.152  34.513  14.237  1.00  0.00     0.191 HD
HETATM   20  O1  UNL     1      23.348  35.689  16.277  1.00  0.00    -0.258 OA
HETATM   21  S1  UNL     1      21.078  37.166  16.024  1.00  0.00     0.010 SA
ENDBRANCH  12  14
BRANCH  10  22
HETATM   22  N6  UNL     1      19.054  41.942  11.556  1.00  0.00    -0.312 N
HETATM   23  C4  UNL     1      19.473  43.150  11.696  1.00  0.00     0.107 C
ATOM     24  H6  UNL     1      18.190  41.751  11.049  1.00  0.00     0.185 HD
BRANCH  23  25
HETATM   25  C5  UNL     1      18.752  44.321  11.146  1.00  0.00     0.275 C
BRANCH  25  26
HETATM   26  N7  UNL     1      17.394  43.932  10.770  1.00  0.00    -0.075 N
ATOM     27  H73 UNL     1      17.322  42.934  10.570  1.00  0.00     0.274 HD
ATOM     28  H72 UNL     1      16.750  43.971  11.559  1.00  0.00     0.274 HD
ATOM     29  H71 UNL     1      17.077  44.504   9.987  1.00  0.00     0.274 HD
ENDBRANCH  25  26
ENDBRANCH  23  25
ENDBRANCH  10  22
TORSDOF 4
ENDMDL