MODEL 5
REMARK VINA RESULT: -0.596832562     15.547     17.190
REMARK  7 active torsions:
REMARK  status: ('A' for Active; 'I' for Inactive)
REMARK       I    between atoms: C2_2  and  N1_4
REMARK    1  A    between atoms: N1_4  and  C3_6
REMARK    2  A    between atoms: C5_8  and  N2_9
REMARK    3  A    between atoms: C7_14  and  N3_15
REMARK    4  A    between atoms: C7_14  and  C8_19
REMARK    5  A    between atoms: C9_22  and  O4_23
REMARK    6  A    between atoms: C9_22  and  C10_25
REMARK    7  A    between atoms: C11_26  and  N4_27
ROOT
HETATM    1  C3  UNL     1      25.259  52.418  19.601  1.00  0.00     0.136 C
HETATM    2  C4  UNL     1      25.675  51.194  20.347  1.00  0.00     0.062 C
HETATM    3  C5  UNL     1      24.533  50.397  20.911  1.00  0.00     0.188 C
HETATM    4  C6  UNL     1      23.431  50.140  19.935  1.00  0.00     0.087 C
HETATM    5  C7  UNL     1      23.016  51.347  19.144  1.00  0.00     0.255 C
HETATM    6  C9  UNL     1      24.195  52.114  18.597  1.00  0.00     0.186 C
ENDROOT
BRANCH   5   7
HETATM    7  N3  UNL     1      22.104  52.174  19.898  1.00  0.00    -0.056 N
ATOM      8  H33 UNL     1      21.456  52.672  19.287  1.00  0.00     0.276 HD
ATOM      9  H32 UNL     1      21.429  51.613  20.416  1.00  0.00     0.276 HD
ATOM     10  H31 UNL     1      22.610  52.815  20.510  1.00  0.00     0.276 HD
ENDBRANCH   5   7
BRANCH   5  11
HETATM   11  C8  UNL     1      22.258  50.852  17.976  1.00  0.00     0.214 C
HETATM   12  O2  UNL     1      22.521  49.765  17.404  1.00  0.00    -0.646 OA
HETATM   13  O3  UNL     1      21.218  51.604  17.482  1.00  0.00    -0.646 OA
ENDBRANCH   5  11
BRANCH   6  14
HETATM   14  O4  UNL     1      24.768  51.252  17.652  1.00  0.00    -0.372 OA
ATOM     15  H4  UNL     1      24.999  51.786  16.901  1.00  0.00     0.212 HD
ENDBRANCH   6  14
BRANCH   6  16
HETATM   16  C10 UNL     1      23.735  53.288  17.894  1.00  0.00    -0.040 C
HETATM   17  C11 UNL     1      23.335  54.275  17.319  1.00  0.00     0.006 C
BRANCH  17  18
HETATM   18  N4  UNL     1      22.851  55.413  16.664  1.00  0.00    -0.359 N
ATOM     19  H42 UNL     1      23.493  54.646  16.463  1.00  0.00     0.166 HD
ATOM     20  H41 UNL     1      22.488  56.247  16.201  1.00  0.00     0.166 HD
ENDBRANCH  17  18
ENDBRANCH   6  16
BRANCH   3  21
HETATM   21  N2  UNL     1      25.078  49.107  21.306  1.00  0.00    -0.075 N
ATOM     22  H23 UNL     1      25.507  48.598  20.533  1.00  0.00     0.274 HD
ATOM     23  H22 UNL     1      25.913  49.184  21.887  1.00  0.00     0.274 HD
ATOM     24  H21 UNL     1      24.320  48.595  21.755  1.00  0.00     0.274 HD
ENDBRANCH   3  21
BRANCH   1  25
HETATM   25  N1  UNL     1      24.988  53.551  20.450  1.00  0.00    -0.353 N
HETATM   26  C2  UNL     1      25.550  54.817  20.376  1.00  0.00     0.214 C
HETATM   27  C1  UNL     1      25.193  55.905  21.306  1.00  0.00     0.117 C
HETATM   28  O1  UNL     1      26.397  55.077  19.493  1.00  0.00    -0.274 OA
ATOM     29  H1  UNL     1      24.303  53.405  21.192  1.00  0.00     0.163 HD
ENDBRANCH   1  25
TORSDOF 7
ENDMDL