MODEL 5
REMARK VINA RESULT: -2.873813667      2.228      6.380
REMARK  3 active torsions:
REMARK  status: ('A' for Active; 'I' for Inactive)
REMARK       I    between atoms: N1_3  and  C3_5
REMARK       I    between atoms: C3_5  and  N3_11
REMARK       I    between atoms: N2_6  and  C4_8
REMARK    1  A    between atoms: N3_11  and  C6_13
REMARK    2  A    between atoms: C7_17  and  N5_18
REMARK    3  A    between atoms: C8_25  and  N7_26
REMARK       I    between atoms: N7_26  and  C9_28
ROOT
HETATM    1  C1  UNL     1      15.823  34.929  14.306  1.00  0.00     0.037 C
HETATM    2  C2  UNL     1      16.620  35.539  14.955  1.00  0.00     0.015 C
HETATM    3  N1  UNL     1      17.552  36.269  15.696  1.00  0.00    -0.149 N
ATOM      4  H1  UNL     1      17.247  36.915  16.423  1.00  0.00     0.195 HD
HETATM    5  C3  UNL     1      18.925  36.092  15.418  1.00  0.00     0.690 C
HETATM    6  N2  UNL     1      19.541  36.725  14.486  1.00  0.00    -0.160 N
ATOM      7  H2  UNL     1      20.535  36.533  14.359  1.00  0.00     0.187 HD
HETATM    8  C4  UNL     1      18.939  37.670  13.624  1.00  0.00     0.231 C
HETATM    9  C5  UNL     1      19.237  39.115  13.798  1.00  0.00     0.118 C
HETATM   10  O1  UNL     1      18.148  37.355  12.696  1.00  0.00    -0.273 OA
HETATM   11  N3  UNL     1      19.657  35.172  16.207  1.00  0.00    -0.192 N
ATOM     12  H3  UNL     1      19.498  34.170  16.102  1.00  0.00     0.180 HD
ENDROOT
BRANCH  11  13
HETATM   13  C6  UNL     1      20.631  35.655  17.164  1.00  0.00     0.354 C
HETATM   14  N4  UNL     1      20.440  37.099  17.259  1.00  0.00     0.004 N
HETATM   15  C7  UNL     1      21.492  37.709  16.488  1.00  0.00     0.582 C
ATOM     16  H42 UNL     1      19.507  37.401  16.975  1.00  0.00     0.284 HD
ATOM     17  H41 UNL     1      20.398  37.436  18.220  1.00  0.00     0.284 HD
HETATM   18  N6  UNL     1      22.130  36.664  15.746  1.00  0.00     0.003 N
HETATM   19  C8  UNL     1      22.001  35.468  16.548  1.00  0.00     0.342 C
ATOM     20  H62 UNL     1      21.768  36.560  14.798  1.00  0.00     0.284 HD
ATOM     21  H61 UNL     1      23.093  36.879  15.488  1.00  0.00     0.284 HD
BRANCH  15  22
HETATM   22  N5  UNL     1      20.957  38.678  15.569  1.00  0.00    -0.025 N
ATOM     23  H53 UNL     1      21.250  39.626  15.806  1.00  0.00     0.278 HD
ATOM     24  H52 UNL     1      21.393  38.608  14.649  1.00  0.00     0.278 HD
ATOM     25  H51 UNL     1      19.941  38.600  15.513  1.00  0.00     0.278 HD
ENDBRANCH  15  22
BRANCH  19  26
HETATM   26  N7  UNL     1      23.033  35.301  17.512  1.00  0.00    -0.330 N
HETATM   27  C9  UNL     1      24.415  35.513  17.265  1.00  0.00     0.215 C
HETATM   28  C10 UNL     1      25.454  35.332  18.281  1.00  0.00     0.117 C
HETATM   29  O2  UNL     1      24.797  35.877  16.102  1.00  0.00    -0.274 OA
ATOM     30  H7  UNL     1      22.760  35.009  18.450  1.00  0.00     0.164 HD
ENDBRANCH  19  26
ENDBRANCH  11  13
TORSDOF 3
ENDMDL