MODEL 2
REMARK VINA RESULT: -3.783788560      5.986      8.184
REMARK  4 active torsions:
REMARK  status: ('A' for Active; 'I' for Inactive)
REMARK    1  A    between atoms: C2_2  and  C3_3
REMARK       I    between atoms: C3_3  and  N1_5
REMARK    2  A    between atoms: C4_7  and  C5_8
REMARK    3  A    between atoms: C5_8  and  N2_9
REMARK    4  A    between atoms: C5_8  and  N3_13
ROOT
HETATM    1  C3  UNL     1      26.442  36.740  19.398  1.00  0.00     0.270 C
HETATM    2  O1  UNL     1      26.088  35.586  19.862  1.00  0.00    -0.266 OA
HETATM    3  N1  UNL     1      26.012  37.049  18.104  1.00  0.00    -0.172 N
HETATM    4  O2  UNL     1      25.255  36.184  17.347  1.00  0.00    -0.262 OA
HETATM    5  C4  UNL     1      24.138  37.008  17.113  1.00  0.00     0.216 C
HETATM    6  C6  UNL     1      24.655  38.384  16.905  1.00  0.00     0.119 C
HETATM    7  C7  UNL     1      26.158  38.168  17.212  1.00  0.00     0.226 C
HETATM    8  N4  UNL     1      26.699  39.351  17.741  1.00  0.00    -0.376 N
ATOM      9  H4  UNL     1      26.262  39.816  18.537  1.00  0.00     0.157 HD
HETATM   10  C8  UNL     1      27.862  39.880  17.143  1.00  0.00     0.138 C
HETATM   11  C9  UNL     1      27.610  40.741  15.904  1.00  0.00     0.157 C
HETATM   12  N5  UNL     1      27.296  39.883  14.772  1.00  0.00    -0.225 N
ATOM     13  H5  UNL     1      27.261  40.327  13.854  1.00  0.00     0.177 HD
HETATM   14  C10 UNL     1      27.030  38.464  14.820  1.00  0.00     0.671 C
HETATM   15  N6  UNL     1      27.087  37.833  13.713  1.00  0.00    -0.235 N
ATOM     16  H61 UNL     1      26.899  36.831  13.747  1.00  0.00     0.174 HD
ATOM     17  H62 UNL     1      27.314  38.385  12.886  1.00  0.00     0.174 HD
HETATM   18  N7  UNL     1      26.716  37.704  15.958  1.00  0.00    -0.179 N
ATOM     19  H7  UNL     1      26.905  36.704  15.895  1.00  0.00     0.182 HD
ENDROOT
BRANCH   1  20
HETATM   20  C2  UNL     1      27.250  37.602  20.268  1.00  0.00     0.066 C
HETATM   21  C1  UNL     1      27.847  37.080  21.302  1.00  0.00     0.017 C
ENDBRANCH   1  20
BRANCH   5  22
HETATM   22  C5  UNL     1      23.255  36.487  16.035  1.00  0.00     0.409 C
BRANCH  22  23
HETATM   23  N2  UNL     1      21.919  36.974  16.050  1.00  0.00    -0.048 N
ATOM     24  H23 UNL     1      21.553  36.960  17.002  1.00  0.00     0.276 HD
ATOM     25  H22 UNL     1      21.910  37.977  15.868  1.00  0.00     0.276 HD
ATOM     26  H21 UNL     1      21.272  36.499  15.419  1.00  0.00     0.276 HD
ENDBRANCH  22  23
BRANCH  22  27
HETATM   27  N3  UNL     1      23.297  35.043  16.064  1.00  0.00    -0.048 N
ATOM     28  H33 UNL     1      22.520  34.641  16.588  1.00  0.00     0.276 HD
ATOM     29  H32 UNL     1      23.085  34.626  15.157  1.00  0.00     0.276 HD
ATOM     30  H31 UNL     1      24.205  34.751  16.426  1.00  0.00     0.276 HD
ENDBRANCH  22  27
ENDBRANCH   5  22
TORSDOF 4
ENDMDL