MODEL 2
REMARK VINA RESULT: -5.875619604      1.794      4.667
REMARK  3 active torsions:
REMARK  status: ('A' for Active; 'I' for Inactive)
REMARK    1  A    between atoms: C4_9  and  N4_10
REMARK    2  A    between atoms: C4_9  and  C7_15
REMARK       I    between atoms: N4_10  and  C5_12
REMARK       I    between atoms: C7_15  and  N5_17
REMARK    3  A    between atoms: C9_21  and  O3_22
ROOT
HETATM    1  C7  UNL     1      21.379  36.324  15.261  1.00  0.00     0.263 C
HETATM    2  O2  UNL     1      22.040  36.340  14.202  1.00  0.00    -0.270 OA
HETATM    3  N5  UNL     1      21.958  35.808  16.441  1.00  0.00    -0.262 N
ATOM      4  H5  UNL     1      21.418  35.790  17.307  1.00  0.00     0.181 HD
HETATM    5  C8  UNL     1      23.297  35.312  16.424  1.00  0.00     0.184 C
HETATM    6  N6  UNL     1      24.389  34.929  16.409  1.00  0.00    -0.172 NA
ENDROOT
BRANCH   1   7
HETATM    7  C4  UNL     1      19.965  36.844  15.311  1.00  0.00     0.162 C
HETATM    8  C3  UNL     1      19.552  36.775  16.748  1.00  0.00     0.179 C
HETATM    9  N3  UNL     1      19.109  35.492  17.181  1.00  0.00    -0.137 NA
HETATM   10  N2  UNL     1      17.925  35.175  16.484  1.00  0.00    -0.291 N
HETATM   11  C2  UNL     1      17.831  35.537  15.090  1.00  0.00     0.120 C
ATOM     12  H2  UNL     1      17.153  34.701  16.953  1.00  0.00     0.183 HD
HETATM   13  N1  UNL     1      16.742  35.413  14.448  1.00  0.00    -0.381 N
HETATM   14  C9  UNL     1      19.059  36.059  14.438  1.00  0.00     0.225 C
HETATM   15  C1  UNL     1      15.491  34.930  14.927  1.00  0.00     0.147 C
ATOM     16  H1  UNL     1      16.766  35.694  13.468  1.00  0.00     0.160 HD
BRANCH  14  17
HETATM   17  O3  UNL     1      19.733  35.016  13.776  1.00  0.00    -0.385 OA
ATOM     18  H3  UNL     1      19.669  35.133  12.836  1.00  0.00     0.210 HD
ENDBRANCH  14  17
BRANCH   7  19
HETATM   19  N4  UNL     1      19.998  38.232  14.847  1.00  0.00    -0.340 N
HETATM   20  C5  UNL     1      19.256  38.750  13.777  1.00  0.00     0.214 C
HETATM   21  C6  UNL     1      19.359  40.173  13.394  1.00  0.00     0.117 C
HETATM   22  O1  UNL     1      18.484  38.035  13.108  1.00  0.00    -0.274 OA
ATOM     23  H4  UNL     1      20.612  38.876  15.344  1.00  0.00     0.163 HD
ENDBRANCH   7  19
ENDBRANCH   1   7
TORSDOF 3
ENDMDL