MODEL 5
REMARK VINA RESULT: -4.881631487      2.810      5.660
REMARK  3 active torsions:
REMARK  status: ('A' for Active; 'I' for Inactive)
REMARK       I    between atoms: C1_4  and  N2_5
REMARK       I    between atoms: C1_4  and  N5_21
REMARK       I    between atoms: N2_5  and  C2_7
REMARK    1  A    between atoms: C2_7  and  C3_9
REMARK    2  A    between atoms: C3_9  and  O2_10
REMARK    3  A    between atoms: C3_9  and  C4_12
ROOT
HETATM    1  N1  UNL     1      19.015  39.309  13.771  1.00  0.00    -0.234 N
ATOM      2  H11 UNL     1      18.215  39.355  13.139  1.00  0.00     0.174 HD
ATOM      3  H12 UNL     1      19.570  40.132  14.006  1.00  0.00     0.174 HD
HETATM    4  C1  UNL     1      19.358  38.190  14.306  1.00  0.00     0.676 C
HETATM    5  N2  UNL     1      20.448  38.126  15.166  1.00  0.00    -0.158 N
ATOM      6  H2  UNL     1      20.942  39.003  15.338  1.00  0.00     0.187 HD
HETATM    7  C2  UNL     1      20.951  36.980  15.832  1.00  0.00     0.268 C
HETATM    8  O1  UNL     1      20.367  35.884  15.640  1.00  0.00    -0.270 OA
HETATM    9  N5  UNL     1      18.590  37.049  13.980  1.00  0.00    -0.215 N
HETATM   10  C7  UNL     1      19.047  36.285  12.810  1.00  0.00     0.168 C
HETATM   11  C8  UNL     1      18.436  34.929  12.717  1.00  0.00     0.252 C
HETATM   12  N6  UNL     1      17.010  34.977  13.059  1.00  0.00    -0.072 N
ATOM     13  H61 UNL     1      16.496  34.136  12.798  1.00  0.00     0.277 HD
ATOM     14  H62 UNL     1      16.471  35.627  12.488  1.00  0.00     0.277 HD
HETATM   15  C9  UNL     1      16.970  35.273  14.486  1.00  0.00     0.252 C
HETATM   16  C10 UNL     1      17.433  36.673  14.737  1.00  0.00     0.168 C
ENDROOT
BRANCH   7  17
HETATM   17  C3  UNL     1      22.124  36.985  16.742  1.00  0.00     0.269 C
BRANCH  17  18
HETATM   18  O2  UNL     1      22.501  38.356  16.877  1.00  0.00    -0.382 OA
ATOM     19  H2  UNL     1      22.645  38.491  17.806  1.00  0.00     0.210 HD
ENDBRANCH  17  18
BRANCH  17  20
HETATM   20  C4  UNL     1      23.283  36.316  16.056  1.00  0.00     0.420 C
HETATM   21  N3  UNL     1      23.767  35.125  16.676  1.00  0.00    -0.042 N
HETATM   22  C5  UNL     1      25.166  34.996  16.319  1.00  0.00     0.262 C
ATOM     23  H32 UNL     1      23.608  35.106  17.684  1.00  0.00     0.279 HD
ATOM     24  H31 UNL     1      23.217  34.299  16.441  1.00  0.00     0.279 HD
HETATM   25  C6  UNL     1      25.503  36.248  15.585  1.00  0.00     0.262 C
HETATM   26  N4  UNL     1      24.468  37.187  15.984  1.00  0.00    -0.042 N
ATOM     27  H42 UNL     1      24.370  38.004  15.382  1.00  0.00     0.279 HD
ATOM     28  H41 UNL     1      24.669  37.717  16.832  1.00  0.00     0.279 HD
ENDBRANCH  17  20
ENDBRANCH   7  17
TORSDOF 3
ENDMDL