MODEL 2
REMARK VINA RESULT: -5.812756749      1.805      3.026
REMARK  5 active torsions:
REMARK  status: ('A' for Active; 'I' for Inactive)
REMARK    1  A    between atoms: N1_1  and  N2_4
REMARK    2  A    between atoms: N2_4  and  N3_5
REMARK    3  A    between atoms: N3_5  and  C1_7
REMARK    4  A    between atoms: C1_7  and  O1_8
REMARK    5  A    between atoms: C3_14  and  N4_15
REMARK       I    between atoms: N4_15  and  C4_17
ROOT
HETATM    1  C1  UNL     1      19.538  45.863   9.846  1.00  0.00     0.255 C
HETATM    2  C2  UNL     1      20.851  46.611   9.753  1.00  0.00     0.232 C
HETATM    3  S1  UNL     1      21.342  47.266  11.315  1.00  0.00     0.190 S
HETATM    4  O2  UNL     1      20.249  48.102  11.886  1.00  0.00    -0.224 OA
HETATM    5  O3  UNL     1      22.533  48.167  11.072  1.00  0.00    -0.224 OA
HETATM    6  C3  UNL     1      21.836  46.044  12.473  1.00  0.00     0.313 C
HETATM    7  N7  UNL     1      20.935  44.960  12.638  1.00  0.00    -0.309 N
ATOM      8  H7  UNL     1      20.787  44.686  13.609  1.00  0.00     0.167 HD
HETATM    9  C5  UNL     1      20.204  44.187  11.701  1.00  0.00     0.322 C
HETATM   10  O4  UNL     1      19.833  43.022  12.080  1.00  0.00    -0.247 OA
HETATM   11  N8  UNL     1      19.832  44.556  10.385  1.00  0.00    -0.291 N
ATOM     12  H8  UNL     1      19.762  43.785   9.720  1.00  0.00     0.169 HD
ENDROOT
BRANCH   1  13
HETATM   13  N3  UNL     1      18.873  45.729   8.590  1.00  0.00    -0.197 N
ATOM     14  H3  UNL     1      18.875  44.837   8.096  1.00  0.00     0.202 HD
BRANCH  13  15
HETATM   15  N2  UNL     1      18.301  46.705   8.113  1.00  0.00    -0.244 NA
BRANCH  15  16
HETATM   16  N1  UNL     1      17.770  47.766   7.721  1.00  0.00    -0.261 N
ATOM     17  H12 UNL     1      17.726  47.947   8.725  1.00  0.00     0.193 HD
ATOM     18  H11 UNL     1      17.351  48.597   7.304  1.00  0.00     0.193 HD
ENDBRANCH  15  16
ENDBRANCH  13  15
ENDBRANCH   1  13
BRANCH   1  19
HETATM   19  O1  UNL     1      18.733  46.607  10.736  1.00  0.00    -0.351 OA
ATOM     20  H1  UNL     1      18.048  46.052  11.091  1.00  0.00     0.214 HD
ENDBRANCH   1  19
BRANCH   6  21
HETATM   21  N4  UNL     1      21.994  46.707  13.754  1.00  0.00    -0.331 N
HETATM   22  C4  UNL     1      22.841  46.178  14.767  1.00  0.00     0.184 C
HETATM   23  N5  UNL     1      24.104  46.042  14.554  1.00  0.00    -0.374 N
HETATM   24  N6  UNL     1      22.249  45.812  16.003  1.00  0.00    -0.064 NA
ATOM     25  H52 UNL     1      24.530  46.305  13.665  1.00  0.00     0.158 HD
ATOM     26  H51 UNL     1      24.712  45.663  15.279  1.00  0.00     0.158 HD
ATOM     27  H4  UNL     1      21.485  47.573  13.933  1.00  0.00     0.165 HD
ENDBRANCH   6  21
TORSDOF 5
ENDMDL