MODEL 4
REMARK VINA RESULT: -2.992577087      1.865      4.015
REMARK  3 active torsions:
REMARK  status: ('A' for Active; 'I' for Inactive)
REMARK    1  A    between atoms: C1_2  and  C2_4
REMARK    2  A    between atoms: C2_4  and  N2_5
REMARK    3  A    between atoms: C2_4  and  C3_9
ROOT
HETATM    1  C3  UNL     1      19.640  43.696  12.374  1.00  0.00     0.117 C
HETATM    2  C4  UNL     1      18.309  43.772  11.612  1.00  0.00     0.055 C
HETATM    3  C5  UNL     1      18.511  44.118  10.172  1.00  0.00     0.234 C
HETATM    4  N3  UNL     1      17.426  44.959   9.712  1.00  0.00    -0.073 N
ATOM      5  H31 UNL     1      16.884  45.341  10.487  1.00  0.00     0.277 HD
ATOM      6  H32 UNL     1      16.686  44.418   9.265  1.00  0.00     0.277 HD
HETATM    7  C6  UNL     1      17.941  46.014   8.831  1.00  0.00     0.259 C
HETATM    8  C7  UNL     1      18.571  47.135   9.598  1.00  0.00     0.259 C
HETATM    9  N4  UNL     1      19.964  47.293   9.210  1.00  0.00    -0.072 N
ATOM     10  H41 UNL     1      20.072  47.277   8.196  1.00  0.00     0.277 HD
ATOM     11  H42 UNL     1      20.511  46.463   9.441  1.00  0.00     0.277 HD
HETATM   12  C8  UNL     1      20.545  48.481   9.782  1.00  0.00     0.259 C
HETATM   13  C9  UNL     1      21.110  48.088  11.144  1.00  0.00     0.259 C
HETATM   14  N5  UNL     1      21.947  46.916  11.016  1.00  0.00    -0.072 N
ATOM     15  H51 UNL     1      22.806  47.102  10.499  1.00  0.00     0.277 HD
ATOM     16  H52 UNL     1      21.552  46.219  10.384  1.00  0.00     0.277 HD
HETATM   17  C10 UNL     1      22.197  46.387  12.338  1.00  0.00     0.251 C
HETATM   18  C11 UNL     1      21.044  45.595  12.881  1.00  0.00     0.142 C
HETATM   19  N6  UNL     1      20.561  44.676  11.898  1.00  0.00    -0.413 N
ATOM     20  H6  UNL     1      20.856  44.718  10.922  1.00  0.00     0.153 HD
ENDROOT
BRANCH   1  21
HETATM   21  C2  UNL     1      20.115  42.270  12.228  1.00  0.00     0.293 C
BRANCH  21  22
HETATM   22  C1  UNL     1      20.101  41.488  13.453  1.00  0.00     0.263 C
HETATM   23  N1  UNL     1      19.472  40.212  13.604  1.00  0.00    -0.060 NA
HETATM   24  O1  UNL     1      20.671  41.924  14.483  1.00  0.00    -0.274 OA
ENDBRANCH  21  22
BRANCH  21  25
HETATM   25  N2  UNL     1      19.272  41.623  11.245  1.00  0.00    -0.065 N
ATOM     26  H23 UNL     1      19.456  40.622  11.175  1.00  0.00     0.275 HD
ATOM     27  H22 UNL     1      18.298  41.569  11.544  1.00  0.00     0.275 HD
ATOM     28  H21 UNL     1      19.378  42.100  10.350  1.00  0.00     0.275 HD
ENDBRANCH  21  25
ENDBRANCH   1  21
TORSDOF 3
ENDMDL