MODEL 4
REMARK VINA RESULT: -5.305099730      2.709      4.547
REMARK  1 active torsions:
REMARK  status: ('A' for Active; 'I' for Inactive)
REMARK       I    between atoms: N2_3  and  C2_5
REMARK    1  A    between atoms: C2_5  and  C3_7
ROOT
HETATM    1  N1  UNL     1      19.471  42.062  11.807  1.00  0.00    -0.172 NA
HETATM    2  C1  UNL     1      19.320  41.036  12.329  1.00  0.00     0.184 C
HETATM    3  N2  UNL     1      19.156  39.803  12.954  1.00  0.00    -0.261 N
ATOM      4  H2  UNL     1      18.509  39.109  12.579  1.00  0.00     0.181 HD
HETATM    5  C2  UNL     1      19.921  39.530  14.147  1.00  0.00     0.281 C
HETATM    6  O1  UNL     1      20.717  40.387  14.606  1.00  0.00    -0.268 OA
ENDROOT
BRANCH   5   7
HETATM    7  C3  UNL     1      19.788  38.233  14.856  1.00  0.00     0.385 C
HETATM    8  N3  UNL     1      21.079  37.675  15.061  1.00  0.00    -0.307 N
HETATM    9  C4  UNL     1      21.425  36.321  14.771  1.00  0.00     0.320 C
ATOM     10  H3  UNL     1      21.806  38.282  15.439  1.00  0.00     0.166 HD
HETATM   11  O2  UNL     1      22.587  35.857  14.974  1.00  0.00    -0.247 OA
HETATM   12  N4  UNL     1      20.383  35.512  14.234  1.00  0.00    -0.301 N
HETATM   13  C5  UNL     1      19.028  36.001  14.354  1.00  0.00     0.262 C
ATOM     14  H4  UNL     1      20.586  34.621  13.781  1.00  0.00     0.167 HD
HETATM   15  C6  UNL     1      18.535  35.616  15.730  1.00  0.00     0.094 C
HETATM   16  S1  UNL     1      18.019  35.119  13.129  1.00  0.00    -0.034 SA
HETATM   17  N7  UNL     1      18.896  37.406  14.091  1.00  0.00    -0.009 N
HETATM   18  C7  UNL     1      17.110  36.006  15.962  1.00  0.00     0.127 C
HETATM   19  N5  UNL     1      16.166  35.269  15.152  1.00  0.00    -0.371 N
HETATM   20  C8  UNL     1      16.343  35.097  13.753  1.00  0.00     0.137 C
ATOM     21  H5  UNL     1      15.347  34.859  15.600  1.00  0.00     0.161 HD
HETATM   22  N6  UNL     1      15.328  34.929  12.949  1.00  0.00    -0.380 N
ATOM     23  H62 UNL     1      14.373  34.917  13.305  1.00  0.00     0.158 HD
ATOM     24  H61 UNL     1      15.456  34.806  11.944  1.00  0.00     0.158 HD
ATOM     25  H72 UNL     1      17.930  37.706  14.222  1.00  0.00     0.284 HD
ATOM     26  H71 UNL     1      19.002  37.594  13.094  1.00  0.00     0.284 HD
ENDBRANCH   5   7
TORSDOF 1
ENDMDL