MODEL 4
REMARK VINA RESULT: -5.777278078      4.100      7.752
REMARK  3 active torsions:
REMARK  status: ('A' for Active; 'I' for Inactive)
REMARK    1  A    between atoms: S1_2  and  N1_5
REMARK    2  A    between atoms: C4_8  and  N2_9
REMARK       I    between atoms: N2_9  and  C5_11
REMARK       I    between atoms: C5_11  and  N4_15
REMARK       I    between atoms: N4_15  and  C6_17
REMARK       I    between atoms: C6_17  and  N6_21
REMARK    3  A    between atoms: N6_21  and  C7_23
ROOT
HETATM    1  N2  UNL     1     -28.827 -21.668 -18.985  1.00  0.00    -0.213 N
ATOM      2  H2  UNL     1     -28.454 -22.136 -18.160  1.00  0.00     0.178 HD
HETATM    3  C5  UNL     1     -27.961 -21.399 -20.075  1.00  0.00     0.686 C
HETATM    4  N3  UNL     1     -27.597 -22.391 -20.814  1.00  0.00    -0.234 N
ATOM      5  H31 UNL     1     -26.974 -22.198 -21.599  1.00  0.00     0.174 HD
ATOM      6  H32 UNL     1     -27.933 -23.331 -20.605  1.00  0.00     0.174 HD
HETATM    7  N4  UNL     1     -27.494 -20.096 -20.366  1.00  0.00    -0.023 N
ATOM      8  H4  UNL     1     -28.045 -19.290 -20.074  1.00  0.00     0.203 HD
HETATM    9  C6  UNL     1     -26.276 -19.895 -21.053  1.00  0.00     0.692 C
HETATM   10  N5  UNL     1     -25.143 -20.304 -20.538  1.00  0.00    -0.234 N
ATOM     11  H51 UNL     1     -24.264 -20.158 -21.035  1.00  0.00     0.174 HD
ATOM     12  H52 UNL     1     -25.184 -20.768 -19.631  1.00  0.00     0.174 HD
HETATM   13  N6  UNL     1     -26.218 -19.248 -22.316  1.00  0.00    -0.167 N
ATOM     14  H6  UNL     1     -25.315 -19.125 -22.776  1.00  0.00     0.186 HD
ENDROOT
BRANCH   1  15
HETATM   15  C4  UNL     1     -30.214 -21.300 -19.006  1.00  0.00     0.194 C
HETATM   16  C3  UNL     1     -30.649 -20.534 -17.803  1.00  0.00     0.056 C
HETATM   17  C2  UNL     1     -31.554 -21.426 -16.981  1.00  0.00     0.147 C
HETATM   18  N1  UNL     1     -32.149 -22.263 -18.002  1.00  0.00    -0.244 N
HETATM   19  C8  UNL     1     -31.139 -22.464 -18.979  1.00  0.00     0.256 C
HETATM   20  O4  UNL     1     -31.064 -23.498 -19.707  1.00  0.00    -0.270 OA
BRANCH  18  21
HETATM   21  S1  UNL     1     -33.769 -22.872 -17.985  1.00  0.00     0.231 S
HETATM   22  C1  UNL     1     -34.542 -22.719 -19.569  1.00  0.00     0.186 C
HETATM   23  O1  UNL     1     -33.809 -24.292 -17.543  1.00  0.00    -0.206 OA
HETATM   24  O2  UNL     1     -34.542 -22.063 -16.983  1.00  0.00    -0.206 OA
ENDBRANCH  18  21
ENDBRANCH   1  15
BRANCH  13  25
HETATM   25  C7  UNL     1     -27.387 -18.774 -22.948  1.00  0.00     0.368 C
HETATM   26  O3  UNL     1     -28.140 -19.503 -23.610  1.00  0.00    -0.283 OA
ENDBRANCH  13  25
TORSDOF 3
ENDMDL