MODEL 2
REMARK VINA RESULT: -4.631428903      1.453      1.501
REMARK  6 active torsions:
REMARK  status: ('A' for Active; 'I' for Inactive)
REMARK    1  A    between atoms: C3_3  and  C4_4
REMARK    2  A    between atoms: C4_4  and  C5_5
REMARK       I    between atoms: C5_5  and  N1_7
REMARK    3  A    between atoms: N1_7  and  N2_9
REMARK    4  A    between atoms: C11_18  and  N3_19
REMARK    5  A    between atoms: N3_19  and  S1_21
REMARK    6  A    between atoms: S1_21  and  N4_22
ROOT
HETATM    1  C1  UNL     1     -29.260 -20.277 -16.072  1.00  0.00     0.112 C
HETATM    2  C2  UNL     1     -30.483 -20.975 -16.506  1.00  0.00    -0.109 C
HETATM    3  C3  UNL     1     -31.494 -21.532 -16.848  1.00  0.00    -0.072 C
ENDROOT
BRANCH   3   4
HETATM    4  C4  UNL     1     -32.717 -22.180 -17.252  1.00  0.00     0.209 C
HETATM    5  C6  UNL     1     -33.518 -22.453 -16.032  1.00  0.00     0.174 C
HETATM    6  O2  UNL     1     -34.266 -21.719 -15.411  1.00  0.00    -0.294 OA
HETATM    7  C7  UNL     1     -33.235 -23.853 -15.676  1.00  0.00     0.035 C
HETATM    8  C8  UNL     1     -34.525 -24.541 -15.274  1.00  0.00     0.027 C
HETATM    9  C9  UNL     1     -32.261 -24.004 -14.549  1.00  0.00     0.027 C
HETATM   10  C10 UNL     1     -32.788 -24.431 -16.945  1.00  0.00     0.018 C
HETATM   11  C11 UNL     1     -32.493 -23.518 -17.841  1.00  0.00     0.056 C
BRANCH   4  12
HETATM   12  C5  UNL     1     -33.478 -21.382 -18.247  1.00  0.00     0.270 C
HETATM   13  O1  UNL     1     -34.542 -20.853 -17.864  1.00  0.00    -0.269 OA
HETATM   14  N1  UNL     1     -33.049 -21.206 -19.571  1.00  0.00    -0.275 N
ATOM     15  H1  UNL     1     -32.180 -21.639 -19.882  1.00  0.00     0.189 HD
BRANCH  14  16
HETATM   16  N2  UNL     1     -33.796 -20.452 -20.457  1.00  0.00    -0.343 N
ATOM     17  H22 UNL     1     -34.691 -20.820 -20.780  1.00  0.00     0.176 HD
ATOM     18  H21 UNL     1     -33.456 -19.546 -20.781  1.00  0.00     0.176 HD
ENDBRANCH  14  16
ENDBRANCH   4  12
BRANCH  11  19
HETATM   19  N3  UNL     1     -32.022 -23.752 -19.199  1.00  0.00    -0.269 N
ATOM     20  H3  UNL     1     -31.056 -23.548 -19.455  1.00  0.00     0.180 HD
BRANCH  19  21
HETATM   21  S1  UNL     1     -33.113 -24.376 -20.356  1.00  0.00     0.317 S
HETATM   22  O3  UNL     1     -33.493 -23.303 -21.321  1.00  0.00    -0.183 OA
HETATM   23  O4  UNL     1     -34.307 -24.934 -19.632  1.00  0.00    -0.183 OA
BRANCH  21  24
HETATM   24  N4  UNL     1     -32.363 -25.665 -21.233  1.00  0.00    -0.311 N
ATOM     25  H42 UNL     1     -31.729 -26.350 -20.820  1.00  0.00     0.170 HD
ATOM     26  H41 UNL     1     -32.651 -25.631 -22.211  1.00  0.00     0.170 HD
ENDBRANCH  21  24
ENDBRANCH  19  21
ENDBRANCH  11  19
ENDBRANCH   3   4
TORSDOF 6
ENDMDL