MODEL 2
REMARK VINA RESULT: -4.831879780      1.813      2.091
REMARK  4 active torsions:
REMARK  status: ('A' for Active; 'I' for Inactive)
REMARK    1  A    between atoms: C4_9  and  N2_10
REMARK    2  A    between atoms: C4_9  and  C8_18
REMARK    3  A    between atoms: N2_10  and  S2_12
REMARK    4  A    between atoms: S2_12  and  C5_15
ROOT
HETATM    1  C1  UNL     1     -30.165 -19.774 -15.944  1.00  0.00     0.039 C
HETATM    2  C2  UNL     1     -30.477 -21.003 -16.333  1.00  0.00     0.015 C
HETATM    3  C3  UNL     1     -30.339 -21.322 -17.797  1.00  0.00     0.219 C
HETATM    4  S1  UNL     1     -31.676 -22.378 -18.212  1.00  0.00     0.235 S
HETATM    5  O1  UNL     1     -32.825 -21.538 -18.686  1.00  0.00    -0.205 OA
HETATM    6  O2  UNL     1     -31.244 -23.202 -19.418  1.00  0.00    -0.205 OA
HETATM    7  N1  UNL     1     -32.120 -23.438 -16.960  1.00  0.00    -0.267 N
ATOM      8  H1  UNL     1     -32.466 -24.378 -17.148  1.00  0.00     0.177 HD
HETATM    9  C4  UNL     1     -31.980 -22.940 -15.637  1.00  0.00     0.260 C
HETATM   10  N5  UNL     1     -30.923 -22.001 -15.442  1.00  0.00    -0.343 N
ATOM     11  H5  UNL     1     -30.430 -22.060 -14.550  1.00  0.00     0.164 HD
ENDROOT
BRANCH   9  12
HETATM   12  N2  UNL     1     -31.963 -23.934 -14.622  1.00  0.00    -0.263 N
ATOM     13  H2  UNL     1     -31.227 -23.926 -13.916  1.00  0.00     0.177 HD
BRANCH  12  14
HETATM   14  S2  UNL     1     -33.145 -25.118 -14.583  1.00  0.00     0.257 S
HETATM   15  O3  UNL     1     -34.289 -24.861 -15.532  1.00  0.00    -0.201 OA
HETATM   16  O4  UNL     1     -32.528 -26.445 -15.023  1.00  0.00    -0.201 OA
BRANCH  14  17
HETATM   17  C5  UNL     1     -33.718 -25.360 -12.953  1.00  0.00     0.044 C
HETATM   18  C6  UNL     1     -34.542 -26.392 -12.704  1.00  0.00     0.033 C
HETATM   19  C7  UNL     1     -33.363 -24.502 -11.799  1.00  0.00     0.062 C
ENDBRANCH  14  17
ENDBRANCH  12  14
ENDBRANCH   9  12
BRANCH   9  20
HETATM   20  C8  UNL     1     -33.254 -22.160 -15.333  1.00  0.00     0.159 C
HETATM   21  N3  UNL     1     -34.189 -22.018 -16.184  1.00  0.00    -0.386 N
ATOM     22  H32 UNL     1     -34.168 -22.399 -17.130  1.00  0.00     0.157 HD
ATOM     23  H31 UNL     1     -35.042 -21.497 -15.981  1.00  0.00     0.157 HD
HETATM   24  N4  UNL     1     -33.285 -21.631 -14.020  1.00  0.00    -0.081 NA
ENDBRANCH   9  20
TORSDOF 4
ENDMDL