MODEL 5
REMARK VINA RESULT: -2.780090077      2.942      5.176
REMARK  3 active torsions:
REMARK  status: ('A' for Active; 'I' for Inactive)
REMARK    1  A    between atoms: C2_2  and  N1_3
REMARK       I    between atoms: N1_3  and  C3_5
REMARK    2  A    between atoms: C3_5  and  C4_7
REMARK    3  A    between atoms: C4_7  and  N2_8
ROOT
HETATM    1  N2  UNL     1     -30.051 -20.751 -18.436  1.00  0.00    -0.359 N
HETATM    2  C5  UNL     1     -30.528 -20.542 -17.133  1.00  0.00     0.107 C
HETATM    3  C6  UNL     1     -30.013 -21.492 -16.092  1.00  0.00     0.104 C
HETATM    4  N3  UNL     1     -30.983 -22.179 -15.341  1.00  0.00    -0.373 N
ATOM      5  H3  UNL     1     -30.880 -23.179 -15.165  1.00  0.00     0.164 HD
HETATM    6  C7  UNL     1     -32.097 -21.484 -14.832  1.00  0.00     0.104 C
HETATM    7  C8  UNL     1     -32.925 -22.389 -13.963  1.00  0.00     0.100 C
HETATM    8  N4  UNL     1     -33.319 -23.616 -14.528  1.00  0.00    -0.396 N
ATOM      9  H4  UNL     1     -33.765 -24.335 -13.959  1.00  0.00     0.158 HD
HETATM   10  C9  UNL     1     -33.080 -23.823 -15.905  1.00  0.00     0.146 C
HETATM   11  C10 UNL     1     -34.152 -24.785 -16.443  1.00  0.00     0.251 C
HETATM   12  N5  UNL     1     -34.342 -24.593 -17.863  1.00  0.00    -0.072 N
ATOM     13  H51 UNL     1     -34.700 -23.658 -18.061  1.00  0.00     0.277 HD
ATOM     14  H52 UNL     1     -35.128 -25.147 -18.204  1.00  0.00     0.277 HD
HETATM   15  C11 UNL     1     -33.145 -24.863 -18.634  1.00  0.00     0.251 C
HETATM   16  C12 UNL     1     -33.008 -23.747 -19.643  1.00  0.00     0.141 C
HETATM   17  N6  UNL     1     -31.687 -23.589 -20.162  1.00  0.00    -0.418 N
ATOM     18  H6  UNL     1     -31.424 -23.918 -21.091  1.00  0.00     0.153 HD
HETATM   19  C13 UNL     1     -30.760 -22.939 -19.291  1.00  0.00     0.134 C
HETATM   20  C14 UNL     1     -30.953 -21.446 -19.319  1.00  0.00     0.147 C
ENDROOT
BRANCH   1  21
HETATM   21  C4  UNL     1     -28.697 -20.876 -18.713  1.00  0.00     0.164 C
BRANCH  21  22
HETATM   22  C3  UNL     1     -28.232 -20.852 -20.103  1.00  0.00     0.256 C
HETATM   23  N1  UNL     1     -28.285 -19.778 -21.016  1.00  0.00    -0.357 N
ATOM     24  H1  UNL     1     -28.693 -18.893 -20.714  1.00  0.00     0.162 HD
HETATM   25  O1  UNL     1     -27.717 -21.957 -20.527  1.00  0.00    -0.267 OA
BRANCH  23  26
HETATM   26  C2  UNL     1     -27.776 -19.894 -22.377  1.00  0.00     0.118 C
HETATM   27  C1  UNL     1     -26.706 -18.894 -22.686  1.00  0.00     0.026 C
ENDBRANCH  23  26
ENDBRANCH  21  22
ENDBRANCH   1  21
TORSDOF 3
ENDMDL