MODEL 1
REMARK VINA RESULT: -7.556670132      0.000      0.000
REMARK  9 active torsions:
REMARK  status: ('A' for Active; 'I' for Inactive)
REMARK    1  A    between atoms: C2_2  and  O1_3
REMARK    2  A    between atoms: O1_3  and  C3_4
REMARK       I    between atoms: C3_4  and  N1_6
REMARK    3  A    between atoms: N1_6  and  N2_7
REMARK    4  A    between atoms: N2_7  and  C4_9
REMARK    5  A    between atoms: C4_9  and  N3_11
REMARK    6  A    between atoms: N3_11  and  N4_13
REMARK    7  A    between atoms: N4_13  and  C5_15
REMARK    8  A    between atoms: C5_15  and  C6_16
REMARK    9  A    between atoms: C6_16  and  C7_17
ROOT
HETATM    1  C5  UNL     1     -23.831 -18.468 -20.211  1.00  0.00     0.113 C
HETATM    2  N6  UNL     1     -24.776 -18.776 -19.422  1.00  0.00    -0.281 N
ATOM      3  H6  UNL     1     -25.604 -19.174 -19.867  1.00  0.00     0.179 HD
HETATM    4  C8  UNL     1     -24.847 -18.652 -18.046  1.00  0.00     0.183 C
HETATM    5  N7  UNL     1     -24.900 -18.519 -16.886  1.00  0.00    -0.172 NA
ENDROOT
BRANCH   1   6
HETATM    6  N4  UNL     1     -24.079 -18.736 -21.618  1.00  0.00    -0.286 N
ATOM      7  H4  UNL     1     -23.690 -19.544 -22.103  1.00  0.00     0.188 HD
BRANCH   6   8
HETATM    8  N3  UNL     1     -24.888 -17.802 -22.245  1.00  0.00    -0.273 N
ATOM      9  H3  UNL     1     -24.775 -16.813 -22.019  1.00  0.00     0.189 HD
BRANCH   8  10
HETATM   10  C4  UNL     1     -25.857 -18.182 -23.180  1.00  0.00     0.216 C
HETATM   11  S1  UNL     1     -25.636 -17.739 -24.762  1.00  0.00    -0.037 SA
BRANCH  10  12
HETATM   12  N2  UNL     1     -27.006 -18.975 -22.840  1.00  0.00    -0.202 N
ATOM     13  H2  UNL     1     -27.789 -18.950 -23.492  1.00  0.00     0.204 HD
BRANCH  12  14
HETATM   14  N1  UNL     1     -27.148 -19.719 -21.787  1.00  0.00    -0.256 NA
HETATM   15  C3  UNL     1     -27.283 -20.504 -20.682  1.00  0.00     0.458 C
HETATM   16  O2  UNL     1     -26.452 -21.234 -20.081  1.00  0.00    -0.219 OA
BRANCH  15  17
HETATM   17  O1  UNL     1     -28.620 -20.498 -20.099  1.00  0.00    -0.292 OA
BRANCH  17  18
HETATM   18  C2  UNL     1     -29.150 -21.743 -19.655  1.00  0.00     0.177 C
HETATM   19  C1  UNL     1     -30.434 -21.480 -18.877  1.00  0.00     0.034 C
ENDBRANCH  17  18
ENDBRANCH  15  17
ENDBRANCH  12  14
ENDBRANCH  10  12
ENDBRANCH   8  10
ENDBRANCH   6   8
ENDBRANCH   1   6
BRANCH   1  20
HETATM   20  C6  UNL     1     -22.522 -17.914 -19.798  1.00  0.00     0.177 C
BRANCH  20  21
HETATM   21  C7  UNL     1     -22.524 -16.432 -19.690  1.00  0.00     0.238 C
HETATM   22  N5  UNL     1     -23.542 -15.734 -20.387  1.00  0.00    -0.062 NA
HETATM   23  O3  UNL     1     -21.639 -15.851 -18.993  1.00  0.00    -0.276 OA
ENDBRANCH  20  21
ENDBRANCH   1  20
TORSDOF 9
ENDMDL