MODEL 5
REMARK VINA RESULT: -7.670053818      1.067      1.940
REMARK  5 active torsions:
REMARK  status: ('A' for Active; 'I' for Inactive)
REMARK    1  A    between atoms: C2_2  and  N1_3
REMARK    2  A    between atoms: C2_2  and  C10_20
REMARK    3  A    between atoms: C2_2  and  C11_23
REMARK       I    between atoms: N1_3  and  C3_5
REMARK       I    between atoms: C3_5  and  N2_7
REMARK    4  A    between atoms: N2_7  and  N3_9
REMARK       I    between atoms: N3_9  and  C4_11
REMARK    5  A    between atoms: C4_11  and  C5_13
ROOT
HETATM    1  N1  UNL     1     -31.442 -22.921 -18.361  1.00  0.00    -0.317 N
ATOM      2  H1  UNL     1     -31.207 -23.838 -18.741  1.00  0.00     0.166 HD
HETATM    3  C3  UNL     1     -30.659 -21.831 -18.762  1.00  0.00     0.336 C
HETATM    4  O1  UNL     1     -30.923 -20.692 -18.309  1.00  0.00    -0.246 OA
HETATM    5  N2  UNL     1     -29.576 -21.967 -19.663  1.00  0.00    -0.249 N
ATOM      6  H2  UNL     1     -29.344 -22.889 -20.034  1.00  0.00     0.192 HD
ENDROOT
BRANCH   5   7
HETATM    7  N3  UNL     1     -28.814 -20.855 -20.054  1.00  0.00    -0.262 N
HETATM    8  C4  UNL     1     -27.473 -20.975 -20.466  1.00  0.00     0.270 C
HETATM    9  O2  UNL     1     -26.972 -22.142 -20.470  1.00  0.00    -0.266 OA
ATOM     10  H3  UNL     1     -29.245 -19.930 -20.039  1.00  0.00     0.190 HD
BRANCH   8  11
HETATM   11  C5  UNL     1     -26.640 -19.862 -20.881  1.00  0.00     0.036 A
HETATM   12  C6  UNL     1     -25.647 -19.368 -20.037  1.00  0.00     0.034 A
HETATM   13  C7  UNL     1     -24.874 -18.327 -20.443  1.00  0.00     0.088 A
HETATM   14  N4  UNL     1     -25.055 -17.770 -21.648  1.00  0.00    -0.375 N
HETATM   15  C8  UNL     1     -26.002 -18.225 -22.477  1.00  0.00     0.088 A
ATOM     16  H4  UNL     1     -24.466 -16.989 -21.936  1.00  0.00     0.164 HD
HETATM   17  C9  UNL     1     -26.822 -19.291 -22.110  1.00  0.00     0.034 A
ENDBRANCH   8  11
ENDBRANCH   5   7
BRANCH   1  18
HETATM   18  C2  UNL     1     -32.556 -22.840 -17.452  1.00  0.00     0.188 C
HETATM   19  C1  UNL     1     -33.505 -21.764 -17.892  1.00  0.00     0.059 C
BRANCH  18  20
HETATM   20  C10 UNL     1     -32.070 -22.511 -16.072  1.00  0.00     0.268 C
HETATM   21  N5  UNL     1     -32.851 -21.643 -15.264  1.00  0.00    -0.059 NA
HETATM   22  O3  UNL     1     -30.990 -23.010 -15.669  1.00  0.00    -0.274 OA
ENDBRANCH  18  20
BRANCH  18  23
HETATM   23  C11 UNL     1     -33.289 -24.143 -17.357  1.00  0.00     0.268 C
HETATM   24  N6  UNL     1     -33.804 -24.742 -18.522  1.00  0.00    -0.059 NA
HETATM   25  O4  UNL     1     -33.469 -24.738 -16.264  1.00  0.00    -0.274 OA
ENDBRANCH  18  23
ENDBRANCH   1  18
TORSDOF 5
ENDMDL