MODEL 5
REMARK VINA RESULT: -6.631464693      2.814      4.434
REMARK  6 active torsions:
REMARK  status: ('A' for Active; 'I' for Inactive)
REMARK    1  A    between atoms: C4_5  and  N1_6
REMARK    2  A    between atoms: N1_6  and  C5_8
REMARK    3  A    between atoms: C5_8  and  N2_10
REMARK    4  A    between atoms: N2_10  and  C6_12
REMARK    5  A    between atoms: C6_12  and  C7_13
REMARK    6  A    between atoms: N3_15  and  N4_17
REMARK       I    between atoms: N4_17  and  C8_19
ROOT
HETATM    1  N2  UNL     1     -26.560 -18.275 -22.096  1.00  0.00    -0.316 N
ATOM      2  H2  UNL     1     -26.892 -17.453 -21.591  1.00  0.00     0.170 HD
ENDROOT
BRANCH   1   3
HETATM    3  C5  UNL     1     -25.292 -18.279 -22.685  1.00  0.00     0.174 C
HETATM    4  S1  UNL     1     -25.121 -17.718 -24.199  1.00  0.00    -0.041 SA
BRANCH   3   5
HETATM    5  N1  UNL     1     -24.176 -18.757 -21.993  1.00  0.00    -0.351 N
ATOM      6  H1  UNL     1     -23.434 -19.188 -22.545  1.00  0.00     0.163 HD
BRANCH   5   7
HETATM    7  C4  UNL     1     -23.985 -18.693 -20.572  1.00  0.00     0.103 A
HETATM    8  C3  UNL     1     -22.685 -18.163 -20.078  1.00  0.00     0.204 C
HETATM    9  O1  UNL     1     -22.957 -16.978 -19.373  1.00  0.00    -0.381 OA
HETATM   10  C2  UNL     1     -24.196 -17.165 -18.778  1.00  0.00     0.149 C
HETATM   11  C1  UNL     1     -24.017 -17.937 -17.494  1.00  0.00     0.042 C
HETATM   12  C10 UNL     1     -25.015 -17.934 -19.790  1.00  0.00     0.182 A
HETATM   13  O3  UNL     1     -25.455 -19.124 -19.247  1.00  0.00    -0.378 OA
HETATM   14  C9  UNL     1     -24.539 -19.918 -19.890  1.00  0.00     0.204 A
ENDBRANCH   5   7
ENDBRANCH   3   5
ENDBRANCH   1   3
BRANCH   1  15
HETATM   15  C6  UNL     1     -27.380 -19.427 -22.210  1.00  0.00     0.160 C
HETATM   16  N3  UNL     1     -27.745 -20.028 -21.138  1.00  0.00    -0.281 N
ATOM     17  H3  UNL     1     -27.421 -19.638 -20.253  1.00  0.00     0.188 HD
BRANCH  15  18
HETATM   18  C7  UNL     1     -27.807 -19.927 -23.497  1.00  0.00     0.308 C
HETATM   19  O2  UNL     1     -28.330 -19.141 -24.314  1.00  0.00    -0.298 OA
ENDBRANCH  15  18
BRANCH  16  20
HETATM   20  N4  UNL     1     -28.538 -21.157 -21.076  1.00  0.00    -0.272 N
HETATM   21  C8  UNL     1     -29.261 -21.400 -19.866  1.00  0.00     0.200 C
HETATM   22  N5  UNL     1     -29.865 -20.487 -19.220  1.00  0.00    -0.372 N
HETATM   23  N6  UNL     1     -29.311 -22.737 -19.351  1.00  0.00    -0.062 NA
ATOM     24  H52 UNL     1     -29.830 -19.536 -19.587  1.00  0.00     0.158 HD
ATOM     25  H51 UNL     1     -30.381 -20.659 -18.357  1.00  0.00     0.158 HD
ATOM     26  H4  UNL     1     -28.606 -21.797 -21.868  1.00  0.00     0.189 HD
ENDBRANCH  16  20
ENDBRANCH   1  15
TORSDOF 6
ENDMDL