MODEL 3
REMARK VINA RESULT: -8.017004262      1.069      1.510
REMARK  7 active torsions:
REMARK  status: ('A' for Active; 'I' for Inactive)
REMARK    1  A    between atoms: O1_2  and  C2_3
REMARK    2  A    between atoms: C2_3  and  C3_5
REMARK    3  A    between atoms: C6_8  and  C7_9
REMARK       I    between atoms: C7_9  and  N1_11
REMARK    4  A    between atoms: N1_11  and  N2_13
REMARK       I    between atoms: N2_13  and  C8_15
REMARK    5  A    between atoms: C8_15  and  C9_17
REMARK    6  A    between atoms: C9_17  and  N3_18
REMARK    7  A    between atoms: C9_17  and  N4_22
ROOT
HETATM    1  C7  UNL     1     -28.538 -21.226 -19.993  1.00  0.00     0.270 C
HETATM    2  O3  UNL     1     -28.369 -22.467 -19.926  1.00  0.00    -0.266 OA
HETATM    3  N1  UNL     1     -29.577 -20.649 -19.240  1.00  0.00    -0.263 N
ATOM      4  H1  UNL     1     -29.728 -19.641 -19.298  1.00  0.00     0.190 HD
ENDROOT
BRANCH   3   5
HETATM    5  N2  UNL     1     -30.425 -21.424 -18.400  1.00  0.00    -0.264 N
HETATM    6  C8  UNL     1     -30.595 -21.122 -17.048  1.00  0.00     0.286 C
HETATM    7  O4  UNL     1     -29.973 -20.105 -16.578  1.00  0.00    -0.267 OA
ATOM      8  H2  UNL     1     -30.923 -22.222 -18.797  1.00  0.00     0.190 HD
BRANCH   6   9
HETATM    9  C9  UNL     1     -31.434 -21.886 -16.123  1.00  0.00     0.378 C
BRANCH   9  10
HETATM   10  N3  UNL     1     -32.002 -21.172 -15.025  1.00  0.00    -0.049 N
ATOM     11  H33 UNL     1     -31.281 -20.990 -14.328  1.00  0.00     0.277 HD
ATOM     12  H32 UNL     1     -32.226 -20.221 -15.317  1.00  0.00     0.277 HD
ATOM     13  H31 UNL     1     -32.816 -21.589 -14.574  1.00  0.00     0.277 HD
ENDBRANCH   9  10
BRANCH   9  14
HETATM   14  N4  UNL     1     -32.571 -22.514 -16.875  1.00  0.00    -0.332 N
HETATM   15  C10 UNL     1     -33.042 -23.610 -16.423  1.00  0.00     0.198 C
HETATM   16  N5  UNL     1     -34.144 -24.263 -17.110  1.00  0.00    -0.067 NA
HETATM   17  N6  UNL     1     -32.532 -24.224 -15.277  1.00  0.00    -0.067 NA
ATOM     18  H4  UNL     1     -32.952 -22.081 -17.716  1.00  0.00     0.164 HD
ENDBRANCH   9  14
ENDBRANCH   6   9
ENDBRANCH   3   5
BRANCH   1  19
HETATM   19  C6  UNL     1     -27.690 -20.367 -20.825  1.00  0.00     0.033 A
HETATM   20  C5  UNL     1     -26.493 -19.927 -20.319  1.00  0.00     0.018 A
HETATM   21  C4  UNL     1     -25.697 -19.107 -21.114  1.00  0.00     0.018 A
HETATM   22  C3  UNL     1     -26.043 -18.712 -22.384  1.00  0.00     0.039 A
HETATM   23  C12 UNL     1     -27.255 -19.176 -22.860  1.00  0.00     0.018 A
HETATM   24  C11 UNL     1     -28.083 -20.001 -22.089  1.00  0.00     0.018 A
BRANCH  22  25
HETATM   25  C2  UNL     1     -25.185 -17.854 -23.196  1.00  0.00     0.292 C
HETATM   26  O2  UNL     1     -24.607 -16.870 -22.679  1.00  0.00    -0.259 OA
BRANCH  25  27
HETATM   27  O1  UNL     1     -24.991 -18.097 -24.525  1.00  0.00    -0.323 OA
HETATM   28  C1  UNL     1     -25.276 -17.206 -25.588  1.00  0.00     0.213 C
ENDBRANCH  25  27
ENDBRANCH  22  25
ENDBRANCH   1  19
TORSDOF 7
ENDMDL