MODEL 4
REMARK VINA RESULT: -3.928293251      2.291      5.098
REMARK  4 active torsions:
REMARK  status: ('A' for Active; 'I' for Inactive)
REMARK    1  A    between atoms: C3_3  and  O1_4
REMARK    2  A    between atoms: C4_6  and  C5_7
REMARK    3  A    between atoms: C6_12  and  C8_14
REMARK    4  A    between atoms: C9_17  and  N1_19
REMARK       I    between atoms: N1_19  and  C11_21
ROOT
HETATM    1  C1  UNL     1     -32.189 -22.493 -14.131  1.00  0.00     0.100 C
HETATM    2  C2  UNL     1     -32.415 -22.306 -15.319  1.00  0.00    -0.144 C
HETATM    3  C3  UNL     1     -32.714 -22.107 -16.724  1.00  0.00     0.176 C
HETATM    4  C4  UNL     1     -31.882 -21.054 -17.357  1.00  0.00     0.309 C
HETATM    5  O4  UNL     1     -31.916 -21.149 -18.776  1.00  0.00    -0.219 OA
HETATM    6  O5  UNL     1     -33.046 -21.756 -19.058  1.00  0.00    -0.215 OA
HETATM    7  C6  UNL     1     -32.779 -23.144 -18.910  1.00  0.00     0.208 C
HETATM    8  C7  UNL     1     -31.496 -23.356 -19.701  1.00  0.00     0.064 C
HETATM    9  C9  UNL     1     -32.628 -23.457 -17.470  1.00  0.00     0.119 C
HETATM   10  C10 UNL     1     -31.194 -23.990 -17.252  1.00  0.00     0.047 C
ENDROOT
BRANCH   3  11
HETATM   11  O1  UNL     1     -34.037 -21.619 -16.867  1.00  0.00    -0.373 OA
ATOM     12  H1  UNL     1     -34.585 -21.969 -16.174  1.00  0.00     0.212 HD
ENDBRANCH   3  11
BRANCH   4  13
HETATM   13  C5  UNL     1     -30.528 -20.839 -16.877  1.00  0.00     0.210 C
HETATM   14  O2  UNL     1     -29.554 -20.892 -17.675  1.00  0.00    -0.646 OA
HETATM   15  O3  UNL     1     -30.205 -20.569 -15.564  1.00  0.00    -0.646 OA
ENDBRANCH   4  13
BRANCH   9  16
HETATM   16  N1  UNL     1     -33.495 -24.451 -17.009  1.00  0.00    -0.329 N
HETATM   17  C11 UNL     1     -33.467 -25.442 -16.029  1.00  0.00     0.329 C
HETATM   18  N2  UNL     1     -34.542 -26.366 -15.760  1.00  0.00    -0.040 NA
HETATM   19  O8  UNL     1     -32.500 -25.626 -15.286  1.00  0.00    -0.251 OA
ATOM     20  H1  UNL     1     -34.376 -24.452 -17.522  1.00  0.00     0.165 HD
ENDBRANCH   9  16
BRANCH   7  21
HETATM   21  C8  UNL     1     -33.835 -23.832 -19.660  1.00  0.00     0.215 C
HETATM   22  O6  UNL     1     -34.542 -23.232 -20.520  1.00  0.00    -0.646 OA
HETATM   23  O7  UNL     1     -34.155 -25.196 -19.494  1.00  0.00    -0.646 OA
ENDBRANCH   7  21
TORSDOF 4
ENDMDL