MODEL 1
REMARK VINA RESULT: -5.237697101      0.000      0.000
REMARK  5 active torsions:
REMARK  status: ('A' for Active; 'I' for Inactive)
REMARK    1  A    between atoms: C2_2  and  C3_3
REMARK    2  A    between atoms: C3_3  and  C4_4
REMARK    3  A    between atoms: C4_4  and  C5_5
REMARK    4  A    between atoms: C6_10  and  N3_11
REMARK    5  A    between atoms: N3_11  and  N4_13
ROOT
HETATM    1  C5  UNL     1      17.146 -37.193 -21.437  1.00  0.00     0.112 A
HETATM    2  N1  UNL     1      18.495 -37.193 -21.310  1.00  0.00    -0.274 N
ATOM      3  H1  UNL     1      19.103 -36.386 -21.454  1.00  0.00     0.189 HD
HETATM    4  N2  UNL     1      18.895 -38.407 -20.970  1.00  0.00    -0.129 N
ATOM      5  H2  UNL     1      19.862 -38.689 -20.809  1.00  0.00     0.205 HD
HETATM    6  C6  UNL     1      17.823 -39.204 -20.873  1.00  0.00     0.712 A
HETATM    7  N5  UNL     1      16.760 -38.439 -21.164  1.00  0.00    -0.177 N
ATOM      8  H5  UNL     1      15.793 -38.765 -21.175  1.00  0.00     0.185 HD
ENDROOT
BRANCH   6   9
HETATM    9  N3  UNL     1      17.828 -40.469 -20.558  1.00  0.00    -0.135 N
ATOM     10  H3  UNL     1      18.451 -40.821 -19.832  1.00  0.00     0.205 HD
BRANCH   9  11
HETATM   11  N4  UNL     1      16.965 -41.335 -21.234  1.00  0.00    -0.327 N
HETATM   12  C7  UNL     1      16.753 -42.675 -20.782  1.00  0.00     0.168 C
ATOM     13  H4  UNL     1      16.475 -41.004 -22.066  1.00  0.00     0.180 HD
ENDBRANCH   9  11
ENDBRANCH   6   9
BRANCH   1  14
HETATM   14  C4  UNL     1      16.380 -35.988 -21.808  1.00  0.00     0.078 C
BRANCH  14  15
HETATM   15  C3  UNL     1      16.779 -34.871 -20.885  1.00  0.00     0.007 C
BRANCH  15  16
HETATM   16  C2  UNL     1      16.672 -33.513 -21.520  1.00  0.00    -0.004 C
HETATM   17  C1  UNL     1      15.826 -33.653 -22.768  1.00  0.00     0.005 C
ENDBRANCH  15  16
ENDBRANCH  14  15
ENDBRANCH   1  14
TORSDOF 5
ENDMDL