MODEL 3
REMARK VINA RESULT: -4.524143330      0.780      1.214
REMARK  3 active torsions:
REMARK  status: ('A' for Active; 'I' for Inactive)
REMARK    1  A    between atoms: C3_4  and  C4_5
REMARK    2  A    between atoms: C4_5  and  N1_6
REMARK    3  A    between atoms: N1_6  and  C5_9
ROOT
HETATM    1  N1  UNL     1      16.398 -35.104 -21.748  1.00  0.00    -0.067 N
ATOM      2  H11 UNL     1      16.620 -35.166 -22.742  1.00  0.00     0.277 HD
ATOM      3  H12 UNL     1      15.382 -35.178 -21.791  1.00  0.00     0.277 HD
ENDROOT
BRANCH   1   4
HETATM    4  C4  UNL     1      16.784 -33.824 -21.230  1.00  0.00     0.264 C
BRANCH   4   5
HETATM    5  C3  UNL     1      16.317 -32.768 -22.177  1.00  0.00     0.147 C
HETATM    6  O1  UNL     1      17.355 -32.283 -22.952  1.00  0.00    -0.384 OA
HETATM    7  C2  UNL     1      16.911 -32.140 -24.245  1.00  0.00     0.168 C
HETATM    8  C1  UNL     1      15.401 -32.242 -24.247  1.00  0.00     0.029 C
HETATM    9  C9  UNL     1      15.200 -33.216 -23.078  1.00  0.00     0.036 C
ENDBRANCH   4   5
ENDBRANCH   1   4
BRANCH   1  10
HETATM   10  C5  UNL     1      16.949 -36.219 -21.045  1.00  0.00     0.213 C
HETATM   11  C6  UNL     1      18.402 -35.966 -20.623  1.00  0.00     0.062 C
HETATM   12  C7  UNL     1      19.129 -37.268 -20.896  1.00  0.00     0.234 C
HETATM   13  N2  UNL     1      18.060 -38.229 -21.158  1.00  0.00    -0.073 N
HETATM   14  C8  UNL     1      17.156 -37.424 -21.967  1.00  0.00     0.265 C
ATOM     15  H22 UNL     1      18.356 -39.111 -21.576  1.00  0.00     0.277 HD
ATOM     16  H21 UNL     1      17.644 -38.658 -20.331  1.00  0.00     0.277 HD
ENDBRANCH   1  10
TORSDOF 3
ENDMDL