MODEL 2
REMARK VINA RESULT: -4.558494777      1.765      2.810
REMARK  3 active torsions:
REMARK  status: ('A' for Active; 'I' for Inactive)
REMARK    1  A    between atoms: C3_3  and  C4_4
REMARK    2  A    between atoms: C4_4  and  N1_5
REMARK    3  A    between atoms: N1_5  and  C5_7
ROOT
HETATM    1  N1  UNL     1      16.828 -36.531 -22.228  1.00  0.00    -0.391 N
ATOM      2  H1  UNL     1      17.363 -36.577 -23.096  1.00  0.00     0.159 HD
ENDROOT
BRANCH   1   3
HETATM    3  C4  UNL     1      16.955 -37.553 -21.289  1.00  0.00     0.114 C
BRANCH   3   4
HETATM    4  C3  UNL     1      18.426 -37.710 -20.982  1.00  0.00     0.064 A
HETATM    5  C2  UNL     1      19.314 -36.697 -20.675  1.00  0.00     0.051 A
HETATM    6  C1  UNL     1      20.546 -37.274 -20.468  1.00  0.00     0.109 A
HETATM    7  N4  UNL     1      20.406 -38.598 -20.644  1.00  0.00    -0.311 N
HETATM    8  N3  UNL     1      19.138 -38.851 -20.950  1.00  0.00    -0.300 N
ATOM      9  H4  UNL     1      21.148 -39.292 -20.558  1.00  0.00     0.186 HD
ATOM     10  H3  UNL     1      18.758 -39.780 -21.135  1.00  0.00     0.187 HD
ENDBRANCH   3   4
ENDBRANCH   1   3
BRANCH   1  11
HETATM   11  C5  UNL     1      15.978 -35.440 -21.998  1.00  0.00     0.108 C
HETATM   12  C6  UNL     1      16.269 -34.660 -20.737  1.00  0.00     0.054 C
HETATM   13  C7  UNL     1      16.849 -33.378 -21.313  1.00  0.00     0.234 C
HETATM   14  N2  UNL     1      15.877 -33.101 -22.362  1.00  0.00    -0.073 N
HETATM   15  C8  UNL     1      15.856 -34.405 -23.038  1.00  0.00     0.257 C
ATOM     16  H22 UNL     1      14.972 -32.747 -22.050  1.00  0.00     0.277 HD
ATOM     17  H21 UNL     1      16.078 -32.295 -22.954  1.00  0.00     0.277 HD
ENDBRANCH   1  11
TORSDOF 3
ENDMDL