MODEL 5
REMARK VINA RESULT: -3.548224534      5.631      7.154
REMARK  4 active torsions:
REMARK  status: ('A' for Active; 'I' for Inactive)
REMARK    1  A    between atoms: C2_2  and  C3_3
REMARK    2  A    between atoms: C2_2  and  N2_8
REMARK    3  A    between atoms: C3_3  and  N1_4
REMARK    4  A    between atoms: N2_8  and  C4_11
ROOT
HETATM    1  N2  UNL     1      22.268 -36.737 -17.649  1.00  0.00    -0.065 N
ATOM      2  H21 UNL     1      23.219 -36.741 -17.280  1.00  0.00     0.278 HD
ATOM      3  H22 UNL     1      21.882 -37.525 -17.130  1.00  0.00     0.278 HD
ENDROOT
BRANCH   1   4
HETATM    4  C2  UNL     1      22.271 -37.008 -19.047  1.00  0.00     0.207 C
HETATM    5  C1  UNL     1      22.258 -38.533 -19.198  1.00  0.00     0.041 C
BRANCH   4   6
HETATM    6  C3  UNL     1      21.035 -36.513 -19.764  1.00  0.00     0.262 C
BRANCH   6   7
HETATM    7  N1  UNL     1      21.034 -37.178 -21.070  1.00  0.00    -0.077 N
ATOM      8  H13 UNL     1      21.803 -36.889 -21.676  1.00  0.00     0.274 HD
ATOM      9  H12 UNL     1      21.281 -38.167 -21.023  1.00  0.00     0.274 HD
ATOM     10  H11 UNL     1      20.113 -37.006 -21.470  1.00  0.00     0.274 HD
ENDBRANCH   6   7
ENDBRANCH   4   6
ENDBRANCH   1   4
BRANCH   1  11
HETATM   11  C4  UNL     1      21.582 -35.500 -17.297  1.00  0.00     0.189 C
HETATM   12  C5  UNL     1      20.811 -35.821 -16.020  1.00  0.00     0.060 C
HETATM   13  C6  UNL     1      20.358 -34.618 -15.280  1.00  0.00     0.234 C
HETATM   14  N3  UNL     1      20.696 -33.367 -15.895  1.00  0.00    -0.075 N
HETATM   15  C7  UNL     1      22.080 -33.261 -16.270  1.00  0.00     0.234 C
ATOM     16  H32 UNL     1      20.091 -33.185 -16.696  1.00  0.00     0.277 HD
ATOM     17  H31 UNL     1      20.425 -32.587 -15.295  1.00  0.00     0.277 HD
HETATM   18  C8  UNL     1      22.623 -34.481 -16.950  1.00  0.00     0.060 C
ENDBRANCH   1  11
TORSDOF 4
ENDMDL