MODEL 2
REMARK VINA RESULT: -4.206513925      1.300      1.791
REMARK  5 active torsions:
REMARK  status: ('A' for Active; 'I' for Inactive)
REMARK    1  A    between atoms: N1_1  and  C1_5
REMARK    2  A    between atoms: C1_5  and  C2_6
REMARK    3  A    between atoms: C2_6  and  N2_7
REMARK    4  A    between atoms: N2_7  and  C3_10
REMARK    5  A    between atoms: C3_10  and  C4_11
ROOT
HETATM    1  C3  UNL     1      17.442 -35.909 -21.322  1.00  0.00     0.265 C
ENDROOT
BRANCH   1   2
HETATM    2  N2  UNL     1      17.615 -37.291 -21.712  1.00  0.00    -0.071 N
ATOM      3  H22 UNL     1      17.720 -37.405 -22.720  1.00  0.00     0.277 HD
ATOM      4  H21 UNL     1      16.764 -37.841 -21.599  1.00  0.00     0.277 HD
BRANCH   2   5
HETATM    5  C2  UNL     1      18.731 -37.831 -20.972  1.00  0.00     0.259 C
BRANCH   5   6
HETATM    6  C1  UNL     1      19.715 -36.735 -20.530  1.00  0.00     0.257 C
BRANCH   6   7
HETATM    7  N1  UNL     1      21.005 -37.181 -21.032  1.00  0.00    -0.078 N
ATOM      8  H13 UNL     1      21.792 -36.948 -20.423  1.00  0.00     0.274 HD
ATOM      9  H12 UNL     1      21.136 -38.192 -21.003  1.00  0.00     0.274 HD
ATOM     10  H11 UNL     1      21.069 -36.778 -21.966  1.00  0.00     0.274 HD
ENDBRANCH   6   7
ENDBRANCH   5   6
ENDBRANCH   2   5
ENDBRANCH   1   2
BRANCH   1  11
HETATM   11  C4  UNL     1      16.092 -35.344 -21.593  1.00  0.00     0.172 C
HETATM   12  C5  UNL     1      15.860 -34.150 -20.698  1.00  0.00     0.265 C
HETATM   13  N3  UNL     1      14.756 -33.334 -21.155  1.00  0.00    -0.073 N
HETATM   14  C6  UNL     1      15.348 -32.276 -21.969  1.00  0.00     0.234 C
ATOM     15  H32 UNL     1      14.032 -33.864 -21.640  1.00  0.00     0.277 HD
ATOM     16  H31 UNL     1      14.168 -32.984 -20.399  1.00  0.00     0.277 HD
HETATM   17  C7  UNL     1      15.416 -32.793 -23.390  1.00  0.00     0.054 C
HETATM   18  C8  UNL     1      16.417 -33.926 -23.395  1.00  0.00     0.170 C
HETATM   19  O1  UNL     1      15.850 -35.105 -22.932  1.00  0.00    -0.382 OA
ENDBRANCH   1  11
TORSDOF 5
ENDMDL