MODEL 5
REMARK VINA RESULT: -4.176530426      2.265      5.767
REMARK  4 active torsions:
REMARK  status: ('A' for Active; 'I' for Inactive)
REMARK    1  A    between atoms: N3_8  and  C4_10
REMARK    2  A    between atoms: C4_10  and  C5_11
REMARK    3  A    between atoms: C5_11  and  C6_12
REMARK    4  A    between atoms: C6_12  and  N4_13
ROOT
HETATM    1  C1  UNL     1      17.233 -35.033 -21.033  1.00  0.00     0.070 C
HETATM    2  C2  UNL     1      17.465 -36.513 -21.078  1.00  0.00     0.031 A
HETATM    3  N1  UNL     1      16.488 -37.379 -21.388  1.00  0.00    -0.303 N
ATOM      4  H1  UNL     1      15.525 -37.133 -21.617  1.00  0.00     0.186 HD
HETATM    5  N2  UNL     1      16.981 -38.601 -21.347  1.00  0.00    -0.285 N
ATOM      6  H2  UNL     1      16.458 -39.455 -21.540  1.00  0.00     0.188 HD
HETATM    7  C3  UNL     1      18.268 -38.545 -21.015  1.00  0.00     0.123 A
HETATM    8  N3  UNL     1      19.046 -39.591 -20.889  1.00  0.00    -0.375 N
ATOM      9  H3  UNL     1      20.021 -39.443 -20.629  1.00  0.00     0.161 HD
HETATM   10  C7  UNL     1      18.594 -37.225 -20.838  1.00  0.00     0.007 A
HETATM   11  C8  UNL     1      19.906 -36.671 -20.464  1.00  0.00     0.054 C
ENDROOT
BRANCH   8  12
HETATM   12  C4  UNL     1      18.594 -40.924 -21.098  1.00  0.00     0.123 C
BRANCH  12  13
HETATM   13  C5  UNL     1      18.059 -41.575 -19.839  1.00  0.00     0.047 C
BRANCH  13  14
HETATM   14  C6  UNL     1      17.049 -42.643 -20.145  1.00  0.00     0.231 C
BRANCH  14  15
HETATM   15  N4  UNL     1      16.273 -42.222 -21.296  1.00  0.00    -0.079 N
ATOM     16  H43 UNL     1      16.392 -41.231 -21.508  1.00  0.00     0.274 HD
ATOM     17  H42 UNL     1      16.636 -42.596 -22.172  1.00  0.00     0.274 HD
ATOM     18  H41 UNL     1      15.298 -42.474 -21.135  1.00  0.00     0.274 HD
ENDBRANCH  14  15
ENDBRANCH  13  14
ENDBRANCH  12  13
ENDBRANCH   8  12
TORSDOF 4
ENDMDL