MODEL 5
REMARK VINA RESULT: -4.291646454      7.685      8.122
REMARK  3 active torsions:
REMARK  status: ('A' for Active; 'I' for Inactive)
REMARK    1  A    between atoms: N1_2  and  C2_5
REMARK    2  A    between atoms: C5_8  and  N2_9
REMARK    3  A    between atoms: N2_9  and  C6_12
ROOT
HETATM    1  C6  UNL     1      14.795 -31.862 -22.088  1.00  0.00     0.355 C
HETATM    2  C7  UNL     1      15.103 -31.846 -23.543  1.00  0.00     0.086 C
HETATM    3  N3  UNL     1      15.354 -31.811 -24.681  1.00  0.00    -0.196 NA
ENDROOT
BRANCH   1   4
HETATM    4  N2  UNL     1      15.055 -33.215 -21.634  1.00  0.00    -0.059 N
ATOM      5  H22 UNL     1      14.405 -33.869 -22.069  1.00  0.00     0.278 HD
ATOM      6  H21 UNL     1      14.782 -33.323 -20.657  1.00  0.00     0.278 HD
BRANCH   4   7
HETATM    7  C5  UNL     1      16.408 -33.645 -21.828  1.00  0.00     0.187 C
HETATM    8  C4  UNL     1      16.415 -34.732 -22.898  1.00  0.00     0.035 C
HETATM    9  C3  UNL     1      15.907 -36.039 -22.319  1.00  0.00     0.035 C
HETATM   10  C2  UNL     1      16.833 -36.542 -21.249  1.00  0.00     0.185 C
HETATM   11  C9  UNL     1      17.727 -35.416 -20.761  1.00  0.00     0.035 C
HETATM   12  C8  UNL     1      16.994 -34.113 -20.549  1.00  0.00     0.035 C
BRANCH  10  13
HETATM   13  N1  UNL     1      17.762 -37.540 -21.742  1.00  0.00    -0.075 N
HETATM   14  C1  UNL     1      17.759 -38.745 -20.941  1.00  0.00     0.267 C
ATOM     15  H12 UNL     1      18.704 -37.156 -21.823  1.00  0.00     0.277 HD
ATOM     16  H11 UNL     1      17.586 -37.752 -22.724  1.00  0.00     0.277 HD
ENDBRANCH  10  13
ENDBRANCH   4   7
ENDBRANCH   1   4
TORSDOF 3
ENDMDL