MODEL 1
REMARK VINA RESULT: -4.300846436      0.000      0.000
REMARK  3 active torsions:
REMARK  status: ('A' for Active; 'I' for Inactive)
REMARK    1  A    between atoms: C2_2  and  C3_3
REMARK    2  A    between atoms: C3_3  and  C4_4
REMARK    3  A    between atoms: C4_4  and  N1_5
ROOT
HETATM    1  N1  UNL     1      21.537 -34.206 -15.719  1.00  0.00    -0.180 N
HETATM    2  C5  UNL     1      22.980 -34.344 -15.670  1.00  0.00     0.200 C
HETATM    3  N2  UNL     1      23.727 -33.346 -16.306  1.00  0.00    -0.364 N
ATOM      4  H2  UNL     1      24.541 -33.618 -16.857  1.00  0.00     0.165 HD
HETATM    5  C6  UNL     1      23.397 -31.994 -16.213  1.00  0.00     0.081 C
HETATM    6  C7  UNL     1      22.828 -31.498 -14.916  1.00  0.00     0.182 C
HETATM    7  N3  UNL     1      21.385 -31.763 -14.964  1.00  0.00    -0.222 N
ATOM      8  H3  UNL     1      20.748 -31.039 -14.634  1.00  0.00     0.178 HD
HETATM    9  C8  UNL     1      20.825 -32.997 -15.455  1.00  0.00     0.675 C
HETATM   10  N4  UNL     1      19.535 -33.008 -15.668  1.00  0.00    -0.235 N
ATOM     11  H41 UNL     1      19.026 -32.145 -15.479  1.00  0.00     0.174 HD
ATOM     12  H42 UNL     1      19.138 -33.881 -16.016  1.00  0.00     0.174 HD
ENDROOT
BRANCH   1  13
HETATM   13  C4  UNL     1      20.755 -35.384 -16.042  1.00  0.00     0.148 C
BRANCH  13  14
HETATM   14  C3  UNL     1      21.550 -36.394 -16.807  1.00  0.00     0.020 C
BRANCH  14  15
HETATM   15  C2  UNL     1      21.412 -36.190 -18.296  1.00  0.00    -0.003 C
HETATM   16  C1  UNL     1      22.725 -36.014 -19.001  1.00  0.00     0.005 C
ENDBRANCH  14  15
ENDBRANCH  13  14
ENDBRANCH   1  13
TORSDOF 3
ENDMDL