MODEL 2
REMARK VINA RESULT: -5.360197601      0.839      2.645
REMARK  0 active torsions:
REMARK  status: ('A' for Active; 'I' for Inactive)
ROOT
HETATM    1  C1  UNL     1       3.411   7.628   0.478  1.00  0.00     0.014 C
HETATM    2  C2  UNL     1       2.738   8.664   0.941  1.00  0.00    -0.085 C
HETATM    3  C3  UNL     1       1.431   8.777   1.627  1.00  0.00     0.034 C
HETATM    4  C4  UNL     1       1.987  10.047   2.285  1.00  0.00     0.013 C
HETATM    5  C5  UNL     1       2.874  10.127   1.034  1.00  0.00     0.010 C
HETATM    6  C6  UNL     1       4.249  10.646   1.330  1.00  0.00     0.015 C
ENDROOT
TORSDOF 0
ENDMDL