MODEL 3
REMARK VINA RESULT: -4.862468583      1.327      1.622
REMARK  0 active torsions:
REMARK  status: ('A' for Active; 'I' for Inactive)
ROOT
HETATM    1  C1  UNL     1       4.900   8.352   0.041  1.00  0.00     0.036 C
HETATM    2  C2  UNL     1       3.617   7.887   0.608  1.00  0.00    -0.028 C
HETATM    3  C3  UNL     1       2.659   8.709   1.017  1.00  0.00    -0.084 C
HETATM    4  C4  UNL     1       2.486  10.188   1.074  1.00  0.00     0.034 C
HETATM    5  C5  UNL     1       1.564   9.966   2.265  1.00  0.00     0.009 C
HETATM    6  C6  UNL     1       1.299   8.604   1.613  1.00  0.00     0.034 C
ENDROOT
TORSDOF 0
ENDMDL