MODEL 4
REMARK VINA RESULT: -4.454016654      1.264      1.897
REMARK  0 active torsions:
REMARK  status: ('A' for Active; 'I' for Inactive)
ROOT
HETATM    1  C1  UNL     1       4.688  10.927   1.060  1.00  0.00     0.046 C
HETATM    2  C2  UNL     1       3.893   9.903   0.828  1.00  0.00     0.037 C
HETATM    3  C3  UNL     1       4.322   8.587   0.329  1.00  0.00     0.066 C
HETATM    4  C4  UNL     1       3.118   7.709   0.686  1.00  0.00     0.033 C
HETATM    5  C5  UNL     1       1.992   8.679   0.410  1.00  0.00     0.175 C
HETATM    6  O1  UNL     1       2.523   9.873   1.008  1.00  0.00    -0.356 OA
ENDROOT
TORSDOF 0
ENDMDL