MODEL 2
REMARK VINA RESULT: -4.851427095      0.954      1.062
REMARK  0 active torsions:
REMARK  status: ('A' for Active; 'I' for Inactive)
ROOT
HETATM    1  C1  UNL     1       4.164   8.550   0.526  1.00  0.00     0.015 C
HETATM    2  C2  UNL     1       2.975   9.495   0.606  1.00  0.00    -0.040 A
HETATM    3  C3  UNL     1       1.738   8.781   0.137  1.00  0.00     0.010 C
HETATM    4  C4  UNL     1       1.912   8.068   1.494  1.00  0.00     0.006 C
HETATM    5  C5  UNL     1       2.117   9.474   1.937  1.00  0.00    -0.006 A
HETATM    6  C6  UNL     1       3.139  10.422   1.682  1.00  0.00     0.015 A
ENDROOT
TORSDOF 0
ENDMDL