MODEL 3
REMARK VINA RESULT: -6.063876317      0.688      2.385
REMARK  0 active torsions:
REMARK  status: ('A' for Active; 'I' for Inactive)
ROOT
HETATM    1  C1  UNL     1       3.015  10.374   1.921  1.00  0.00    -0.030 C
HETATM    2  C2  UNL     1       2.197   9.833   1.978  1.00  0.00    -0.030 C
HETATM    3  C3  UNL     1       1.295   8.826   1.698  1.00  0.00     0.026 C
HETATM    4  C4  UNL     1       2.208   8.228   0.401  1.00  0.00     0.004 C
HETATM    5  C5  UNL     1       3.622   8.451   0.861  1.00  0.00     0.001 C
HETATM    6  C6  UNL     1       4.359   9.621   0.277  1.00  0.00     0.004 C
HETATM    7  C7  UNL     1       4.257  10.781   1.489  1.00  0.00     0.026 C
ENDROOT
TORSDOF 0
ENDMDL