MODEL 3
REMARK VINA RESULT: -4.893086484      1.223      1.386
REMARK  0 active torsions:
REMARK  status: ('A' for Active; 'I' for Inactive)
ROOT
HETATM    1  C1  UNL     1       5.033   8.416   0.254  1.00  0.00     0.012 C
HETATM    2  C2  UNL     1       3.944   8.897   0.453  1.00  0.00    -0.113 C
HETATM    3  C3  UNL     1       2.605   9.477   0.712  1.00  0.00     0.064 C
HETATM    4  C4  UNL     1       1.687   8.510   1.453  1.00  0.00     0.017 C
HETATM    5  C5  UNL     1       1.262   9.663   2.314  1.00  0.00     0.002 C
HETATM    6  C6  UNL     1       2.553  10.362   1.934  1.00  0.00     0.017 C
ENDROOT
TORSDOF 0
ENDMDL