MODEL 4
REMARK VINA RESULT: -4.698139555      0.589      2.310
REMARK  0 active torsions:
REMARK  status: ('A' for Active; 'I' for Inactive)
ROOT
HETATM    1  C1  UNL     1       3.724   9.599   0.831  1.00  0.00     0.005 C
HETATM    2  C2  UNL     1       3.632   8.159   0.421  1.00  0.00     0.005 C
HETATM    3  C3  UNL     1       2.114   8.302   0.529  1.00  0.00    -0.010 A
HETATM    4  C4  UNL     1       1.556   8.605   1.869  1.00  0.00     0.010 A
HETATM    5  C5  UNL     1       2.270   9.655   1.143  1.00  0.00    -0.010 A
ENDROOT
TORSDOF 0
ENDMDL