MODEL 1
REMARK VINA RESULT: -4.898474621      0.000      0.000
REMARK  0 active torsions:
REMARK  status: ('A' for Active; 'I' for Inactive)
ROOT
HETATM    1  C1  UNL     1       3.958   9.758   0.861  1.00  0.00     0.015 C
HETATM    2  C2  UNL     1       2.481   9.633   0.954  1.00  0.00    -0.040 A
HETATM    3  C3  UNL     1       1.749  10.078   2.159  1.00  0.00     0.015 A
HETATM    4  C4  UNL     1       1.773   8.596   1.686  1.00  0.00    -0.005 A
HETATM    5  C5  UNL     1       1.915   8.405   0.229  1.00  0.00     0.015 A
ENDROOT
TORSDOF 0
ENDMDL