MODEL 2
REMARK VINA RESULT: -4.365849441      1.066      1.791
REMARK  0 active torsions:
REMARK  status: ('A' for Active; 'I' for Inactive)
ROOT
HETATM    1  C1  UNL     1       4.533  10.220   0.795  1.00  0.00     0.015 C
HETATM    2  C2  UNL     1       3.804   9.114   0.758  1.00  0.00    -0.080 A
HETATM    3  C3  UNL     1       3.580   7.652   0.721  1.00  0.00     0.047 A
HETATM    4  C4  UNL     1       2.401   8.503   0.722  1.00  0.00    -0.021 A
HETATM    5  C5  UNL     1       1.684   8.772  -0.575  1.00  0.00     0.020 C
HETATM    6  C6  UNL     1       1.614   8.793   1.979  1.00  0.00     0.020 C
ENDROOT
TORSDOF 0
ENDMDL