MODEL 3
REMARK VINA RESULT: -4.604217180      0.630      1.350
REMARK  0 active torsions:
REMARK  status: ('A' for Active; 'I' for Inactive)
ROOT
HETATM    1  C1  UNL     1       4.622   8.542   0.243  1.00  0.00     0.036 C
HETATM    2  C2  UNL     1       3.937   9.730   0.812  1.00  0.00    -0.028 C
HETATM    3  C3  UNL     1       2.756   9.655   1.404  1.00  0.00    -0.083 A
HETATM    4  C4  UNL     1       1.532  10.144   2.119  1.00  0.00     0.038 A
HETATM    5  C5  UNL     1       1.612   8.730   1.819  1.00  0.00     0.038 A
ENDROOT
TORSDOF 0
ENDMDL