MODEL 4
REMARK VINA RESULT: -4.946086927      0.811      1.865
REMARK  0 active torsions:
REMARK  status: ('A' for Active; 'I' for Inactive)
ROOT
HETATM    1  C1  UNL     1       3.055   7.760   1.424  1.00  0.00     0.005 C
HETATM    2  C2  UNL     1       1.850   8.219   2.250  1.00  0.00     0.005 C
HETATM    3  C3  UNL     1       1.637   9.639   1.725  1.00  0.00    -0.014 C
HETATM    4  C4  UNL     1       2.849  10.430   2.110  1.00  0.00     0.005 C
HETATM    5  C5  UNL     1       3.959   9.999   1.139  1.00  0.00     0.005 C
HETATM    6  C6  UNL     1       3.318   8.854   0.416  1.00  0.00    -0.014 C
HETATM    7  C7  UNL     1       1.890   9.400   0.241  1.00  0.00     0.009 C
ENDROOT
TORSDOF 0
ENDMDL