MODEL 5
REMARK VINA RESULT: -4.271909851      1.933      3.173
REMARK  0 active torsions:
REMARK  status: ('A' for Active; 'I' for Inactive)
ROOT
HETATM    1  N1  UNL     1       1.599   8.582   1.950  1.00  0.00    -0.197 NA
HETATM    2  C1  UNL     1       2.289   9.376   1.476  1.00  0.00     0.064 C
HETATM    3  C2  UNL     1       3.158  10.360   0.892  1.00  0.00     0.101 C
HETATM    4  C3  UNL     1       4.174   9.853  -0.084  1.00  0.00     0.004 C
HETATM    5  C4  UNL     1       4.943  11.102   0.281  1.00  0.00     0.012 C
HETATM    6  C5  UNL     1       4.462  10.554   1.608  1.00  0.00     0.004 C
HETATM    7  C6  UNL     1       4.863   9.214   1.084  1.00  0.00     0.012 C
ENDROOT
TORSDOF 0
ENDMDL