MODEL 3
REMARK VINA RESULT: -4.902535311      0.616      1.222
REMARK  0 active torsions:
REMARK  status: ('A' for Active; 'I' for Inactive)
ROOT
HETATM    1  C1  UNL     1       1.733   8.542   2.335  1.00  0.00     0.005 C
HETATM    2  C2  UNL     1       1.859  10.057   2.071  1.00  0.00     0.005 C
HETATM    3  C3  UNL     1       2.688  10.006   0.821  1.00  0.00    -0.014 C
HETATM    4  C4  UNL     1       1.915   8.955   0.009  1.00  0.00     0.009 C
HETATM    5  C5  UNL     1       2.406   8.031   1.100  1.00  0.00    -0.014 C
HETATM    6  C6  UNL     1       3.670   8.906   1.098  1.00  0.00     0.009 C
ENDROOT
TORSDOF 0
ENDMDL