MODEL 1
REMARK VINA RESULT: -6.190538300      0.000      0.000
REMARK  0 active torsions:
REMARK  status: ('A' for Active; 'I' for Inactive)
ROOT
HETATM    1  C1  UNL     1       1.220   8.940   1.817  1.00  0.00     0.006 C
HETATM    2  C2  UNL     1       2.359   9.803   2.289  1.00  0.00     0.011 C
HETATM    3  C3  UNL     1       2.883   9.974   0.880  1.00  0.00    -0.033 A
HETATM    4  C4  UNL     1       4.264  10.336   0.896  1.00  0.00     0.015 A
HETATM    5  C5  UNL     1       4.038   9.055   0.344  1.00  0.00    -0.005 A
HETATM    6  C6  UNL     1       3.281   7.918   0.959  1.00  0.00     0.011 C
HETATM    7  C7  UNL     1       2.104   8.778   0.579  1.00  0.00    -0.005 C
ENDROOT
TORSDOF 0
ENDMDL