MODEL 3
REMARK VINA RESULT: -6.168358995      0.673      2.382
REMARK  0 active torsions:
REMARK  status: ('A' for Active; 'I' for Inactive)
ROOT
HETATM    1  C1  UNL     1       3.056  10.470   2.102  1.00  0.00    -0.030 C
HETATM    2  C2  UNL     1       2.231   9.938   2.138  1.00  0.00    -0.030 C
HETATM    3  C3  UNL     1       1.310   8.963   1.810  1.00  0.00     0.026 C
HETATM    4  C4  UNL     1       2.192   8.437   0.462  1.00  0.00     0.004 C
HETATM    5  C5  UNL     1       3.617   8.611   0.910  1.00  0.00     0.001 C
HETATM    6  C6  UNL     1       4.361   9.806   0.390  1.00  0.00     0.004 C
HETATM    7  C7  UNL     1       4.297  10.887   1.675  1.00  0.00     0.026 C
ENDROOT
TORSDOF 0
ENDMDL