MODEL 3
REMARK VINA RESULT: -5.533772554      0.618      2.091
REMARK  0 active torsions:
REMARK  status: ('A' for Active; 'I' for Inactive)
ROOT
HETATM    1  C1  UNL     1       3.770  10.457   1.366  1.00  0.00     0.001 C
HETATM    2  C2  UNL     1       2.417  10.348   2.022  1.00  0.00     0.004 C
HETATM    3  C3  UNL     1       1.703   9.069   1.701  1.00  0.00    -0.014 C
HETATM    4  C4  UNL     1       2.549   7.841   1.884  1.00  0.00     0.009 C
HETATM    5  C5  UNL     1       3.164   8.184   0.520  1.00  0.00    -0.014 C
HETATM    6  C6  UNL     1       4.269   9.172   0.794  1.00  0.00     0.004 C
HETATM    7  C7  UNL     1       1.851   8.853   0.188  1.00  0.00     0.009 C
ENDROOT
TORSDOF 0
ENDMDL