MODEL 4
REMARK VINA RESULT: -5.250747895      0.628      2.133
REMARK  0 active torsions:
REMARK  status: ('A' for Active; 'I' for Inactive)
ROOT
HETATM    1  C1  UNL     1       3.716  10.488   0.945  1.00  0.00     0.001 C
HETATM    2  C2  UNL     1       2.932  10.437   2.251  1.00  0.00     0.005 C
HETATM    3  C3  UNL     1       1.709   9.645   1.805  1.00  0.00    -0.010 A
HETATM    4  C4  UNL     1       1.661   8.178   1.962  1.00  0.00     0.010 A
HETATM    5  C5  UNL     1       2.177   8.750   0.678  1.00  0.00    -0.010 A
HETATM    6  C6  UNL     1       3.656   9.031   0.517  1.00  0.00     0.005 C
ENDROOT
TORSDOF 0
ENDMDL