MODEL 4
REMARK VINA RESULT: -5.638754393      0.682      1.029
REMARK  0 active torsions:
REMARK  status: ('A' for Active; 'I' for Inactive)
ROOT
HETATM    1  C1  UNL     1       1.823   9.882   2.101  1.00  0.00     0.005 C
HETATM    2  C2  UNL     1       1.703   8.388   1.979  1.00  0.00     0.006 C
HETATM    3  C3  UNL     1       2.746   7.975   0.964  1.00  0.00    -0.005 A
HETATM    4  C4  UNL     1       4.000   8.726   0.796  1.00  0.00    -0.005 A
HETATM    5  C5  UNL     1       4.119  10.157   1.246  1.00  0.00     0.010 C
HETATM    6  C6  UNL     1       2.631  10.317   0.904  1.00  0.00    -0.009 C
HETATM    7  C7  UNL     1       2.773   9.102   0.049  1.00  0.00    -0.001 A
ENDROOT
TORSDOF 0
ENDMDL