MODEL 2
REMARK VINA RESULT: -3.747519637      1.409      1.778
REMARK  0 active torsions:
REMARK  status: ('A' for Active; 'I' for Inactive)
ROOT
HETATM    1  O1  UNL     1       3.257   7.371   1.045  1.00  0.00    -0.258 OA
HETATM    2  S1  UNL     1       2.306   8.646   0.445  1.00  0.00     0.014 S
HETATM    3  C1  UNL     1       3.269  10.140   0.687  1.00  0.00     0.108 C
HETATM    4  C2  UNL     1       2.997  10.546   2.081  1.00  0.00     0.013 C
HETATM    5  C3  UNL     1       2.069   9.635   2.752  1.00  0.00     0.013 C
HETATM    6  C4  UNL     1       1.142   8.999   1.776  1.00  0.00     0.108 C
ENDROOT
TORSDOF 0
ENDMDL