MODEL 3
REMARK VINA RESULT: -5.180295913      0.982      3.036
REMARK  0 active torsions:
REMARK  status: ('A' for Active; 'I' for Inactive)
ROOT
HETATM    1  C1  UNL     1       4.469  10.032   0.892  1.00  0.00     0.001 C
HETATM    2  C2  UNL     1       4.586   8.630   0.278  1.00  0.00     0.001 C
HETATM    3  C3  UNL     1       3.343   7.940   0.818  1.00  0.00     0.009 C
HETATM    4  C4  UNL     1       2.431   9.018   1.294  1.00  0.00    -0.040 A
HETATM    5  C5  UNL     1       2.970  10.265   0.649  1.00  0.00     0.009 C
HETATM    6  C6  UNL     1       2.090   9.163   2.748  1.00  0.00     0.010 A
HETATM    7  C7  UNL     1       1.062   8.830   1.701  1.00  0.00     0.010 A
ENDROOT
TORSDOF 0
ENDMDL