MODEL 4
REMARK VINA RESULT: -4.224058863      1.014      1.799
REMARK  1 active torsions:
REMARK  status: ('A' for Active; 'I' for Inactive)
REMARK    1  A    between atoms: N1_2  and  C2_4
ROOT
HETATM    1  C2  UNL     1       3.860  10.531   1.166  1.00  0.00     0.076 C
HETATM    2  C3  UNL     1       4.109   9.274   0.421  1.00  0.00     0.024 C
HETATM    3  C4  UNL     1       2.926   8.383   0.786  1.00  0.00     0.002 C
HETATM    4  C5  UNL     1       1.806   9.391   0.857  1.00  0.00     0.002 C
HETATM    5  C6  UNL     1       2.431  10.517   1.644  1.00  0.00     0.024 C
ENDROOT
BRANCH   1   6
HETATM    6  N1  UNL     1       4.251  11.729   0.503  1.00  0.00    -0.421 N
HETATM    7  C1  UNL     1       5.484  11.709  -0.200  1.00  0.00     0.140 C
ATOM      8  H1  UNL     1       3.670  12.567   0.531  1.00  0.00     0.153 HD
ENDBRANCH   1   6
TORSDOF 1
ENDMDL