MODEL 1
REMARK VINA RESULT: -5.533434663      0.000      0.000
REMARK  0 active torsions:
REMARK  status: ('A' for Active; 'I' for Inactive)
ROOT
HETATM    1  C1  UNL     1       1.551   9.186   1.941  1.00  0.00     0.005 C
HETATM    2  C2  UNL     1       1.585  10.710   2.028  1.00  0.00     0.002 C
HETATM    3  C3  UNL     1       3.045  11.086   2.203  1.00  0.00     0.020 C
HETATM    4  C4  UNL     1       3.768  10.917   0.886  1.00  0.00     0.118 C
HETATM    5  N1  UNL     1       4.379   9.633   0.791  1.00  0.00    -0.402 N
ATOM      6  H1  UNL     1       5.385   9.508   0.906  1.00  0.00     0.158 HD
HETATM    7  C5  UNL     1       3.522   8.545   0.529  1.00  0.00     0.055 C
HETATM    8  C6  UNL     1       2.061   8.822   0.585  1.00  0.00     0.044 C
ENDROOT
TORSDOF 0
ENDMDL