MODEL 4
REMARK VINA RESULT: -4.832269370      1.784      2.842
REMARK  0 active torsions:
REMARK  status: ('A' for Active; 'I' for Inactive)
ROOT
HETATM    1  C1  UNL     1       3.830  11.012   0.989  1.00  0.00     0.004 C
HETATM    2  C2  UNL     1       2.954  10.997   2.216  1.00  0.00     0.022 C
HETATM    3  C3  UNL     1       1.561  10.469   1.904  1.00  0.00     0.146 C
HETATM    4  N1  UNL     1       1.487   9.054   2.078  1.00  0.00    -0.303 N
ATOM      5  H1  UNL     1       0.814   8.627   2.714  1.00  0.00     0.187 HD
HETATM    6  O1  UNL     1       2.330   8.332   1.378  1.00  0.00    -0.285 OA
HETATM    7  C4  UNL     1       2.875   8.896   0.269  1.00  0.00     0.201 C
HETATM    8  C5  UNL     1       4.204   9.574   0.627  1.00  0.00     0.029 C
ENDROOT
TORSDOF 0
ENDMDL