MODEL 4
REMARK VINA RESULT: -4.356292596      1.804      2.285
REMARK  1 active torsions:
REMARK  status: ('A' for Active; 'I' for Inactive)
REMARK    1  A    between atoms: C6_6  and  N1_7
ROOT
HETATM    1  C1  UNL     1       4.606   9.171  -0.109  1.00  0.00     0.012 C
HETATM    2  C2  UNL     1       3.822   9.421   1.164  1.00  0.00     0.012 C
HETATM    3  C3  UNL     1       2.652   8.454   1.155  1.00  0.00     0.006 C
HETATM    4  C4  UNL     1       1.544   9.308   1.739  1.00  0.00     0.002 C
HETATM    5  C5  UNL     1       1.753  10.583   0.909  1.00  0.00     0.033 C
HETATM    6  C6  UNL     1       3.243  10.807   1.195  1.00  0.00     0.187 C
ENDROOT
BRANCH   6   7
HETATM    7  N1  UNL     1       3.308  11.398   2.520  1.00  0.00    -0.075 N
ATOM      8  H13 UNL     1       4.246  11.742   2.725  1.00  0.00     0.274 HD
ATOM      9  H12 UNL     1       2.801  12.283   2.555  1.00  0.00     0.274 HD
ATOM     10  H11 UNL     1       2.982  10.758   3.245  1.00  0.00     0.274 HD
ENDBRANCH   6   7
TORSDOF 1
ENDMDL