MODEL 2
REMARK VINA RESULT: -4.671454727      1.018      1.384
REMARK  1 active torsions:
REMARK  status: ('A' for Active; 'I' for Inactive)
REMARK    1  A    between atoms: N1_1  and  C1_5
ROOT
HETATM    1  C1  UNL     1       3.375   9.655   0.561  1.00  0.00     0.183 C
HETATM    2  C2  UNL     1       2.566   8.481   1.099  1.00  0.00     0.033 C
HETATM    3  C3  UNL     1       1.299   9.212   1.545  1.00  0.00     0.002 C
HETATM    4  C4  UNL     1       1.918  10.339   2.376  1.00  0.00     0.002 C
HETATM    5  C5  UNL     1       2.974  10.847   1.395  1.00  0.00     0.033 C
ENDROOT
BRANCH   1   6
HETATM    6  N1  UNL     1       4.798   9.393   0.616  1.00  0.00    -0.075 N
ATOM      7  H13 UNL     1       5.012   8.633   1.261  1.00  0.00     0.274 HD
ATOM      8  H12 UNL     1       5.132   8.967  -0.249  1.00  0.00     0.274 HD
ATOM      9  H11 UNL     1       5.327  10.235   0.845  1.00  0.00     0.274 HD
ENDBRANCH   1   6
TORSDOF 1
ENDMDL