MODEL 1
REMARK VINA RESULT: -4.852587840      0.000      0.000
REMARK  0 active torsions:
REMARK  status: ('A' for Active; 'I' for Inactive)
ROOT
HETATM    1  C1  UNL     1       1.859   8.848   2.199  1.00  0.00     0.008 C
HETATM    2  C2  UNL     1       1.604  10.360   2.147  1.00  0.00     0.033 C
HETATM    3  C3  UNL     1       2.361  10.709   0.866  1.00  0.00     0.186 C
HETATM    4  C4  UNL     1       1.782   9.591  -0.016  1.00  0.00     0.039 C
HETATM    5  C5  UNL     1       2.374   8.459   0.850  1.00  0.00     0.013 C
HETATM    6  C6  UNL     1       3.821   8.887   0.769  1.00  0.00     0.237 C
HETATM    7  N1  UNL     1       3.717  10.315   1.041  1.00  0.00    -0.070 N
ATOM      8  H11 UNL     1       4.083  10.567   1.959  1.00  0.00     0.277 HD
ATOM      9  H12 UNL     1       4.362  10.869   0.478  1.00  0.00     0.277 HD
ENDROOT
TORSDOF 0
ENDMDL