MODEL 3
REMARK VINA RESULT: -4.609989582      1.316      3.208
REMARK  0 active torsions:
REMARK  status: ('A' for Active; 'I' for Inactive)
ROOT
HETATM    1  C1  UNL     1       1.024   9.483   1.735  1.00  0.00     0.040 C
HETATM    2  C2  UNL     1       2.333  10.082   1.277  1.00  0.00     0.181 C
HETATM    3  C3  UNL     1       3.181   8.983   0.643  1.00  0.00     0.032 C
HETATM    4  C4  UNL     1       4.659   9.373   0.662  1.00  0.00     0.004 C
HETATM    5  C5  UNL     1       4.672  10.890   0.539  1.00  0.00     0.027 C
HETATM    6  C6  UNL     1       4.074  11.556   1.756  1.00  0.00     0.232 C
HETATM    7  N1  UNL     1       3.056  10.711   2.376  1.00  0.00    -0.071 N
ATOM      8  H11 UNL     1       3.435  10.045   3.049  1.00  0.00     0.277 HD
ATOM      9  H12 UNL     1       2.452  11.213   3.027  1.00  0.00     0.277 HD
ENDROOT
TORSDOF 0
ENDMDL