MODEL 3
REMARK VINA RESULT: -2.755851899      2.189      4.222
REMARK  1 active torsions:
REMARK  status: ('A' for Active; 'I' for Inactive)
REMARK    1  A    between atoms: C4_4  and  C5_5
ROOT
HETATM    1  C1  UNL     1       0.928   8.952   1.939  1.00  0.00     0.017 C
HETATM    2  C2  UNL     1       1.837   9.736   1.789  1.00  0.00    -0.089 C
HETATM    3  C3  UNL     1       2.938  10.656   1.602  1.00  0.00     0.065 C
HETATM    4  C4  UNL     1       3.740  10.525   0.577  1.00  0.00     0.033 C
ENDROOT
BRANCH   4   5
HETATM    5  C5  UNL     1       4.847  11.441   0.380  1.00  0.00    -0.001 C
HETATM    6  C6  UNL     1       5.001  12.210  -0.877  1.00  0.00     0.067 C
HETATM    7  N1  UNL     1       5.715  11.593   1.314  1.00  0.00    -0.403 N
ATOM      8  H12 UNL     1       5.609  11.063   2.179  1.00  0.00     0.156 HD
ATOM      9  H11 UNL     1       6.494  12.238   1.176  1.00  0.00     0.156 HD
ENDBRANCH   4   5
TORSDOF 1
ENDMDL