MODEL 4
REMARK VINA RESULT: -4.738293870      1.995      3.307
REMARK  1 active torsions:
REMARK  status: ('A' for Active; 'I' for Inactive)
REMARK    1  A    between atoms: C5_5  and  N1_6
ROOT
HETATM    1  C1  UNL     1       5.050  10.516   0.937  1.00  0.00     0.010 C
HETATM    2  C2  UNL     1       3.559  10.799   0.817  1.00  0.00    -0.017 C
HETATM    3  C3  UNL     1       3.054  11.191   2.171  1.00  0.00     0.006 C
HETATM    4  C4  UNL     1       1.595  10.781   2.143  1.00  0.00     0.033 C
HETATM    5  C5  UNL     1       1.537   9.605   1.221  1.00  0.00     0.183 C
HETATM    6  C6  UNL     1       2.825   9.548   0.455  1.00  0.00     0.037 C
ENDROOT
BRANCH   5   7
HETATM    7  N1  UNL     1       1.329   8.348   1.884  1.00  0.00    -0.075 N
ATOM      8  H13 UNL     1       2.175   8.060   2.376  1.00  0.00     0.274 HD
ATOM      9  H12 UNL     1       0.697   8.462   2.676  1.00  0.00     0.274 HD
ATOM     10  H11 UNL     1       1.001   7.602   1.271  1.00  0.00     0.274 HD
ENDBRANCH   5   7
TORSDOF 1
ENDMDL