MODEL 2
REMARK VINA RESULT: -4.598210810      1.815      2.871
REMARK  1 active torsions:
REMARK  status: ('A' for Active; 'I' for Inactive)
REMARK    1  A    between atoms: C5_5  and  N1_6
ROOT
HETATM    1  C1  UNL     1       1.574  10.494   2.063  1.00  0.00     0.012 C
HETATM    2  C2  UNL     1       2.417  10.087   0.885  1.00  0.00     0.012 C
HETATM    3  C3  UNL     1       2.710   8.578   0.896  1.00  0.00     0.008 C
HETATM    4  C4  UNL     1       4.083   8.955   0.326  1.00  0.00     0.033 C
HETATM    5  C5  UNL     1       3.916  10.261   1.100  1.00  0.00     0.187 C
ENDROOT
BRANCH   5   6
HETATM    6  N1  UNL     1       4.503  11.410   0.517  1.00  0.00    -0.075 N
ATOM      7  H13 UNL     1       5.220  11.129  -0.151  1.00  0.00     0.274 HD
ATOM      8  H12 UNL     1       3.833  11.860  -0.108  1.00  0.00     0.274 HD
ATOM      9  H11 UNL     1       4.887  12.098   1.164  1.00  0.00     0.274 HD
ENDBRANCH   5   6
TORSDOF 1
ENDMDL