MODEL 3
REMARK VINA RESULT: -6.132039871      0.538      1.340
REMARK  2 active torsions:
REMARK  status: ('A' for Active; 'I' for Inactive)
REMARK    1  A    between atoms: C1_2  and  C2_4
REMARK    2  A    between atoms: C3_5  and  C4_6
ROOT
HETATM    1  C4  UNL     1       2.904   8.320   0.229  1.00  0.00     0.008 C
HETATM    2  C5  UNL     1       3.387   6.893   0.457  1.00  0.00     0.008 C
HETATM    3  C6  UNL     1       2.049   6.256   0.865  1.00  0.00     0.001 C
HETATM    4  C7  UNL     1       1.607   7.208   1.951  1.00  0.00     0.001 C
HETATM    5  C8  UNL     1       1.991   8.570   1.371  1.00  0.00     0.008 C
ENDROOT
BRANCH   1   6
HETATM    6  C3  UNL     1       3.979   9.289   0.046  1.00  0.00    -0.017 C
HETATM    7  C2  UNL     1       4.469   9.751  -1.078  1.00  0.00     0.067 C
BRANCH   7   8
HETATM    8  C1  UNL     1       5.551  10.721  -1.053  1.00  0.00     0.254 C
HETATM    9  N1  UNL     1       6.733  10.484  -0.308  1.00  0.00    -0.058 NA
HETATM   10  O1  UNL     1       5.464  11.798  -1.695  1.00  0.00    -0.272 OA
ENDBRANCH   7   8
ENDBRANCH   1   6
TORSDOF 2
ENDMDL