MODEL 2
REMARK VINA RESULT: -4.939849912      0.988      2.433
REMARK  1 active torsions:
REMARK  status: ('A' for Active; 'I' for Inactive)
REMARK    1  A    between atoms: N1_2  and  C2_5
ROOT
HETATM    1  C2  UNL     1       4.091   8.262   0.656  1.00  0.00     0.194 C
HETATM    2  C3  UNL     1       4.082   6.929  -0.089  1.00  0.00     0.038 C
HETATM    3  C4  UNL     1       2.917   6.146   0.452  1.00  0.00    -0.012 C
HETATM    4  C5  UNL     1       1.671   6.665  -0.225  1.00  0.00     0.005 C
HETATM    5  C6  UNL     1       1.619   8.100   0.291  1.00  0.00     0.011 C
HETATM    6  C7  UNL     1       2.727   8.239   1.298  1.00  0.00    -0.015 C
HETATM    7  C8  UNL     1       2.507   9.245   2.348  1.00  0.00     0.017 C
HETATM    8  C9  UNL     1       2.760   6.794   1.837  1.00  0.00     0.016 C
ENDROOT
BRANCH   1   9
HETATM    9  N1  UNL     1       4.314   9.376  -0.197  1.00  0.00    -0.074 N
HETATM   10  C1  UNL     1       5.638   9.879  -0.034  1.00  0.00     0.267 C
ATOM     11  H12 UNL     1       3.613  10.105  -0.058  1.00  0.00     0.277 HD
ATOM     12  H11 UNL     1       4.112   9.153  -1.172  1.00  0.00     0.277 HD
ENDBRANCH   1   9
TORSDOF 1
ENDMDL