MODEL 2
REMARK VINA RESULT: -5.449039201      1.136      1.156
REMARK  3 active torsions:
REMARK  status: ('A' for Active; 'I' for Inactive)
REMARK    1  A    between atoms: C2_2  and  C3_3
REMARK    2  A    between atoms: C3_3  and  N1_4
REMARK    3  A    between atoms: C3_3  and  C4_8
ROOT
HETATM    1  C3  UNL     1       4.199   9.602   0.383  1.00  0.00     0.209 C
ENDROOT
BRANCH   1   2
HETATM    2  C2  UNL     1       5.140  10.010  -0.706  1.00  0.00    -0.004 C
HETATM    3  C1  UNL     1       4.779  10.860  -1.659  1.00  0.00     0.009 C
ENDBRANCH   1   2
BRANCH   1   4
HETATM    4  N1  UNL     1       5.055   9.110   1.464  1.00  0.00    -0.071 N
ATOM      5  H13 UNL     1       4.829   9.499   2.379  1.00  0.00     0.275 HD
ATOM      6  H12 UNL     1       4.890   8.133   1.708  1.00  0.00     0.275 HD
ATOM      7  H11 UNL     1       6.009   9.303   1.157  1.00  0.00     0.275 HD
ENDBRANCH   1   4
BRANCH   1   8
HETATM    8  C4  UNL     1       3.329   8.443  -0.123  1.00  0.00     0.020 C
HETATM    9  C5  UNL     1       1.938   8.565   0.367  1.00  0.00     0.007 C
HETATM   10  C6  UNL     1       1.547   7.726   1.513  1.00  0.00     0.000 C
HETATM   11  C7  UNL     1       2.273   6.449   1.680  1.00  0.00     0.000 C
HETATM   12  C8  UNL     1       3.082   6.019   0.491  1.00  0.00     0.000 C
HETATM   13  C9  UNL     1       4.009   7.149   0.129  1.00  0.00     0.007 C
ENDBRANCH   1   8
TORSDOF 3
ENDMDL