MODEL 5
REMARK VINA RESULT: -4.344150868      1.471      1.471
REMARK  2 active torsions:
REMARK  status: ('A' for Active; 'I' for Inactive)
REMARK    1  A    between atoms: C1_4  and  O1_5
REMARK    2  A    between atoms: O1_5  and  C2_6
ROOT
HETATM    1  C2  UNL     1       2.555   8.652   0.162  1.00  0.00     0.129 C
HETATM    2  C3  UNL     1       2.163   7.285  -0.270  1.00  0.00     0.032 C
HETATM    3  C4  UNL     1       1.973   6.288   0.834  1.00  0.00     0.002 C
HETATM    4  C5  UNL     1       1.025   6.806   1.881  1.00  0.00     0.000 C
HETATM    5  C6  UNL     1       1.313   8.201   2.328  1.00  0.00     0.002 C
HETATM    6  C7  UNL     1       2.378   8.932   1.624  1.00  0.00     0.032 C
ENDROOT
BRANCH   1   7
HETATM    7  O1  UNL     1       3.902   8.847  -0.215  1.00  0.00    -0.342 OA
BRANCH   7   8
HETATM    8  C1  UNL     1       4.963   8.466   0.574  1.00  0.00     0.219 C
HETATM    9  N1  UNL     1       5.319   7.241   0.622  1.00  0.00    -0.390 N
ATOM     10  H12 UNL     1       4.805   6.555   0.067  1.00  0.00     0.157 HD
ATOM     11  H11 UNL     1       6.106   6.959   1.207  1.00  0.00     0.157 HD
ENDBRANCH   7   8
ENDBRANCH   1   7
TORSDOF 2
ENDMDL