MODEL 4
REMARK VINA RESULT: -3.909395317      1.342      1.893
REMARK  2 active torsions:
REMARK  status: ('A' for Active; 'I' for Inactive)
REMARK    1  A    between atoms: C2_2  and  C3_3
REMARK    2  A    between atoms: N1_4  and  C4_6
ROOT
HETATM    1  C4  UNL     1       2.328   8.732   1.235  1.00  0.00     0.081 C
HETATM    2  C5  UNL     1       2.107   8.287  -0.183  1.00  0.00     0.025 C
HETATM    3  C6  UNL     1       1.560   6.876  -0.202  1.00  0.00     0.002 C
HETATM    4  C7  UNL     1       2.554   5.997   0.511  1.00  0.00     0.000 C
HETATM    5  C8  UNL     1       2.506   6.349   1.983  1.00  0.00     0.002 C
HETATM    6  C9  UNL     1       1.942   7.706   2.248  1.00  0.00     0.025 C
ENDROOT
BRANCH   1   7
HETATM    7  N1  UNL     1       3.696   9.169   1.368  1.00  0.00    -0.394 N
HETATM    8  C3  UNL     1       4.485   9.298   0.349  1.00  0.00     0.082 C
ATOM      9  H1  UNL     1       4.055   9.385   2.298  1.00  0.00     0.159 HD
BRANCH   8  10
HETATM   10  C2  UNL     1       5.863   9.739   0.475  1.00  0.00     0.006 C
HETATM   11  C1  UNL     1       6.474  10.380  -0.495  1.00  0.00     0.012 C
ENDBRANCH   8  10
ENDBRANCH   1   7
TORSDOF 2
ENDMDL