MODEL 4
REMARK VINA RESULT: -3.918170166      1.341      4.102
REMARK  2 active torsions:
REMARK  status: ('A' for Active; 'I' for Inactive)
REMARK    1  A    between atoms: C2_2  and  N1_3
REMARK    2  A    between atoms: N1_3  and  C3_5
ROOT
HETATM    1  C3  UNL     1       4.245   8.004   0.069  1.00  0.00     0.081 C
HETATM    2  C4  UNL     1       4.146   8.948   1.239  1.00  0.00     0.025 C
HETATM    3  C5  UNL     1       5.274   9.894   1.366  1.00  0.00     0.002 C
HETATM    4  C6  UNL     1       6.089  10.086   0.123  1.00  0.00     0.000 C
HETATM    5  C7  UNL     1       5.311  10.584  -1.044  1.00  0.00     0.000 C
HETATM    6  C8  UNL     1       4.682   9.493  -1.873  1.00  0.00     0.002 C
HETATM    7  C9  UNL     1       3.618   8.739  -1.121  1.00  0.00     0.025 C
ENDROOT
BRANCH   1   8
HETATM    8  N1  UNL     1       3.504   6.795   0.343  1.00  0.00    -0.395 N
ATOM      9  H1  UNL     1       4.022   5.949   0.578  1.00  0.00     0.159 HD
BRANCH   8  10
HETATM   10  C2  UNL     1       2.094   6.733   0.301  1.00  0.00     0.073 C
HETATM   11  C1  UNL     1       1.381   6.737   1.402  1.00  0.00     0.029 C
ENDBRANCH   8  10
ENDBRANCH   1   8
TORSDOF 2
ENDMDL