MODEL 5
REMARK VINA RESULT: -5.162264234      1.116      4.674
REMARK  2 active torsions:
REMARK  status: ('A' for Active; 'I' for Inactive)
REMARK    1  A    between atoms: C4_4  and  N1_5
REMARK    2  A    between atoms: N1_5  and  C5_7
ROOT
HETATM    1  C1  UNL     1       5.730  11.279  -1.193  1.00  0.00     0.000 C
HETATM    2  C2  UNL     1       6.454  10.233  -0.369  1.00  0.00     0.002 C
HETATM    3  C3  UNL     1       5.416   9.708   0.631  1.00  0.00     0.024 C
HETATM    4  C4  UNL     1       4.183   9.254  -0.068  1.00  0.00     0.077 C
HETATM    5  C8  UNL     1       4.290   9.263  -1.568  1.00  0.00     0.024 C
HETATM    6  C9  UNL     1       4.804  10.559  -2.126  1.00  0.00     0.002 C
ENDROOT
BRANCH   4   7
HETATM    7  N1  UNL     1       3.715   7.955   0.320  1.00  0.00    -0.413 N
ATOM      8  H1  UNL     1       4.347   7.171   0.484  1.00  0.00     0.154 HD
BRANCH   7   9
HETATM    9  C5  UNL     1       2.302   7.844   0.457  1.00  0.00     0.077 A
HETATM   10  C6  UNL     1       1.790   6.728   1.294  1.00  0.00     0.027 A
HETATM   11  C7  UNL     1       1.649   8.193   1.719  1.00  0.00     0.027 A
ENDBRANCH   7   9
ENDBRANCH   4   7
TORSDOF 2
ENDMDL