MODEL 3
REMARK VINA RESULT: -4.685606431      0.989      1.810
REMARK  2 active torsions:
REMARK  status: ('A' for Active; 'I' for Inactive)
REMARK    1  A    between atoms: N1_1  and  C1_5
REMARK    2  A    between atoms: C4_8  and  C5_9
ROOT
HETATM    1  C1  UNL     1       2.089   6.958   1.799  1.00  0.00     0.183 C
HETATM    2  C2  UNL     1       2.902   6.767   0.522  1.00  0.00     0.033 C
HETATM    3  C3  UNL     1       2.641   7.937  -0.378  1.00  0.00     0.007 C
HETATM    4  C4  UNL     1       3.323   9.161   0.168  1.00  0.00    -0.010 C
HETATM    5  C8  UNL     1       3.319   9.055   1.699  1.00  0.00     0.007 C
HETATM    6  C9  UNL     1       1.976   8.453   2.067  1.00  0.00     0.033 C
ENDROOT
BRANCH   1   7
HETATM    7  N1  UNL     1       0.806   6.349   1.597  1.00  0.00    -0.075 N
ATOM      8  H13 UNL     1       0.342   6.676   0.751  1.00  0.00     0.274 HD
ATOM      9  H12 UNL     1       0.872   5.363   1.344  1.00  0.00     0.274 HD
ATOM     10  H11 UNL     1       0.251   6.505   2.439  1.00  0.00     0.274 HD
ENDBRANCH   1   7
BRANCH   4  11
HETATM   11  C5  UNL     1       4.705   9.367  -0.309  1.00  0.00    -0.010 A
HETATM   12  C6  UNL     1       5.110   9.401  -1.711  1.00  0.00     0.005 A
HETATM   13  C7  UNL     1       4.949  10.711  -0.992  1.00  0.00     0.005 A
ENDBRANCH   4  11
TORSDOF 2
ENDMDL