MODEL 4
REMARK VINA RESULT: -6.277651804      1.303      2.334
REMARK  1 active torsions:
REMARK  status: ('A' for Active; 'I' for Inactive)
REMARK    1  A    between atoms: C1_2  and  C2_4
ROOT
HETATM    1  C2  UNL     1       3.751   8.422   0.662  1.00  0.00     0.075 C
HETATM    2  C3  UNL     1       3.906   7.105  -0.005  1.00  0.00     0.013 C
HETATM    3  C4  UNL     1       3.039   6.015   0.452  1.00  0.00     0.001 C
HETATM    4  C5  UNL     1       1.734   6.404   1.066  1.00  0.00     0.000 C
HETATM    5  C6  UNL     1       1.849   7.328   2.230  1.00  0.00     0.000 C
HETATM    6  C7  UNL     1       1.588   8.740   1.731  1.00  0.00     0.001 C
HETATM    7  C8  UNL     1       2.352   8.978   0.442  1.00  0.00     0.013 C
ENDROOT
BRANCH   1   8
HETATM    8  C1  UNL     1       4.682   9.386  -0.021  1.00  0.00     0.235 C
HETATM    9  N1  UNL     1       5.719  10.013   0.702  1.00  0.00    -0.062 NA
HETATM   10  O1  UNL     1       4.572   9.667  -1.243  1.00  0.00    -0.277 OA
ENDBRANCH   1   8
TORSDOF 1
ENDMDL