MODEL 4
REMARK VINA RESULT: -4.653035762      1.631      2.144
REMARK  2 active torsions:
REMARK  status: ('A' for Active; 'I' for Inactive)
REMARK    1  A    between atoms: C2_2  and  C3_3
REMARK    2  A    between atoms: C3_3  and  C4_5
ROOT
HETATM    1  C4  UNL     1       3.799   8.169  -0.253  1.00  0.00     0.004 C
HETATM    2  C5  UNL     1       3.915   6.732   0.217  1.00  0.00     0.006 C
HETATM    3  C6  UNL     1       2.401   6.689   0.062  1.00  0.00     0.001 C
HETATM    4  C7  UNL     1       2.449   8.166   0.468  1.00  0.00     0.006 C
ENDROOT
BRANCH   1   5
HETATM    5  C3  UNL     1       4.854   9.019   0.368  1.00  0.00     0.084 C
HETATM    6  S1  UNL     1       4.362   9.685   1.966  1.00  0.00    -0.088 SA
BRANCH   5   7
HETATM    7  C2  UNL     1       5.330  10.119  -0.475  1.00  0.00    -0.021 C
HETATM    8  C1  UNL     1       4.800  10.260  -1.693  1.00  0.00     0.008 C
ENDBRANCH   5   7
ENDBRANCH   1   5
TORSDOF 2
ENDMDL