MODEL 2
REMARK VINA RESULT: -4.435110011      1.343      1.616
REMARK  1 active torsions:
REMARK  status: ('A' for Active; 'I' for Inactive)
REMARK    1  A    between atoms: C1_2  and  N2_4
ROOT
HETATM    1  N2  UNL     1       3.118   8.711   1.086  1.00  0.00    -0.329 N
HETATM    2  C2  UNL     1       3.094   7.306   0.752  1.00  0.00     0.132 C
HETATM    3  C3  UNL     1       1.778   7.170   1.444  1.00  0.00     0.079 C
HETATM    4  C4  UNL     1       1.683   8.650   1.275  1.00  0.00     0.274 C
HETATM    5  F1  UNL     1       1.302   9.333   2.415  1.00  0.00    -0.227 F
ENDROOT
BRANCH   1   6
HETATM    6  C1  UNL     1       4.083   9.743   1.199  1.00  0.00     0.185 C
HETATM    7  N1  UNL     1       4.154  10.557   2.359  1.00  0.00    -0.070 NA
HETATM    8  S1  UNL     1       5.140  10.012  -0.026  1.00  0.00    -0.044 SA
ENDBRANCH   1   6
TORSDOF 1
ENDMDL