MODEL 4
REMARK VINA RESULT: -3.360022325      2.375      3.214
REMARK  1 active torsions:
REMARK  status: ('A' for Active; 'I' for Inactive)
REMARK    1  A    between atoms: N1_1  and  C1_5
ROOT
HETATM    1  C1  UNL     1       2.321   9.333   1.729  1.00  0.00     0.206 C
HETATM    2  C2  UNL     1       3.217   9.663   0.559  1.00  0.00     0.018 C
HETATM    3  C3  UNL     1       4.640   9.233   0.789  1.00  0.00     0.007 C
HETATM    4  C4  UNL     1       4.652   7.707   0.710  1.00  0.00     0.006 C
HETATM    5  C5  UNL     1       3.164   7.396   0.562  1.00  0.00     0.006 C
HETATM    6  C6  UNL     1       2.760   8.535  -0.389  1.00  0.00     0.013 C
HETATM    7  C7  UNL     1       2.513   7.817   1.826  1.00  0.00     0.117 C
HETATM    8 CL1  UNL     1       0.989   7.047   2.179  1.00  0.00    -0.122 Cl
ENDROOT
BRANCH   1   9
HETATM    9  N1  UNL     1       2.657  10.000   2.932  1.00  0.00    -0.073 N
ATOM     10  H13 UNL     1       3.599  10.385   2.873  1.00  0.00     0.274 HD
ATOM     11  H12 UNL     1       2.119  10.861   3.022  1.00  0.00     0.274 HD
ATOM     12  H11 UNL     1       2.559   9.430   3.773  1.00  0.00     0.274 HD
ENDBRANCH   1   9
TORSDOF 1
ENDMDL