MODEL 4
REMARK VINA RESULT: -5.222030802      1.144      1.197
REMARK  1 active torsions:
REMARK  status: ('A' for Active; 'I' for Inactive)
REMARK    1  A    between atoms: C1_2  and  C2_4
ROOT
HETATM    1  C2  UNL     1       3.112   9.314   0.757  1.00  0.00     0.185 C
HETATM    2  F1  UNL     1       2.685  10.313  -0.095  1.00  0.00    -0.233 F
HETATM    3  C3  UNL     1       2.680   9.678   2.157  1.00  0.00     0.054 C
HETATM    4  C4  UNL     1       1.596   8.728   2.560  1.00  0.00     0.009 C
HETATM    5  C5  UNL     1       1.374   7.797   1.405  1.00  0.00    -0.006 A
HETATM    6  C6  UNL     1       2.471   6.820   1.151  1.00  0.00     0.013 A
HETATM    7  C7  UNL     1       2.387   8.056   0.376  1.00  0.00     0.039 A
ENDROOT
BRANCH   1   8
HETATM    8  C1  UNL     1       4.571   9.179   0.683  1.00  0.00     0.271 C
HETATM    9  N1  UNL     1       5.215   7.916   0.662  1.00  0.00    -0.059 NA
HETATM   10  O1  UNL     1       5.300  10.199   0.636  1.00  0.00    -0.273 OA
ENDBRANCH   1   8
TORSDOF 1
ENDMDL