MODEL 3
REMARK VINA RESULT: -3.519332592      3.312      4.444
REMARK  0 active torsions:
REMARK  status: ('A' for Active; 'I' for Inactive)
REMARK       I    between atoms: C1_2  and  N1_4
ROOT
HETATM    1  O1  UNL     1       1.471   6.674   0.909  1.00  0.00    -0.630 OA
HETATM    2  C1  UNL     1       1.738   7.795   1.406  1.00  0.00     0.285 C
HETATM    3  O2  UNL     1       0.778   8.409   2.183  1.00  0.00    -0.630 OA
HETATM    4  N1  UNL     1       2.975   8.440   1.199  1.00  0.00    -0.326 N
HETATM    5  C2  UNL     1       3.175   9.729   1.819  1.00  0.00     0.131 C
HETATM    6  C3  UNL     1       4.220  10.570   1.184  1.00  0.00     0.057 C
HETATM    7  C4  UNL     1       5.411   9.791   0.690  1.00  0.00     0.173 C
HETATM    8  F1  UNL     1       6.198  10.645  -0.047  1.00  0.00    -0.249 F
HETATM    9  C5  UNL     1       5.030   8.626  -0.163  1.00  0.00     0.057 C
HETATM   10  C6  UNL     1       3.951   7.767   0.383  1.00  0.00     0.131 C
ENDROOT
TORSDOF 0
ENDMDL