MODEL 1
REMARK VINA RESULT: -4.680932723      0.000      0.000
REMARK  1 active torsions:
REMARK  status: ('A' for Active; 'I' for Inactive)
REMARK    1  A    between atoms: C7_7  and  N1_8
ROOT
HETATM    1  C1  UNL     1       4.956   7.420   0.094  1.00  0.00     0.012 C
HETATM    2  C2  UNL     1       3.934   7.760   1.150  1.00  0.00     0.020 C
HETATM    3  C3  UNL     1       2.893   6.689   1.322  1.00  0.00     0.007 C
HETATM    4  C4  UNL     1       1.663   7.198   2.001  1.00  0.00     0.008 C
HETATM    5  C5  UNL     1       1.468   8.676   1.797  1.00  0.00     0.025 C
HETATM    6  C6  UNL     1       2.677   9.462   2.326  1.00  0.00     0.049 C
HETATM    7  C7  UNL     1       3.330   9.118   0.979  1.00  0.00     0.158 C
HETATM    8  C8  UNL     1       1.939   9.095   0.407  1.00  0.00     0.210 C
HETATM    9  F1  UNL     1       1.689   8.221  -0.592  1.00  0.00    -0.246 F
ENDROOT
BRANCH   7  10
HETATM   10  N1  UNL     1       4.135  10.161   0.509  1.00  0.00    -0.067 N
ATOM     11  H13 UNL     1       4.277  10.833   1.263  1.00  0.00     0.275 HD
ATOM     12  H12 UNL     1       5.083   9.810   0.375  1.00  0.00     0.275 HD
ATOM     13  H11 UNL     1       3.848  10.664  -0.331  1.00  0.00     0.275 HD
ENDBRANCH   7  10
TORSDOF 1
ENDMDL