MODEL 5
REMARK VINA RESULT: -2.815423814      1.818      2.585
REMARK  3 active torsions:
REMARK  status: ('A' for Active; 'I' for Inactive)
REMARK    1  A    between atoms: N1_1  and  C1_5
REMARK    2  A    between atoms: C2_6  and  C8_13
REMARK    3  A    between atoms: C5_9  and  C6_11
ROOT
HETATM    1  C1  UNL     1       1.574   8.109   0.837  1.00  0.00     0.227 C
HETATM    2  C2  UNL     1       2.546   9.270   0.538  1.00  0.00     0.024 C
HETATM    3  C3  UNL     1       1.781  10.213   1.519  1.00  0.00     0.010 C
HETATM    4  C4  UNL     1       2.003   9.295   2.746  1.00  0.00     0.046 C
HETATM    5  C5  UNL     1       2.260   7.923   2.221  1.00  0.00     0.136 C
HETATM    6  F1  UNL     1       1.692   6.912   2.923  1.00  0.00    -0.240 F
ENDROOT
BRANCH   1   7
HETATM    7  N1  UNL     1       1.700   7.023  -0.030  1.00  0.00    -0.071 N
ATOM      8  H13 UNL     1       0.878   6.946  -0.629  1.00  0.00     0.274 HD
ATOM      9  H12 UNL     1       2.412   7.211  -0.737  1.00  0.00     0.274 HD
ATOM     10  H11 UNL     1       1.886   6.136   0.438  1.00  0.00     0.274 HD
ENDBRANCH   1   7
BRANCH   2  11
HETATM   11  C8  UNL     1       3.815   8.997   1.186  1.00  0.00    -0.001 A
HETATM   12  C6  UNL     1       4.799   8.914  -0.003  1.00  0.00     0.032 A
HETATM   13  C7  UNL     1       5.087   9.539   1.241  1.00  0.00     0.014 A
ENDBRANCH   2  11
TORSDOF 3
ENDMDL