MODEL 1
REMARK VINA RESULT: -4.612763286      0.000      0.000
REMARK  1 active torsions:
REMARK  status: ('A' for Active; 'I' for Inactive)
REMARK    1  A    between atoms: N1_1  and  C1_5
ROOT
HETATM    1  C1  UNL     1       2.212   7.808   2.018  1.00  0.00     0.188 C
HETATM    2  C2  UNL     1       3.224   7.124   1.087  1.00  0.00     0.039 C
HETATM    3  C3  UNL     1       3.717   8.253   0.224  1.00  0.00     0.006 C
HETATM    4  C4  UNL     1       2.434   9.091   0.088  1.00  0.00     0.013 C
HETATM    5  C5  UNL     1       2.207   9.250   1.602  1.00  0.00     0.018 C
HETATM    6  C6  UNL     1       3.528   9.852   1.998  1.00  0.00     0.027 C
HETATM    7  C7  UNL     1       4.551   9.183   1.066  1.00  0.00     0.087 C
HETATM    8 CL1  UNL     1       5.288  10.376  -0.026  1.00  0.00    -0.125 Cl
ENDROOT
BRANCH   1   9
HETATM    9  N1  UNL     1       0.958   7.145   1.845  1.00  0.00    -0.075 N
ATOM     10  H13 UNL     1       1.057   6.144   1.675  1.00  0.00     0.274 HD
ATOM     11  H12 UNL     1       0.419   7.079   2.709  1.00  0.00     0.274 HD
ATOM     12  H11 UNL     1       0.459   7.629   1.099  1.00  0.00     0.274 HD
ENDBRANCH   1   9
TORSDOF 1
ENDMDL