MODEL 4
REMARK VINA RESULT: -8.342424209      2.068      3.857
REMARK  15 active torsions:
REMARK  status: ('A' for Active; 'I' for Inactive)
REMARK       I    between atoms: C2_2  and  N1_4
REMARK    1  A    between atoms: N1_4  and  C3_6
REMARK    2  A    between atoms: C3_6  and  C5_8
REMARK       I    between atoms: C5_8  and  N2_10
REMARK    3  A    between atoms: N2_10  and  C6_12
REMARK    4  A    between atoms: C6_12  and  C7_13
REMARK    5  A    between atoms: C7_13  and  C8_14
REMARK    6  A    between atoms: C8_14  and  C9_15
REMARK    7  A    between atoms: C9_15  and  C10_16
REMARK    8  A    between atoms: C10_16  and  C11_17
REMARK    9  A    between atoms: C11_17  and  N3_18
REMARK       I    between atoms: N3_18  and  C12_19
REMARK   10  A    between atoms: C12_19  and  C13_21
REMARK   11  A    between atoms: C13_21  and  C14_22
REMARK   12  A    between atoms: C13_21  and  C26_40
REMARK   13  A    between atoms: C14_22  and  C15_23
REMARK   14  A    between atoms: C15_23  and  C16_24
REMARK   15  A    between atoms: C16_24  and  C17_25
REMARK       I    between atoms: C17_25  and  N4_27
ROOT
HETATM    1  C13 UNL     1       8.048  16.503   2.021  1.00  0.00     0.162 C
ENDROOT
BRANCH   1   2
HETATM    2  C12 UNL     1       7.445  16.643   3.427  1.00  0.00     0.302 C
HETATM    3  N3  UNL     1       7.398  15.648   4.311  1.00  0.00    -0.387 NA
HETATM    4  O3  UNL     1       7.021  17.856   3.571  1.00  0.00    -0.256 OA
BRANCH   3   5
HETATM    5  C11 UNL     1       7.349  14.629   5.217  1.00  0.00     0.159 C
BRANCH   5   6
HETATM    6  C10 UNL     1       8.704  14.069   5.712  1.00  0.00     0.059 C
BRANCH   6   7
HETATM    7  C9  UNL     1       9.809  15.022   5.659  1.00  0.00     0.006 C
BRANCH   7   8
HETATM    8  C8  UNL     1      10.051  15.863   6.845  1.00  0.00     0.002 C
BRANCH   8   9
HETATM    9  C7  UNL     1       9.360  15.556   8.087  1.00  0.00     0.020 C
BRANCH   9  10
HETATM   10  C6  UNL     1       8.503  16.563   8.709  1.00  0.00     0.122 C
BRANCH  10  11
HETATM   11  N2  UNL     1       7.091  16.498   8.442  1.00  0.00    -0.359 N
HETATM   12  C5  UNL     1       6.509  17.367   7.498  1.00  0.00     0.240 C
HETATM   13  O2  UNL     1       7.197  18.193   6.884  1.00  0.00    -0.271 OA
ATOM     14  H2  UNL     1       6.510  15.821   8.937  1.00  0.00     0.162 HD
BRANCH  12  15
HETATM   15  C3  UNL     1       5.040  17.309   7.224  1.00  0.00     0.172 C
HETATM   16  C4  UNL     1       4.488  16.080   7.860  1.00  0.00     0.042 C
BRANCH  15  17
HETATM   17  N1  UNL     1       4.824  17.302   5.791  1.00  0.00    -0.349 N
HETATM   18  C2  UNL     1       3.905  18.196   5.201  1.00  0.00     0.214 C
HETATM   19  C1  UNL     1       3.662  18.224   3.732  1.00  0.00     0.117 C
HETATM   20  O1  UNL     1       3.269  18.996   5.940  1.00  0.00    -0.274 OA
ATOM     21  H1  UNL     1       5.340  16.647   5.204  1.00  0.00     0.163 HD
ENDBRANCH  15  17
ENDBRANCH  12  15
ENDBRANCH  10  11
ENDBRANCH   9  10
ENDBRANCH   8   9
ENDBRANCH   7   8
ENDBRANCH   6   7
ENDBRANCH   5   6
ENDBRANCH   3   5
ENDBRANCH   1   2
BRANCH   1  22
HETATM   22  C14 UNL     1       7.101  17.321   1.151  1.00  0.00     0.023 C
BRANCH  22  23
HETATM   23  C15 UNL     1       6.581  16.495   0.010  1.00  0.00     0.010 C
BRANCH  23  24
HETATM   24  C16 UNL     1       7.463  15.305  -0.216  1.00  0.00     0.103 C
BRANCH  24  25
HETATM   25  C17 UNL     1       8.336  15.517  -1.386  1.00  0.00     0.219 C
HETATM   26  O4  UNL     1       8.064  16.257  -2.363  1.00  0.00    -0.273 OA
HETATM   27  N4  UNL     1       9.604  14.805  -1.387  1.00  0.00    -0.349 N
HETATM   28  C18 UNL     1      10.339  15.049  -2.588  1.00  0.00     0.152 C
HETATM   29  C25 UNL     1       9.882  14.014  -0.199  1.00  0.00     0.141 C
HETATM   30  C19 UNL     1      11.815  15.386  -2.342  1.00  0.00     0.122 C
HETATM   31  N5  UNL     1      11.921  15.977  -1.099  1.00  0.00    -0.394 N
HETATM   32  C23 UNL     1      12.568  14.126  -2.618  1.00  0.00     0.133 C
HETATM   33  C20 UNL     1      12.586  15.415  -0.016  1.00  0.00     0.062 C
ATOM     34  H5  UNL     1      11.480  16.888  -0.966  1.00  0.00     0.159 HD
HETATM   35  C21 UNL     1      12.364  14.000   0.325  1.00  0.00     0.048 C
HETATM   36  C22 UNL     1      13.632  13.232  -0.092  1.00  0.00     0.086 C
HETATM   37  C24 UNL     1      11.181  13.304  -0.231  1.00  0.00     0.076 C
HETATM   38  S1  UNL     1      14.126  13.996  -1.688  1.00  0.00    -0.151 SA
HETATM   39  S2  UNL     1      11.506  12.779  -1.948  1.00  0.00    -0.144 SA
ENDBRANCH  24  25
ENDBRANCH  23  24
ENDBRANCH  22  23
ENDBRANCH   1  22
BRANCH   1  40
HETATM   40  C26 UNL     1       9.409  16.992   1.926  1.00  0.00     0.137 C
HETATM   41  C27 UNL     1       9.856  18.106   1.058  1.00  0.00     0.091 C
HETATM   42  O5  UNL     1      10.288  16.452   2.619  1.00  0.00    -0.297 OA
ENDBRANCH   1  40
TORSDOF 15
ENDMDL