MODEL 5
REMARK VINA RESULT: -8.657249075      2.060      9.802
REMARK  16 active torsions:
REMARK  status: ('A' for Active; 'I' for Inactive)
REMARK    1  A    between atoms: C2_2  and  C3_3
REMARK    2  A    between atoms: C3_3  and  C4_4
REMARK    3  A    between atoms: C4_4  and  C5_5
REMARK    4  A    between atoms: C5_5  and  C6_6
REMARK    5  A    between atoms: C6_6  and  N1_7
REMARK       I    between atoms: N1_7  and  C7_9
REMARK    6  A    between atoms: C7_9  and  C8_11
REMARK    7  A    between atoms: N3_20  and  C13_22
REMARK    8  A    between atoms: C13_22  and  C14_24
REMARK    9  A    between atoms: C14_24  and  C15_25
REMARK   10  A    between atoms: C14_24  and  N4_32
REMARK   11  A    between atoms: C15_25  and  C16_26
REMARK       I    between atoms: N4_32  and  C22_34
REMARK   12  A    between atoms: C22_34  and  C23_36
REMARK   13  A    between atoms: C23_36  and  N5_37
REMARK   14  A    between atoms: N6_40  and  C26_41
REMARK   15  A    between atoms: C26_41  and  C27_42
REMARK   16  A    between atoms: C27_42  and  O4_43
ROOT
HETATM    1  C13 UNL     1      10.257  15.949  -0.083  1.00  0.00     0.100 C
HETATM    2  S1  UNL     1      10.455  16.922  -1.408  1.00  0.00    -0.063 SA
ENDROOT
BRANCH   1   3
HETATM    3  N3  UNL     1      10.793  14.663  -0.157  1.00  0.00    -0.356 N
HETATM    4  C2  UNL     1      11.980  14.257  -0.028  1.00  0.00    -0.017 C
HETATM    5  C1  UNL     1      13.117  15.160   0.248  1.00  0.00     0.063 C
ATOM      6  H3  UNL     1      10.111  13.928  -0.347  1.00  0.00     0.166 HD
BRANCH   4   7
HETATM    7  C3  UNL     1      12.312  12.791  -0.138  1.00  0.00     0.052 C
BRANCH   7   8
HETATM    8  C4  UNL     1      12.374  12.332  -1.553  1.00  0.00     0.007 C
BRANCH   8   9
HETATM    9  C5  UNL     1      13.740  12.559  -2.151  1.00  0.00     0.020 C
BRANCH   9  10
HETATM   10  C6  UNL     1      13.619  13.358  -3.439  1.00  0.00     0.122 C
BRANCH  10  11
HETATM   11  N1  UNL     1      12.241  13.353  -3.889  1.00  0.00    -0.359 N
HETATM   12  C7  UNL     1      11.755  14.391  -4.724  1.00  0.00     0.256 C
HETATM   13  O1  UNL     1      12.525  15.306  -5.072  1.00  0.00    -0.271 OA
ATOM     14  H1  UNL     1      11.618  12.599  -3.603  1.00  0.00     0.162 HD
BRANCH  12  15
HETATM   15  C8  UNL     1      10.360  14.376  -5.171  1.00  0.00     0.346 C
HETATM   16  N2  UNL     1      10.092  15.518  -6.025  1.00  0.00    -0.051 N
HETATM   17  C9  UNL     1       8.667  15.776  -5.869  1.00  0.00     0.190 C
ATOM     18  H22 UNL     1      10.683  16.327  -5.832  1.00  0.00     0.279 HD
ATOM     19  H21 UNL     1      10.385  15.387  -6.993  1.00  0.00     0.279 HD
HETATM   20  C10 UNL     1       8.402  17.220  -6.137  1.00  0.00     0.040 C
HETATM   21  C11 UNL     1       8.306  15.385  -4.480  1.00  0.00     0.113 C
HETATM   22  C12 UNL     1       9.395  14.484  -4.052  1.00  0.00     0.168 C
HETATM   23  O2  UNL     1       9.475  13.935  -2.975  1.00  0.00    -0.295 OA
ENDBRANCH  12  15
ENDBRANCH  10  11
ENDBRANCH   9  10
ENDBRANCH   8   9
ENDBRANCH   7   8
ENDBRANCH   4   7
ENDBRANCH   1   3
BRANCH   1  24
HETATM   24  C14 UNL     1       9.575  16.473   1.103  1.00  0.00     0.146 C
BRANCH  24  25
HETATM   25  C15 UNL     1       9.512  15.662   2.325  1.00  0.00     0.037 C
BRANCH  25  26
HETATM   26  C16 UNL     1       8.776  16.059   3.519  1.00  0.00    -0.012 C
HETATM   27  C17 UNL     1       9.760  16.153   4.722  1.00  0.00     0.005 C
HETATM   28  C18 UNL     1       9.912  14.762   5.277  1.00  0.00     0.000 C
HETATM   29  C19 UNL     1       8.579  14.406   5.938  1.00  0.00     0.000 C
HETATM   30  C20 UNL     1       7.612  14.209   4.796  1.00  0.00     0.000 C
HETATM   31  C21 UNL     1       7.510  15.444   3.926  1.00  0.00     0.005 C
ENDBRANCH  25  26
ENDBRANCH  24  25
BRANCH  24  32
HETATM   32  N4  UNL     1       8.206  16.912   0.716  1.00  0.00    -0.349 N
HETATM   33  C22 UNL     1       7.223  16.037   0.230  1.00  0.00     0.235 C
HETATM   34  O3  UNL     1       7.445  14.818   0.097  1.00  0.00    -0.272 OA
ATOM     35  H4  UNL     1       7.970  17.900   0.809  1.00  0.00     0.163 HD
BRANCH  33  36
HETATM   36  C23 UNL     1       5.901  16.588  -0.127  1.00  0.00     0.219 C
BRANCH  36  37
HETATM   37  N5  UNL     1       5.246  17.125   1.014  1.00  0.00    -0.401 N
HETATM   38  C24 UNL     1       5.455  18.507   1.290  1.00  0.00     0.147 C
HETATM   39  C25 UNL     1       4.443  18.937   2.368  1.00  0.00     0.291 C
HETATM   40  N6  UNL     1       4.327  17.800   3.275  1.00  0.00     0.093 N
HETATM   41  C28 UNL     1       3.608  16.691   2.702  1.00  0.00     0.291 C
HETATM   42  C29 UNL     1       3.929  16.627   1.209  1.00  0.00     0.147 C
BRANCH  40  43
HETATM   43  C26 UNL     1       3.722  18.171   4.524  1.00  0.00     0.298 C
BRANCH  43  44
HETATM   44  C27 UNL     1       2.236  18.288   4.351  1.00  0.00     0.194 C
BRANCH  44  45
HETATM   45  O4  UNL     1       1.701  19.331   5.109  1.00  0.00    -0.399 OA
ATOM     46  H4  UNL     1       1.209  19.012   5.856  1.00  0.00     0.209 HD
ENDBRANCH  44  45
ENDBRANCH  43  44
ENDBRANCH  40  43
ENDBRANCH  36  37
ENDBRANCH  33  36
ENDBRANCH  24  32
ENDBRANCH   1  24
TORSDOF 16
ENDMDL