MODEL 5
REMARK VINA RESULT: -8.399877891      2.703      4.453
REMARK  16 active torsions:
REMARK  status: ('A' for Active; 'I' for Inactive)
REMARK    1  A    between atoms: C3_3  and  C4_4
REMARK    2  A    between atoms: C3_3  and  N4_26
REMARK    3  A    between atoms: C4_4  and  C5_5
REMARK    4  A    between atoms: C5_5  and  C6_6
REMARK    5  A    between atoms: C6_6  and  C7_7
REMARK    6  A    between atoms: C7_7  and  N1_8
REMARK       I    between atoms: N1_8  and  C8_10
REMARK    7  A    between atoms: C8_10  and  C9_12
REMARK    8  A    between atoms: C9_12  and  C10_13
REMARK    9  A    between atoms: C10_13  and  N2_14
REMARK       I    between atoms: N2_14  and  C11_16
REMARK   10  A    between atoms: C11_16  and  C12_18
REMARK   11  A    between atoms: N4_26  and  C17_27
REMARK   12  A    between atoms: C17_27  and  C18_28
REMARK   13  A    between atoms: C17_27  and  C22_36
REMARK   14  A    between atoms: C18_28  and  C19_29
REMARK       I    between atoms: C22_36  and  N7_38
REMARK       I    between atoms: N8_41  and  C25_42
REMARK   15  A    between atoms: C25_42  and  O5_44
REMARK   16  A    between atoms: O5_44  and  C26_45
ROOT
HETATM    1  C1  UNL     1       8.127  17.170   3.310  1.00  0.00     0.015 C
HETATM    2  C2  UNL     1       8.277  17.374   2.135  1.00  0.00    -0.078 C
HETATM    3  C3  UNL     1       8.432  17.641   0.659  1.00  0.00     0.241 C
ENDROOT
BRANCH   3   4
HETATM    4  C4  UNL     1       6.982  17.710   0.117  1.00  0.00     0.052 C
BRANCH   4   5
HETATM    5  C5  UNL     1       6.223  16.467   0.416  1.00  0.00     0.006 C
BRANCH   5   6
HETATM    6  C6  UNL     1       4.768  16.476   0.022  1.00  0.00     0.020 C
BRANCH   6   7
HETATM    7  C7  UNL     1       4.194  17.755   0.645  1.00  0.00     0.122 C
BRANCH   7   8
HETATM    8  N1  UNL     1       3.858  17.488   2.013  1.00  0.00    -0.361 N
HETATM    9  C8  UNL     1       4.391  18.274   3.058  1.00  0.00     0.219 C
HETATM   10  O1  UNL     1       5.164  19.241   2.886  1.00  0.00    -0.274 OA
ATOM     11  H1  UNL     1       3.225  16.720   2.235  1.00  0.00     0.162 HD
BRANCH   9  12
HETATM   12  C9  UNL     1       3.973  17.893   4.446  1.00  0.00     0.122 C
BRANCH  12  13
HETATM   13  C10 UNL     1       5.063  18.196   5.429  1.00  0.00     0.132 C
BRANCH  13  14
HETATM   14  N2  UNL     1       5.567  16.981   6.055  1.00  0.00    -0.359 N
HETATM   15  C11 UNL     1       6.803  16.897   6.725  1.00  0.00     0.248 C
HETATM   16  O2  UNL     1       7.507  17.962   6.797  1.00  0.00    -0.271 OA
ATOM     17  H2  UNL     1       4.990  16.141   6.005  1.00  0.00     0.162 HD
BRANCH  15  18
HETATM   18  C12 UNL     1       7.278  15.660   7.323  1.00  0.00     0.277 C
HETATM   19  C13 UNL     1       8.692  15.666   7.756  1.00  0.00     0.043 C
HETATM   20  C14 UNL     1       9.667  15.435   6.623  1.00  0.00     0.004 C
HETATM   21  C15 UNL     1       9.214  14.220   5.832  1.00  0.00     0.027 C
HETATM   22  C16 UNL     1       7.826  14.483   5.316  1.00  0.00     0.233 C
HETATM   23  N3  UNL     1       6.923  14.520   6.473  1.00  0.00    -0.062 N
ATOM     24  H32 UNL     1       6.917  13.639   6.987  1.00  0.00     0.278 HD
ATOM     25  H31 UNL     1       5.941  14.532   6.198  1.00  0.00     0.278 HD
ENDBRANCH  15  18
ENDBRANCH  13  14
ENDBRANCH  12  13
ENDBRANCH   9  12
ENDBRANCH   7   8
ENDBRANCH   6   7
ENDBRANCH   5   6
ENDBRANCH   4   5
ENDBRANCH   3   4
BRANCH   3  26
HETATM   26  N4  UNL     1       9.151  16.714   0.048  1.00  0.00    -0.429 NA
BRANCH  26  27
HETATM   27  C17 UNL     1       9.801  15.839  -0.490  1.00  0.00     0.153 C
BRANCH  27  28
HETATM   28  C18 UNL     1       8.948  14.833  -1.294  1.00  0.00     0.154 C
BRANCH  28  29
HETATM   29  C19 UNL     1       8.952  15.206  -2.731  1.00  0.00     0.087 A
HETATM   30  N5  UNL     1       8.990  14.316  -3.775  1.00  0.00    -0.354 N
HETATM   31  C20 UNL     1       8.952  14.998  -4.921  1.00  0.00     0.106 A
ATOM     32  H5  UNL     1       9.039  13.301  -3.689  1.00  0.00     0.166 HD
HETATM   33  C21 UNL     1       8.890  16.335  -4.609  1.00  0.00     0.106 A
HETATM   34  N6  UNL     1       8.891  16.423  -3.263  1.00  0.00    -0.354 N
ATOM     35  H6  UNL     1       8.852  17.293  -2.732  1.00  0.00     0.166 HD
ENDBRANCH  28  29
ENDBRANCH  27  28
BRANCH  27  36
HETATM   36  C22 UNL     1      11.235  15.595  -0.499  1.00  0.00     0.280 C
HETATM   37  O3  UNL     1      11.985  16.597  -0.195  1.00  0.00    -0.265 OA
HETATM   38  N7  UNL     1      11.913  14.421  -0.789  1.00  0.00    -0.343 N
HETATM   39  C23 UNL     1      11.277  13.186  -1.114  1.00  0.00     0.146 C
HETATM   40  C29 UNL     1      13.392  14.439  -0.773  1.00  0.00     0.146 C
HETATM   41  C24 UNL     1      12.310  12.060  -1.245  1.00  0.00     0.148 C
HETATM   42  N8  UNL     1      13.385  12.457  -2.110  1.00  0.00    -0.325 N
HETATM   43  C25 UNL     1      14.021  11.546  -2.981  1.00  0.00     0.362 C
HETATM   44  C28 UNL     1      13.826  13.834  -2.091  1.00  0.00     0.148 C
HETATM   45  O4  UNL     1      14.952  11.912  -3.727  1.00  0.00    -0.238 OA
BRANCH  43  46
HETATM   46  O5  UNL     1      13.663  10.205  -3.068  1.00  0.00    -0.304 OA
BRANCH  46  47
HETATM   47  C26 UNL     1      13.716   9.493  -4.261  1.00  0.00     0.176 C
HETATM   48  C27 UNL     1      13.110   8.132  -4.211  1.00  0.00     0.034 C
ENDBRANCH  46  47
ENDBRANCH  43  46
ENDBRANCH  27  36
ENDBRANCH  26  27
ENDBRANCH   3  26
TORSDOF 16
ENDMDL