MODEL 1
REMARK VINA RESULT: -8.158397929      0.000      0.000
REMARK  14 active torsions:
REMARK  status: ('A' for Active; 'I' for Inactive)
REMARK    1  A    between atoms: S1_2  and  C2_3
REMARK    2  A    between atoms: C2_3  and  C3_4
REMARK       I    between atoms: C3_4  and  N1_6
REMARK    3  A    between atoms: N1_6  and  C4_8
REMARK    4  A    between atoms: C4_8  and  C5_9
REMARK    5  A    between atoms: C4_8  and  C24_41
REMARK       I    between atoms: C5_9  and  N2_11
REMARK    6  A    between atoms: C10_17  and  C11_18
REMARK       I    between atoms: C11_18  and  N3_20
REMARK    7  A    between atoms: N3_20  and  C12_22
REMARK    8  A    between atoms: C12_22  and  C13_23
REMARK    9  A    between atoms: C12_22  and  C21_38
REMARK       I    between atoms: C13_23  and  N4_25
REMARK   10  A    between atoms: N4_25  and  C14_27
REMARK   11  A    between atoms: C14_27  and  C15_28
REMARK   12  A    between atoms: C14_27  and  C18_35
REMARK       I    between atoms: C15_28  and  N5_30
REMARK   13  A    between atoms: N5_30  and  C16_32
REMARK   14  A    between atoms: C16_32  and  C17_33
ROOT
HETATM    1  C11 UNL     1       7.603  15.576   2.997  1.00  0.00     0.242 C
HETATM    2  O3  UNL     1       7.271  14.443   3.457  1.00  0.00    -0.271 OA
HETATM    3  N3  UNL     1       7.903  16.588   3.935  1.00  0.00    -0.346 N
ATOM      4  H3  UNL     1       8.184  17.503   3.580  1.00  0.00     0.163 HD
ENDROOT
BRANCH   1   5
HETATM    5  C10 UNL     1       7.625  15.685   1.541  1.00  0.00     0.198 C
HETATM    6  N2  UNL     1       8.912  15.885   0.934  1.00  0.00    -0.326 N
HETATM    7  C5  UNL     1       9.700  14.878   0.332  1.00  0.00     0.244 C
HETATM    8  C6  UNL     1       9.336  17.263   0.991  1.00  0.00     0.201 C
HETATM    9  O2  UNL     1       9.233  13.691   0.315  1.00  0.00    -0.271 OA
HETATM   10  S2  UNL     1       7.741  18.127   0.776  1.00  0.00    -0.137 SA
HETATM   11  C7  UNL     1       6.652  16.667   0.968  1.00  0.00     0.032 C
HETATM   12  C8  UNL     1       5.530  17.079   1.866  1.00  0.00     0.029 C
HETATM   13  C9  UNL     1       6.109  16.227  -0.372  1.00  0.00     0.029 C
BRANCH   7  14
HETATM   14  C4  UNL     1      11.023  15.078  -0.286  1.00  0.00     0.180 C
BRANCH  14  15
HETATM   15  N1  UNL     1      10.971  14.841  -1.724  1.00  0.00    -0.347 N
HETATM   16  C3  UNL     1      10.647  15.863  -2.661  1.00  0.00     0.227 C
HETATM   17  O1  UNL     1      10.387  17.045  -2.272  1.00  0.00    -0.273 OA
ATOM     18  H1  UNL     1      11.176  13.905  -2.073  1.00  0.00     0.163 HD
BRANCH  16  19
HETATM   19  C2  UNL     1      10.599  15.591  -4.109  1.00  0.00     0.176 C
BRANCH  19  20
HETATM   20  S1  UNL     1       8.887  15.366  -4.688  1.00  0.00    -0.164 SA
HETATM   21  C1  UNL     1       8.491  16.714  -5.806  1.00  0.00     0.090 C
ENDBRANCH  19  20
ENDBRANCH  16  19
ENDBRANCH  14  15
BRANCH  14  22
HETATM   22  C24 UNL     1      12.109  14.185   0.328  1.00  0.00     0.009 C
HETATM   23  C25 UNL     1      12.234  12.948  -0.551  1.00  0.00     0.012 C
HETATM   24  C26 UNL     1      13.447  14.887   0.304  1.00  0.00     0.012 C
ENDBRANCH  14  22
ENDBRANCH   7  14
ENDBRANCH   1   5
BRANCH   3  25
HETATM   25  C12 UNL     1       7.834  16.401   5.398  1.00  0.00     0.180 C
BRANCH  25  26
HETATM   26  C13 UNL     1       6.835  17.266   5.998  1.00  0.00     0.241 C
HETATM   27  O4  UNL     1       7.107  18.521   6.063  1.00  0.00    -0.271 OA
HETATM   28  N4  UNL     1       5.613  16.896   6.509  1.00  0.00    -0.346 N
ATOM     29  H4  UNL     1       5.363  15.908   6.468  1.00  0.00     0.163 HD
BRANCH  28  30
HETATM   30  C14 UNL     1       4.639  17.824   7.110  1.00  0.00     0.180 C
BRANCH  30  31
HETATM   31  C15 UNL     1       3.470  17.957   6.241  1.00  0.00     0.241 C
HETATM   32  O5  UNL     1       2.720  18.980   6.484  1.00  0.00    -0.271 OA
HETATM   33  N5  UNL     1       3.066  17.125   5.188  1.00  0.00    -0.353 N
ATOM     34  H5  UNL     1       3.610  16.296   4.948  1.00  0.00     0.162 HD
BRANCH  33  35
HETATM   35  C16 UNL     1       1.843  17.461   4.430  1.00  0.00     0.192 C
BRANCH  35  36
HETATM   36  C17 UNL     1       0.852  16.368   4.485  1.00  0.00     0.250 C
HETATM   37  O6  UNL     1       1.124  15.280   4.027  1.00  0.00    -0.305 OA
ENDBRANCH  35  36
ENDBRANCH  33  35
ENDBRANCH  30  31
BRANCH  30  38
HETATM   38  C18 UNL     1       4.232  17.335   8.475  1.00  0.00     0.009 C
HETATM   39  C19 UNL     1       5.322  17.438   9.514  1.00  0.00     0.012 C
HETATM   40  C20 UNL     1       3.693  15.945   8.460  1.00  0.00     0.012 C
ENDBRANCH  30  38
ENDBRANCH  28  30
ENDBRANCH  25  26
BRANCH  25  41
HETATM   41  C21 UNL     1       9.205  16.359   5.957  1.00  0.00     0.009 C
HETATM   42  C22 UNL     1       9.875  14.998   5.599  1.00  0.00     0.012 C
HETATM   43  C23 UNL     1       9.420  16.661   7.392  1.00  0.00     0.012 C
ENDBRANCH  25  41
ENDBRANCH   3  25
TORSDOF 14
ENDMDL