MODEL 4
REMARK VINA RESULT: -7.811472181      1.036      1.712
REMARK  17 active torsions:
REMARK  status: ('A' for Active; 'I' for Inactive)
REMARK    1  A    between atoms: C2_2  and  N1_3
REMARK    2  A    between atoms: N1_3  and  C3_4
REMARK    3  A    between atoms: N1_3  and  C5_6
REMARK    4  A    between atoms: C5_6  and  C6_7
REMARK    5  A    between atoms: C6_7  and  N2_8
REMARK    6  A    between atoms: N2_8  and  C7_10
REMARK    7  A    between atoms: C8_13  and  N4_14
REMARK    8  A    between atoms: N4_14  and  C9_15
REMARK    9  A    between atoms: N4_14  and  C11_17
REMARK   10  A    between atoms: C11_17  and  C12_18
REMARK   11  A    between atoms: C12_18  and  O1_19
REMARK   12  A    between atoms: C17_30  and  N8_31
REMARK   13  A    between atoms: N8_31  and  C18_32
REMARK       I    between atoms: N9_35  and  C21_36
REMARK       I    between atoms: C21_36  and  N11_40
REMARK   14  A    between atoms: N11_40  and  C22_42
REMARK   15  A    between atoms: C22_42  and  C23_43
REMARK   16  A    between atoms: C23_43  and  C24_44
REMARK   17  A    between atoms: C24_44  and  N12_45
ROOT
HETATM    1  C7  UNL     1       6.034  17.386   5.149  1.00  0.00     0.163 C
HETATM    2  N3  UNL     1       5.595  17.981   6.274  1.00  0.00    -0.173 N
ATOM      3  H3  UNL     1       4.913  18.728   6.141  1.00  0.00     0.186 HD
HETATM    4  C8  UNL     1       5.939  17.721   7.561  1.00  0.00     0.683 C
HETATM    5  N5  UNL     1       7.230  17.553   7.980  1.00  0.00    -0.174 N
ATOM      6  H5  UNL     1       7.482  17.940   8.890  1.00  0.00     0.186 HD
HETATM    7  C14 UNL     1       8.214  16.904   7.275  1.00  0.00     0.152 A
HETATM    8  N6  UNL     1       9.344  16.454   7.838  1.00  0.00    -0.336 N
ATOM      9  H6  UNL     1       9.593  16.541   8.823  1.00  0.00     0.168 HD
HETATM   10  C15 UNL     1      10.086  15.874   6.896  1.00  0.00     0.182 A
HETATM   11  N7  UNL     1       9.452  15.940   5.718  1.00  0.00    -0.346 N
ATOM     12  H7  UNL     1       9.786  15.577   4.826  1.00  0.00     0.167 HD
HETATM   13  C16 UNL     1       8.277  16.584   5.942  1.00  0.00     0.122 A
HETATM   14  C17 UNL     1       7.347  16.842   4.946  1.00  0.00     0.175 C
ENDROOT
BRANCH  14  15
HETATM   15  N8  UNL     1       7.577  16.618   3.794  1.00  0.00    -0.436 NA
BRANCH  15  16
HETATM   16  C18 UNL     1       8.267  16.471   2.641  1.00  0.00     0.167 C
HETATM   17  C19 UNL     1       9.483  17.436   2.610  1.00  0.00     0.060 C
HETATM   18  C20 UNL     1       9.924  17.474   1.159  1.00  0.00     0.144 C
HETATM   19  N9  UNL     1      10.475  16.155   0.889  1.00  0.00    -0.218 N
HETATM   20  C21 UNL     1      11.265  15.936  -0.273  1.00  0.00     0.669 C
HETATM   21  C28 UNL     1      10.204  15.102   1.836  1.00  0.00     0.144 C
HETATM   22  N10 UNL     1      12.525  16.182  -0.206  1.00  0.00    -0.235 N
HETATM   23  N11 UNL     1      10.714  15.457  -1.497  1.00  0.00    -0.227 N
ATOM     24 2H10 UNL     1      12.918  16.524   0.671  1.00  0.00     0.174 HD
ATOM     25 1H10 UNL     1      13.092  16.025  -1.040  1.00  0.00     0.174 HD
ATOM     26  H11 UNL     1      11.287  15.510  -2.340  1.00  0.00     0.177 HD
HETATM   27  C29 UNL     1       8.780  15.089   2.304  1.00  0.00     0.060 C
BRANCH  23  28
HETATM   28  C22 UNL     1       9.394  14.906  -1.604  1.00  0.00     0.139 C
BRANCH  28  29
HETATM   29  C23 UNL     1       8.447  15.742  -2.405  1.00  0.00     0.048 C
BRANCH  29  30
HETATM   30  C24 UNL     1       9.235  16.601  -3.360  1.00  0.00     0.238 C
BRANCH  30  31
HETATM   31  N12 UNL     1       9.267  16.098  -4.707  1.00  0.00    -0.068 N
HETATM   32  C25 UNL     1      10.571  15.624  -5.159  1.00  0.00     0.272 C
HETATM   33  C26 UNL     1       8.490  16.877  -5.650  1.00  0.00     0.265 A
HETATM   34  C27 UNL     1       8.102  15.484  -5.276  1.00  0.00     0.265 A
ENDBRANCH  30  31
ENDBRANCH  29  30
ENDBRANCH  28  29
ENDBRANCH  23  28
ENDBRANCH  15  16
ENDBRANCH  14  15
BRANCH   1  35
HETATM   35  N2  UNL     1       5.260  17.286   4.203  1.00  0.00    -0.351 N
ATOM     36  H2  UNL     1       5.781  16.821   3.459  1.00  0.00     0.166 HD
BRANCH  35  37
HETATM   37  C6  UNL     1       4.007  17.520   3.698  1.00  0.00     0.082 C
BRANCH  37  38
HETATM   38  C5  UNL     1       3.817  17.716   2.223  1.00  0.00     0.161 C
BRANCH  38  39
HETATM   39  N1  UNL     1       5.108  17.758   1.580  1.00  0.00    -0.409 N
BRANCH  39  40
HETATM   40  C2  UNL     1       5.249  16.864   0.487  1.00  0.00     0.112 C
HETATM   41  C1  UNL     1       4.042  16.919  -0.402  1.00  0.00     0.026 C
ENDBRANCH  39  40
BRANCH  39  42
HETATM   42  C3  UNL     1       5.633  19.071   1.405  1.00  0.00     0.112 C
HETATM   43  C4  UNL     1       6.795  19.109   0.411  1.00  0.00     0.026 C
ENDBRANCH  39  42
ENDBRANCH  38  39
ENDBRANCH  37  38
ENDBRANCH  35  37
ENDBRANCH   1  35
BRANCH   4  44
HETATM   44  N4  UNL     1       4.923  17.604   8.536  1.00  0.00    -0.216 N
BRANCH  44  45
HETATM   45  C9  UNL     1       3.573  17.329   8.095  1.00  0.00     0.137 C
HETATM   46  C10 UNL     1       2.561  18.324   8.615  1.00  0.00     0.027 C
ENDBRANCH  44  45
BRANCH  44  47
HETATM   47  C11 UNL     1       5.172  17.746   9.950  1.00  0.00     0.167 C
BRANCH  47  48
HETATM   48  C12 UNL     1       5.081  16.412  10.646  1.00  0.00     0.187 C
BRANCH  48  49
HETATM   49  O1  UNL     1       4.047  16.282  11.537  1.00  0.00    -0.394 OA
HETATM   50  C13 UNL     1       3.246  15.202  11.220  1.00  0.00     0.201 C
ENDBRANCH  48  49
ENDBRANCH  47  48
ENDBRANCH  44  47
ENDBRANCH   4  44
TORSDOF 17
ENDMDL