MODEL 5
REMARK VINA RESULT: -9.008550275      2.005      9.051
REMARK  16 active torsions:
REMARK  status: ('A' for Active; 'I' for Inactive)
REMARK    1  A    between atoms: N3_4  and  C2_6
REMARK    2  A    between atoms: C2_6  and  C3_7
REMARK    3  A    between atoms: C3_7  and  C4_8
REMARK    4  A    between atoms: C4_8  and  C5_9
REMARK    5  A    between atoms: C5_9  and  C6_10
REMARK    6  A    between atoms: C5_9  and  N5_25
REMARK    7  A    between atoms: C6_10  and  C7_11
REMARK    8  A    between atoms: C7_11  and  C8_12
REMARK    9  A    between atoms: C8_12  and  O2_14
REMARK   10  A    between atoms: O2_14  and  C9_15
REMARK   11  A    between atoms: C9_15  and  C10_16
REMARK   12  A    between atoms: C10_16  and  C11_17
REMARK   13  A    between atoms: C11_17  and  C12_18
REMARK   14  A    between atoms: C12_18  and  N4_19
REMARK       I    between atoms: N5_25  and  C17_27
REMARK   15  A    between atoms: C17_27  and  C18_29
REMARK   16  A    between atoms: C26_38  and  O6_39
ROOT
HETATM    1  C5  UNL     1       9.931  15.843   0.046  1.00  0.00     0.085 C
ENDROOT
BRANCH   1   2
HETATM    2  C4  UNL     1       8.878  16.142  -0.927  1.00  0.00     0.027 C
BRANCH   2   3
HETATM    3  C3  UNL     1       7.541  15.459  -0.584  1.00  0.00     0.022 C
BRANCH   3   4
HETATM    4  C2  UNL     1       6.375  16.376  -0.690  1.00  0.00     0.122 C
BRANCH   4   5
HETATM    5  N3  UNL     1       5.460  16.349   0.390  1.00  0.00    -0.367 N
HETATM    6  C1  UNL     1       4.305  16.856   0.361  1.00  0.00     0.196 C
HETATM    7  N1  UNL     1       3.696  17.535  -0.710  1.00  0.00    -0.067 NA
HETATM    8  N2  UNL     1       3.524  16.724   1.559  1.00  0.00    -0.067 NA
ATOM      9  H3  UNL     1       5.755  15.887   1.251  1.00  0.00     0.161 HD
ENDBRANCH   4   5
ENDBRANCH   3   4
ENDBRANCH   2   3
ENDBRANCH   1   2
BRANCH   1  10
HETATM   10  C6  UNL     1      10.676  14.588  -0.178  1.00  0.00     0.035 C
BRANCH  10  11
HETATM   11  C7  UNL     1      12.006  14.449   0.431  1.00  0.00     0.113 C
BRANCH  11  12
HETATM   12  C8  UNL     1      13.042  13.641  -0.187  1.00  0.00     0.258 C
HETATM   13  O1  UNL     1      13.277  12.457   0.190  1.00  0.00    -0.265 OA
BRANCH  12  14
HETATM   14  O2  UNL     1      13.792  14.190  -1.223  1.00  0.00    -0.321 OA
BRANCH  14  15
HETATM   15  C9  UNL     1      13.883  13.519  -2.462  1.00  0.00     0.178 C
BRANCH  15  16
HETATM   16  C10 UNL     1      12.528  13.472  -3.159  1.00  0.00     0.028 C
BRANCH  16  17
HETATM   17  C11 UNL     1      12.443  14.669  -4.108  1.00  0.00     0.032 C
BRANCH  17  18
HETATM   18  C12 UNL     1      11.176  15.409  -3.849  1.00  0.00     0.272 C
BRANCH  18  19
HETATM   19  N4  UNL     1      10.034  14.911  -4.554  1.00  0.00     0.092 N
HETATM   20  C13 UNL     1      10.256  14.628  -5.938  1.00  0.00     0.298 C
HETATM   21  C14 UNL     1      10.360  15.893  -6.755  1.00  0.00     0.198 C
HETATM   22  O3  UNL     1       9.101  16.488  -6.805  1.00  0.00    -0.388 OA
HETATM   23  C15 UNL     1       8.256  16.094  -5.788  1.00  0.00     0.198 C
HETATM   24  C16 UNL     1       8.959  15.886  -4.474  1.00  0.00     0.298 C
ENDBRANCH  18  19
ENDBRANCH  17  18
ENDBRANCH  16  17
ENDBRANCH  15  16
ENDBRANCH  14  15
ENDBRANCH  12  14
ENDBRANCH  11  12
ENDBRANCH  10  11
ENDBRANCH   1  10
BRANCH   1  25
HETATM   25  N5  UNL     1       9.418  15.899   1.431  1.00  0.00    -0.350 N
HETATM   26  C17 UNL     1       9.448  17.051   2.234  1.00  0.00     0.279 C
HETATM   27  O4  UNL     1       9.963  18.101   1.735  1.00  0.00    -0.265 OA
ATOM     28  H5  UNL     1       9.018  15.049   1.829  1.00  0.00     0.163 HD
BRANCH  26  29
HETATM   29  C18 UNL     1       8.932  17.160   3.626  1.00  0.00     0.184 C
HETATM   30  O5  UNL     1       9.492  16.276   4.422  1.00  0.00    -0.343 OA
HETATM   31  C19 UNL     1       9.128  15.017   4.651  1.00  0.00     0.179 C
HETATM   32  C20 UNL     1       9.282  14.494   6.080  1.00  0.00     0.053 C
HETATM   33  C21 UNL     1      10.000  15.383   7.008  1.00  0.00    -0.029 C
HETATM   34  C22 UNL     1       9.428  15.945   8.215  1.00  0.00    -0.031 C
HETATM   35  C23 UNL     1       8.119  15.544   8.791  1.00  0.00     0.027 C
HETATM   36  C24 UNL     1       7.269  16.659   9.350  1.00  0.00     0.012 C
HETATM   37  C25 UNL     1       6.236  17.254   8.446  1.00  0.00     0.084 C
HETATM   38  C26 UNL     1       6.442  16.930   7.008  1.00  0.00     0.111 C
HETATM   39  N6  UNL     1       7.013  17.538   5.943  1.00  0.00    -0.367 N
HETATM   40  C27 UNL     1       6.724  18.169   4.683  1.00  0.00     0.207 C
ATOM     41  H6  UNL     1       8.023  17.556   6.087  1.00  0.00     0.161 HD
HETATM   42  C28 UNL     1       7.517  17.494   3.589  1.00  0.00     0.205 C
HETATM   43  O7  UNL     1       6.903  17.211   2.593  1.00  0.00    -0.288 OA
BRANCH  38  44
HETATM   44  O6  UNL     1       5.911  15.749   6.834  1.00  0.00    -0.350 OA
ATOM     45  H6  UNL     1       5.960  15.581   5.900  1.00  0.00     0.219 HD
ENDBRANCH  38  44
ENDBRANCH  26  29
ENDBRANCH   1  25
TORSDOF 16
ENDMDL