MODEL 1
REMARK VINA RESULT: -8.405979149      0.000      0.000
REMARK  15 active torsions:
REMARK  status: ('A' for Active; 'I' for Inactive)
REMARK    1  A    between atoms: C2_2  and  C3_3
REMARK    2  A    between atoms: C3_3  and  S1_4
REMARK    3  A    between atoms: S1_4  and  C4_5
REMARK    4  A    between atoms: C4_5  and  C5_6
REMARK    5  A    between atoms: C5_6  and  C6_7
REMARK    6  A    between atoms: C6_7  and  C7_8
REMARK    7  A    between atoms: C7_8  and  C8_9
REMARK    8  A    between atoms: C8_9  and  C9_10
REMARK       I    between atoms: C9_10  and  N1_12
REMARK    9  A    between atoms: C13_16  and  C14_17
REMARK       I    between atoms: C14_17  and  N2_19
REMARK   10  A    between atoms: C21_26  and  C22_27
REMARK       I    between atoms: N4_30  and  C23_32
REMARK   11  A    between atoms: C23_32  and  C24_34
REMARK   12  A    between atoms: C24_34  and  N5_35
REMARK   13  A    between atoms: C24_34  and  C25_39
REMARK   14  A    between atoms: C25_39  and  C26_40
REMARK   15  A    between atoms: C26_40  and  N6_41
ROOT
HETATM    1  C6  UNL     1       9.424  15.415   0.202  1.00  0.00    -0.009 C
HETATM    2  N4  UNL     1       8.573  16.231   0.775  1.00  0.00    -0.333 N
ATOM      3  H4  UNL     1       7.678  16.371   0.305  1.00  0.00     0.168 HD
HETATM    4  C23 UNL     1       8.775  16.926   1.964  1.00  0.00     0.252 C
HETATM    5  O4  UNL     1       9.655  17.806   2.050  1.00  0.00    -0.271 OA
ENDROOT
BRANCH   1   6
HETATM    6  C5  UNL     1      10.726  15.151   0.798  1.00  0.00     0.062 C
BRANCH   6   7
HETATM    7  C4  UNL     1      11.927  15.659   0.087  1.00  0.00     0.079 C
BRANCH   7   8
HETATM    8  S1  UNL     1      13.353  14.588   0.073  1.00  0.00    -0.169 SA
BRANCH   8   9
HETATM    9  C3  UNL     1      13.839  14.060  -1.570  1.00  0.00     0.073 C
BRANCH   9  10
HETATM   10  C2  UNL     1      13.148  12.808  -2.025  1.00  0.00     0.006 C
HETATM   11  C1  UNL     1      12.369  12.228  -0.884  1.00  0.00     0.006 C
ENDBRANCH   9  10
ENDBRANCH   8   9
ENDBRANCH   7   8
ENDBRANCH   6   7
ENDBRANCH   1   6
BRANCH   1  12
HETATM   12  C7  UNL     1       8.961  14.825  -1.075  1.00  0.00     0.062 C
BRANCH  12  13
HETATM   13  C8  UNL     1       8.740  15.898  -2.139  1.00  0.00     0.108 C
BRANCH  13  14
HETATM   14  C9  UNL     1       9.619  15.607  -3.293  1.00  0.00     0.220 C
HETATM   15  O1  UNL     1      10.834  15.306  -3.030  1.00  0.00    -0.273 OA
HETATM   16  N1  UNL     1       9.227  15.637  -4.647  1.00  0.00    -0.339 N
HETATM   17  C10 UNL     1       7.918  15.933  -5.162  1.00  0.00     0.127 C
HETATM   18  C13 UNL     1      10.071  15.381  -5.794  1.00  0.00     0.179 C
HETATM   19  C11 UNL     1       8.257  16.903  -6.275  1.00  0.00     0.022 C
HETATM   20  C12 UNL     1       9.442  16.217  -6.925  1.00  0.00     0.037 C
BRANCH  18  21
HETATM   21  C14 UNL     1      10.077  13.951  -6.142  1.00  0.00     0.247 C
HETATM   22  O2  UNL     1       9.027  13.283  -5.866  1.00  0.00    -0.271 OA
HETATM   23  N2  UNL     1      11.175  13.280  -6.758  1.00  0.00    -0.313 N
HETATM   24  C15 UNL     1      11.069  11.897  -7.068  1.00  0.00     0.091 C
HETATM   25  C21 UNL     1      12.406  13.943  -7.067  1.00  0.00     0.182 C
HETATM   26  C16 UNL     1      11.800  11.367  -8.025  1.00  0.00    -0.001 C
HETATM   27  C17 UNL     1      12.751  12.147  -8.822  1.00  0.00    -0.026 C
HETATM   28  C18 UNL     1      13.981  11.276  -9.093  1.00  0.00     0.019 C
HETATM   29  C19 UNL     1      12.100  12.370 -10.192  1.00  0.00     0.019 C
HETATM   30  C20 UNL     1      13.118  13.481  -8.282  1.00  0.00     0.047 C
BRANCH  25  31
HETATM   31  C22 UNL     1      13.353  13.891  -5.884  1.00  0.00     0.254 C
HETATM   32  N3  UNL     1      13.584  15.065  -5.113  1.00  0.00    -0.060 NA
HETATM   33  O3  UNL     1      13.915  12.827  -5.607  1.00  0.00    -0.275 OA
ENDBRANCH  25  31
ENDBRANCH  18  21
ENDBRANCH  13  14
ENDBRANCH  12  13
ENDBRANCH   1  12
BRANCH   4  34
HETATM   34  C24 UNL     1       7.940  16.625   3.149  1.00  0.00     0.276 C
BRANCH  34  35
HETATM   35  N5  UNL     1       7.700  17.803   3.962  1.00  0.00    -0.066 N
ATOM     36  H53 UNL     1       8.482  18.456   3.906  1.00  0.00     0.275 HD
ATOM     37  H52 UNL     1       6.971  18.390   3.556  1.00  0.00     0.275 HD
ATOM     38  H51 UNL     1       7.487  17.565   4.930  1.00  0.00     0.275 HD
ENDBRANCH  34  35
BRANCH  34  39
HETATM   39  C25 UNL     1       8.486  15.468   3.936  1.00  0.00     0.062 C
BRANCH  39  40
HETATM   40  C26 UNL     1       9.594  15.853   4.863  1.00  0.00     0.124 C
BRANCH  40  41
HETATM   41  N6  UNL     1       9.291  15.402   6.190  1.00  0.00    -0.367 N
HETATM   42  C27 UNL     1       8.918  16.148   7.170  1.00  0.00     0.196 C
HETATM   43  N7  UNL     1       8.667  15.483   8.408  1.00  0.00    -0.067 NA
HETATM   44  N8  UNL     1       8.749  17.534   7.086  1.00  0.00    -0.067 NA
ATOM     45  H6  UNL     1       9.379  14.402   6.373  1.00  0.00     0.161 HD
ENDBRANCH  40  41
ENDBRANCH  39  40
ENDBRANCH  34  39
ENDBRANCH   4  34
TORSDOF 15
ENDMDL