MODEL 2
REMARK VINA RESULT: -8.426582290      1.500      1.768
REMARK  16 active torsions:
REMARK  status: ('A' for Active; 'I' for Inactive)
REMARK    1  A    between atoms: C2_2  and  N1_3
REMARK       I    between atoms: N1_3  and  C3_5
REMARK       I    between atoms: C3_5  and  N2_7
REMARK    2  A    between atoms: N2_7  and  C4_9
REMARK    3  A    between atoms: C4_9  and  C5_10
REMARK    4  A    between atoms: C5_10  and  C6_11
REMARK    5  A    between atoms: C6_11  and  C7_12
REMARK    6  A    between atoms: C7_12  and  S1_13
REMARK    7  A    between atoms: S1_13  and  C8_14
REMARK    8  A    between atoms: C9_15  and  C10_16
REMARK    9  A    between atoms: C10_16  and  N3_17
REMARK   10  A    between atoms: N3_17  and  C13_20
REMARK   11  A    between atoms: C13_20  and  C14_21
REMARK   12  A    between atoms: C14_21  and  C15_22
REMARK   13  A    between atoms: C15_22  and  N4_23
REMARK   14  A    between atoms: N4_23  and  S2_25
REMARK   15  A    between atoms: S2_25  and  C17_28
REMARK   16  A    between atoms: C22_33  and  O3_34
ROOT
HETATM    1  C8  UNL     1       8.147  16.565   2.017  1.00  0.00     0.093 A
HETATM    2  C9  UNL     1       8.718  17.267   0.932  1.00  0.00     0.062 A
HETATM    3  N5  UNL     1       7.994  18.228   0.340  1.00  0.00    -0.309 N
ATOM      4  H5  UNL     1       8.395  18.741  -0.444  1.00  0.00     0.170 HD
HETATM    5  C23 UNL     1       6.740  18.534   0.759  1.00  0.00     0.329 A
HETATM    6  O4  UNL     1       6.088  19.447   0.176  1.00  0.00    -0.246 OA
HETATM    7  N6  UNL     1       6.212  17.864   1.786  1.00  0.00    -0.270 N
HETATM    8  C24 UNL     1       4.863  18.217   2.210  1.00  0.00     0.164 C
HETATM    9  C25 UNL     1       6.885  16.888   2.424  1.00  0.00     0.270 A
HETATM   10  O5  UNL     1       6.298  16.326   3.370  1.00  0.00    -0.266 OA
ENDROOT
BRANCH   2  11
HETATM   11  C10 UNL     1      10.069  16.898   0.521  1.00  0.00     0.295 C
BRANCH  11  12
HETATM   12  N3  UNL     1      10.224  16.049  -0.616  1.00  0.00    -0.069 N
HETATM   13  C11 UNL     1      10.439  17.020  -1.747  1.00  0.00     0.272 C
HETATM   14  C12 UNL     1       9.031  15.357  -0.974  1.00  0.00     0.272 C
BRANCH  12  15
HETATM   15  C13 UNL     1      11.434  15.310  -0.542  1.00  0.00     0.238 C
BRANCH  15  16
HETATM   16  C14 UNL     1      11.402  13.894  -1.005  1.00  0.00     0.048 C
BRANCH  16  17
HETATM   17  C15 UNL     1      12.167  13.744  -2.337  1.00  0.00     0.131 C
BRANCH  17  18
HETATM   18  N4  UNL     1      11.209  13.414  -3.373  1.00  0.00    -0.348 N
ATOM     19  H4  UNL     1      10.403  12.808  -3.219  1.00  0.00     0.169 HD
BRANCH  18  20
HETATM   20  S2  UNL     1      11.561  14.135  -4.866  1.00  0.00     0.047 S
HETATM   21  C16 UNL     1      13.092  14.986  -4.924  1.00  0.00     0.142 C
HETATM   22  O2  UNL     1      11.584  13.087  -6.000  1.00  0.00    -0.245 OA
BRANCH  20  23
HETATM   23  C17 UNL     1      10.360  14.972  -5.485  1.00  0.00     0.044 C
HETATM   24  C18 UNL     1      10.639  15.968  -6.463  1.00  0.00     0.052 C
HETATM   25  C19 UNL     1       9.301  16.432  -7.029  1.00  0.00     0.006 C
HETATM   26  C20 UNL     1       8.393  16.777  -5.896  1.00  0.00     0.007 C
HETATM   27  C21 UNL     1       7.964  15.626  -5.041  1.00  0.00     0.065 C
HETATM   28  C22 UNL     1       9.040  14.605  -5.047  1.00  0.00     0.059 C
BRANCH  28  29
HETATM   29  O3  UNL     1       8.827  13.377  -4.671  1.00  0.00    -0.364 OA
ATOM     30  H3  UNL     1       8.168  13.213  -4.006  1.00  0.00     0.217 HD
ENDBRANCH  28  29
ENDBRANCH  20  23
ENDBRANCH  18  20
ENDBRANCH  17  18
ENDBRANCH  16  17
ENDBRANCH  15  16
ENDBRANCH  12  15
ENDBRANCH  11  12
ENDBRANCH   2  11
BRANCH   1  31
HETATM   31  S1  UNL     1       9.095  15.297   2.794  1.00  0.00    -0.122 SA
BRANCH  31  32
HETATM   32  C7  UNL     1       9.578  15.657   4.480  1.00  0.00     0.080 C
BRANCH  32  33
HETATM   33  C6  UNL     1       8.955  14.794   5.525  1.00  0.00     0.012 C
BRANCH  33  34
HETATM   34  C5  UNL     1       9.480  15.040   6.913  1.00  0.00     0.020 C
BRANCH  34  35
HETATM   35  C4  UNL     1       8.411  15.700   7.766  1.00  0.00     0.124 C
BRANCH  35  36
HETATM   36  N2  UNL     1       7.143  15.752   7.053  1.00  0.00    -0.343 N
HETATM   37  C3  UNL     1       6.540  17.017   6.815  1.00  0.00     0.316 C
HETATM   38  N1  UNL     1       5.305  17.124   6.128  1.00  0.00    -0.344 N
HETATM   39  O1  UNL     1       7.087  18.081   7.209  1.00  0.00    -0.247 OA
ATOM     40  H1  UNL     1       4.850  16.272   5.803  1.00  0.00     0.164 HD
ATOM     41  H2  UNL     1       6.694  14.895   6.730  1.00  0.00     0.164 HD
BRANCH  38  42
HETATM   42  C2  UNL     1       4.669  18.390   5.871  1.00  0.00     0.120 C
HETATM   43  C1  UNL     1       3.178  18.209   5.620  1.00  0.00     0.026 C
ENDBRANCH  38  42
ENDBRANCH  35  36
ENDBRANCH  34  35
ENDBRANCH  33  34
ENDBRANCH  32  33
ENDBRANCH  31  32
ENDBRANCH   1  31
TORSDOF 16
ENDMDL