MODEL 5
REMARK VINA RESULT: -7.945728521      2.370      4.210
REMARK  17 active torsions:
REMARK  status: ('A' for Active; 'I' for Inactive)
REMARK    1  A    between atoms: C2_2  and  C3_3
REMARK    2  A    between atoms: C3_3  and  C4_4
REMARK    3  A    between atoms: C4_4  and  C5_5
REMARK    4  A    between atoms: C5_5  and  C6_6
REMARK    5  A    between atoms: C6_6  and  O1_7
REMARK    6  A    between atoms: O1_7  and  C7_8
REMARK       I    between atoms: C7_8  and  N1_10
REMARK       I    between atoms: N2_13  and  C10_14
REMARK    7  A    between atoms: C10_14  and  C11_16
REMARK    8  A    between atoms: C11_16  and  C12_17
REMARK    9  A    between atoms: C11_16  and  N3_24
REMARK   10  A    between atoms: C12_17  and  C13_18
REMARK   11  A    between atoms: C13_18  and  C14_20
REMARK       I    between atoms: N3_24  and  C18_26
REMARK   12  A    between atoms: C18_26  and  C19_28
REMARK   13  A    between atoms: C19_28  and  N4_29
REMARK       I    between atoms: N4_29  and  C20_31
REMARK   14  A    between atoms: C20_31  and  C21_33
REMARK   15  A    between atoms: C21_33  and  N5_35
REMARK       I    between atoms: N5_35  and  C23_37
REMARK   16  A    between atoms: C23_37  and  C24_39
REMARK   17  A    between atoms: C24_39  and  N6_41
ROOT
HETATM    1  C11 UNL     1       8.019  16.362   1.647  1.00  0.00     0.183 C
ENDROOT
BRANCH   1   2
HETATM    2  C10 UNL     1       6.631  16.323   1.241  1.00  0.00     0.243 C
HETATM    3  N2  UNL     1       5.641  17.100   1.846  1.00  0.00    -0.347 N
HETATM    4  C9  UNL     1       4.253  16.939   1.446  1.00  0.00     0.146 C
HETATM    5  C27 UNL     1       5.921  18.113   2.820  1.00  0.00     0.146 C
HETATM    6  C8  UNL     1       3.289  17.783   2.207  1.00  0.00     0.148 C
HETATM    7  N1  UNL     1       3.634  18.061   3.565  1.00  0.00    -0.325 N
HETATM    8  C7  UNL     1       2.578  18.442   4.473  1.00  0.00     0.362 C
HETATM    9  C28 UNL     1       4.984  17.969   4.026  1.00  0.00     0.148 C
HETATM   10  O2  UNL     1       1.381  18.500   4.062  1.00  0.00    -0.238 OA
HETATM   11  O3  UNL     1       6.210  15.571   0.293  1.00  0.00    -0.271 OA
BRANCH   8  12
HETATM   12  O1  UNL     1       2.818  18.751   5.792  1.00  0.00    -0.304 OA
BRANCH  12  13
HETATM   13  C6  UNL     1       2.724  17.851   6.866  1.00  0.00     0.180 C
BRANCH  13  14
HETATM   14  C5  UNL     1       4.028  17.727   7.637  1.00  0.00     0.027 C
BRANCH  14  15
HETATM   15  C4  UNL     1       4.241  16.275   7.967  1.00  0.00     0.002 C
BRANCH  15  16
HETATM   16  C3  UNL     1       5.685  15.853   7.913  1.00  0.00    -0.000 C
BRANCH  16  17
HETATM   17  C2  UNL     1       6.509  16.633   8.892  1.00  0.00    -0.005 C
HETATM   18  C1  UNL     1       7.910  16.028   9.004  1.00  0.00     0.005 C
ENDBRANCH  16  17
ENDBRANCH  15  16
ENDBRANCH  14  15
ENDBRANCH  13  14
ENDBRANCH  12  13
ENDBRANCH   8  12
ENDBRANCH   1   2
BRANCH   1  19
HETATM   19  C12 UNL     1       8.529  15.218   2.494  1.00  0.00     0.114 C
BRANCH  19  20
HETATM   20  C13 UNL     1       9.315  15.673   3.654  1.00  0.00     0.136 C
HETATM   21  O4  UNL     1      10.401  16.170   3.486  1.00  0.00    -0.297 OA
BRANCH  20  22
HETATM   22  C14 UNL     1       8.835  15.568   5.068  1.00  0.00     0.009 C
HETATM   23  C15 UNL     1       8.199  16.885   5.505  1.00  0.00     0.022 C
HETATM   24  C16 UNL     1       7.788  14.480   5.172  1.00  0.00     0.022 C
HETATM   25  C17 UNL     1      10.006  15.303   5.974  1.00  0.00     0.022 C
ENDBRANCH  20  22
ENDBRANCH  19  20
ENDBRANCH   1  19
BRANCH   1  26
HETATM   26  N3  UNL     1       8.873  16.363   0.416  1.00  0.00    -0.346 N
HETATM   27  C18 UNL     1       9.835  17.374   0.209  1.00  0.00     0.236 C
HETATM   28  O5  UNL     1       9.934  18.279   1.075  1.00  0.00    -0.272 OA
ATOM     29  H3  UNL     1       8.758  15.626  -0.280  1.00  0.00     0.163 HD
BRANCH  27  30
HETATM   30  C19 UNL     1      10.750  17.463  -0.943  1.00  0.00     0.225 C
BRANCH  30  31
HETATM   31  N4  UNL     1      11.044  16.213  -1.574  1.00  0.00    -0.351 N
HETATM   32  C20 UNL     1      10.399  15.830  -2.770  1.00  0.00     0.240 C
HETATM   33  O6  UNL     1       9.555  16.605  -3.271  1.00  0.00    -0.271 OA
ATOM     34  H4  UNL     1      11.731  15.589  -1.153  1.00  0.00     0.163 HD
BRANCH  32  35
HETATM   35  C21 UNL     1      10.669  14.554  -3.469  1.00  0.00     0.172 C
HETATM   36  C22 UNL     1      11.931  13.915  -2.879  1.00  0.00     0.042 C
BRANCH  35  37
HETATM   37  N5  UNL     1      10.836  14.762  -4.881  1.00  0.00    -0.346 N
HETATM   38  C23 UNL     1       9.950  14.237  -5.857  1.00  0.00     0.240 C
HETATM   39  O7  UNL     1       8.937  13.534  -5.549  1.00  0.00    -0.271 OA
ATOM     40  H5  UNL     1      11.632  15.315  -5.197  1.00  0.00     0.163 HD
BRANCH  38  41
HETATM   41  C24 UNL     1      10.156  14.477  -7.315  1.00  0.00     0.165 C
HETATM   42  C25 UNL     1       9.313  15.709  -7.658  1.00  0.00     0.042 C
BRANCH  41  43
HETATM   43  N6  UNL     1      11.517  14.763  -7.569  1.00  0.00    -0.414 N
HETATM   44  C26 UNL     1      12.379  13.702  -7.940  1.00  0.00     0.140 C
ATOM     45  H6  UNL     1      11.871  15.715  -7.486  1.00  0.00     0.153 HD
ENDBRANCH  41  43
ENDBRANCH  38  41
ENDBRANCH  35  37
ENDBRANCH  32  35
ENDBRANCH  30  31
ENDBRANCH  27  30
ENDBRANCH   1  26
TORSDOF 17
ENDMDL