MODEL 2
REMARK VINA RESULT: -8.046870402      1.893      2.296
REMARK  15 active torsions:
REMARK  status: ('A' for Active; 'I' for Inactive)
REMARK    1  A    between atoms: O1_2  and  C2_3
REMARK    2  A    between atoms: C2_3  and  C4_5
REMARK    3  A    between atoms: C2_3  and  C5_7
REMARK       I    between atoms: C5_7  and  N1_9
REMARK    4  A    between atoms: N1_9  and  C6_11
REMARK    5  A    between atoms: C6_11  and  C7_12
REMARK    6  A    between atoms: C10_15  and  C11_16
REMARK    7  A    between atoms: C11_16  and  N2_18
REMARK    8  A    between atoms: N2_18  and  C12_20
REMARK    9  A    between atoms: C12_20  and  C13_21
REMARK   10  A    between atoms: C13_21  and  C14_22
REMARK   11  A    between atoms: C14_22  and  O3_23
REMARK   12  A    between atoms: O3_23  and  C15_24
REMARK       I    between atoms: N3_26  and  C17_27
REMARK       I    between atoms: C17_27  and  N4_29
REMARK   13  A    between atoms: N4_29  and  C18_31
REMARK   14  A    between atoms: C18_31  and  C19_32
REMARK   15  A    between atoms: C19_32  and  N5_33
ROOT
HETATM    1  N2  UNL     1       9.999  17.437  -1.070  1.00  0.00    -0.384 N
ATOM      2  H2  UNL     1      10.105  18.414  -1.345  1.00  0.00     0.160 HD
ENDROOT
BRANCH   1   3
HETATM    3  C11 UNL     1       9.401  17.143   0.143  1.00  0.00     0.077 C
HETATM    4  S2  UNL     1       7.826  17.604   0.345  1.00  0.00    -0.065 SA
BRANCH   3   5
HETATM    5  C10 UNL     1      10.112  16.449   1.242  1.00  0.00     0.047 C
HETATM    6  C9  UNL     1       9.787  14.955   1.194  1.00  0.00     0.012 C
HETATM    7  C8  UNL     1       8.600  14.586   2.018  1.00  0.00     0.007 C
HETATM    8  C7  UNL     1       8.730  15.013   3.461  1.00  0.00     0.003 C
HETATM    9  C26 UNL     1       9.798  16.062   3.639  1.00  0.00     0.007 C
HETATM   10  C25 UNL     1       9.687  17.083   2.544  1.00  0.00     0.012 C
BRANCH   8  11
HETATM   11  C6  UNL     1       7.413  15.588   3.907  1.00  0.00     0.127 C
BRANCH  11  12
HETATM   12  N1  UNL     1       7.477  16.105   5.249  1.00  0.00    -0.358 N
HETATM   13  C5  UNL     1       7.293  15.311   6.404  1.00  0.00     0.253 C
HETATM   14  O2  UNL     1       7.062  14.101   6.352  1.00  0.00    -0.270 OA
ATOM     15  H1  UNL     1       7.667  17.100   5.374  1.00  0.00     0.162 HD
BRANCH  13  16
HETATM   16  C2  UNL     1       7.386  15.980   7.742  1.00  0.00     0.146 C
HETATM   17  C3  UNL     1       7.830  17.430   7.370  1.00  0.00     0.057 C
BRANCH  16  18
HETATM   18  O1  UNL     1       8.330  15.501   8.540  1.00  0.00    -0.375 OA
HETATM   19  C1  UNL     1       9.645  15.551   8.358  1.00  0.00     0.203 C
ENDBRANCH  16  18
BRANCH  16  20
HETATM   20  C4  UNL     1       6.041  16.136   8.359  1.00  0.00     0.133 C
HETATM   21  S1  UNL     1       4.994  17.396   7.626  1.00  0.00    -0.094 SA
ENDBRANCH  16  20
ENDBRANCH  13  16
ENDBRANCH  11  12
ENDBRANCH   8  11
ENDBRANCH   3   5
ENDBRANCH   1   3
BRANCH   1  22
HETATM   22  C12 UNL     1      10.484  16.392  -1.970  1.00  0.00     0.122 C
BRANCH  22  23
HETATM   23  C13 UNL     1       9.425  15.444  -2.370  1.00  0.00     0.046 C
BRANCH  23  24
HETATM   24  C14 UNL     1       8.595  15.904  -3.516  1.00  0.00     0.170 C
BRANCH  24  25
HETATM   25  O3  UNL     1       9.212  16.387  -4.572  1.00  0.00    -0.383 OA
BRANCH  25  26
HETATM   26  C15 UNL     1       9.040  16.027  -5.846  1.00  0.00     0.157 C
HETATM   27  C16 UNL     1       9.447  14.530  -5.985  1.00  0.00     0.161 C
HETATM   28  N3  UNL     1      10.800  15.024  -6.011  1.00  0.00    -0.329 N
HETATM   29  C17 UNL     1      12.058  14.603  -5.543  1.00  0.00     0.318 C
HETATM   30  C24 UNL     1      10.290  16.160  -6.740  1.00  0.00     0.161 C
HETATM   31  O4  UNL     1      13.104  15.272  -5.723  1.00  0.00    -0.247 OA
HETATM   32  N4  UNL     1      12.166  13.374  -4.835  1.00  0.00    -0.341 N
ATOM     33  H4  UNL     1      11.338  12.801  -4.669  1.00  0.00     0.164 HD
BRANCH  32  34
HETATM   34  C18 UNL     1      13.459  12.943  -4.351  1.00  0.00     0.143 C
BRANCH  34  35
HETATM   35  C19 UNL     1      13.270  12.277  -3.012  1.00  0.00     0.136 C
BRANCH  35  36
HETATM   36  N5  UNL     1      12.768  13.219  -2.071  1.00  0.00    -0.407 N
HETATM   37  C20 UNL     1      11.914  12.711  -1.051  1.00  0.00     0.143 C
HETATM   38  C21 UNL     1      12.615  12.547   0.283  1.00  0.00     0.187 C
HETATM   39  O5  UNL     1      13.414  13.611   0.621  1.00  0.00    -0.388 OA
HETATM   40  C22 UNL     1      13.242  14.688  -0.256  1.00  0.00     0.187 C
HETATM   41  C23 UNL     1      13.702  14.209  -1.619  1.00  0.00     0.143 C
ENDBRANCH  35  36
ENDBRANCH  34  35
ENDBRANCH  32  34
ENDBRANCH  25  26
ENDBRANCH  24  25
ENDBRANCH  23  24
ENDBRANCH  22  23
ENDBRANCH   1  22
TORSDOF 15
ENDMDL