MODEL 5
REMARK VINA RESULT: -4.890887467      2.296      3.370
REMARK  2 active torsions:
REMARK  status: ('A' for Active; 'I' for Inactive)
REMARK    1  A    between atoms: N1_2  and  C2_5
REMARK    2  A    between atoms: C2_5  and  C3_6
ROOT
HETATM    1  C3  UNL     1      10.779  14.169  44.634  1.00  0.00     0.036 C
HETATM    2  C4  UNL     1      11.332  12.954  43.908  1.00  0.00     0.173 C
HETATM    3  O1  UNL     1      12.478  12.453  44.461  1.00  0.00    -0.390 OA
HETATM    4  C5  UNL     1      12.759  12.792  45.751  1.00  0.00     0.177 C
HETATM    5  C6  UNL     1      11.516  12.826  46.604  1.00  0.00    -0.018 C
HETATM    6  C7  UNL     1      11.806  13.063  48.060  1.00  0.00     0.012 C
HETATM    7  C8  UNL     1      10.664  12.506  48.913  1.00  0.00     0.001 C
HETATM    8  C9  UNL     1      10.723  10.973  48.897  1.00  0.00     0.000 C
HETATM    9  C10 UNL     1      11.399  10.592  47.618  1.00  0.00     0.001 C
HETATM   10  C11 UNL     1      10.866  11.480  46.482  1.00  0.00     0.012 C
HETATM   11  C12 UNL     1      10.693  13.982  46.096  1.00  0.00     0.020 C
ENDROOT
BRANCH   1  12
HETATM   12  C2  UNL     1      11.612  15.350  44.178  1.00  0.00     0.238 C
BRANCH  12  13
HETATM   13  N1  UNL     1      11.392  16.383  45.187  1.00  0.00    -0.079 N
HETATM   14  C1  UNL     1      10.391  17.356  44.771  1.00  0.00     0.267 C
ATOM     15  H12 UNL     1      12.267  16.841  45.442  1.00  0.00     0.276 HD
ATOM     16  H11 UNL     1      11.154  15.972  46.090  1.00  0.00     0.276 HD
ENDBRANCH  12  13
ENDBRANCH   1  12
TORSDOF 2
ENDMDL