MODEL 3
REMARK VINA RESULT: -5.071536351      1.285      1.567
REMARK  2 active torsions:
REMARK  status: ('A' for Active; 'I' for Inactive)
REMARK    1  A    between atoms: C2_2  and  N1_3
REMARK    2  A    between atoms: N1_3  and  C3_6
ROOT
HETATM    1  C3  UNL     1       9.991  14.733  46.301  1.00  0.00     0.216 C
HETATM    2  C4  UNL     1       9.966  14.502  47.790  1.00  0.00     0.201 C
HETATM    3  O1  UNL     1       9.628  13.152  47.858  1.00  0.00    -0.383 OA
HETATM    4  C5  UNL     1      10.240  12.485  46.828  1.00  0.00     0.128 C
HETATM    5  C6  UNL     1      11.381  11.690  47.361  1.00  0.00     0.036 C
HETATM    6  C7  UNL     1      11.823  10.586  46.434  1.00  0.00    -0.016 C
HETATM    7  C8  UNL     1      10.874   9.414  46.449  1.00  0.00     0.010 C
HETATM    8  C9  UNL     1      11.871  11.185  45.042  1.00  0.00     0.004 C
HETATM    9  C10 UNL     1      12.760  12.387  45.087  1.00  0.00     0.001 C
HETATM   10  C11 UNL     1      12.124  13.629  45.637  1.00  0.00     0.009 C
HETATM   11  C12 UNL     1      10.637  13.503  45.796  1.00  0.00     0.047 C
ENDROOT
BRANCH   1  12
HETATM   12  N1  UNL     1      10.599  15.974  45.925  1.00  0.00    -0.069 N
ATOM     13  H12 UNL     1      11.602  15.895  45.754  1.00  0.00     0.277 HD
ATOM     14  H11 UNL     1      10.651  16.644  46.691  1.00  0.00     0.277 HD
BRANCH  12  15
HETATM   15  C2  UNL     1       9.850  16.478  44.762  1.00  0.00     0.228 C
HETATM   16  C1  UNL     1      10.628  17.483  43.981  1.00  0.00     0.034 C
ENDBRANCH  12  15
ENDBRANCH   1  12
TORSDOF 2
ENDMDL