MODEL 5
REMARK VINA RESULT: -5.273342371      3.146      5.472
REMARK  2 active torsions:
REMARK  status: ('A' for Active; 'I' for Inactive)
REMARK    1  A    between atoms: C4_4  and  C5_5
REMARK    2  A    between atoms: C5_5  and  C6_6
ROOT
HETATM    1  C1  UNL     1      10.575  14.411  40.605  1.00  0.00     0.078 C
HETATM    2  C2  UNL     1      11.372  13.412  41.330  1.00  0.00     0.223 C
HETATM    3  C3  UNL     1      11.570  13.694  42.811  1.00  0.00     0.075 C
HETATM    4  C4  UNL     1      11.656  12.324  43.429  1.00  0.00     0.023 C
HETATM    5  C11 UNL     1      11.884  11.481  42.188  1.00  0.00     0.217 C
HETATM    6  C12 UNL     1      13.072  11.963  41.395  1.00  0.00     0.204 C
HETATM    7  O1  UNL     1      12.633  13.158  40.794  1.00  0.00    -0.352 OA
HETATM    8  N1  UNL     1      10.807  12.073  41.361  1.00  0.00    -0.037 N
ATOM      9  H11 UNL     1      10.597  11.627  40.468  1.00  0.00     0.281 HD
ATOM     10  H12 UNL     1       9.847  11.972  41.691  1.00  0.00     0.281 HD
ENDROOT
BRANCH   4  11
HETATM   11  C5  UNL     1      12.703  12.172  44.448  1.00  0.00     0.011 C
BRANCH  11  12
HETATM   12  C6  UNL     1      12.357  12.137  45.868  1.00  0.00    -0.014 C
HETATM   13  C7  UNL     1      11.714  13.313  46.500  1.00  0.00     0.005 C
HETATM   14  C8  UNL     1      11.583  12.792  47.948  1.00  0.00     0.000 C
HETATM   15  C9  UNL     1      11.121  11.366  47.711  1.00  0.00     0.000 C
HETATM   16  C10 UNL     1      11.381  11.043  46.255  1.00  0.00     0.005 C
ENDBRANCH  11  12
ENDBRANCH   4  11
TORSDOF 2
ENDMDL