MODEL 5
REMARK VINA RESULT: -4.917799061      2.828      4.082
REMARK  2 active torsions:
REMARK  status: ('A' for Active; 'I' for Inactive)
REMARK    1  A    between atoms: C4_5  and  N2_6
REMARK    2  A    between atoms: N2_6  and  C5_8
ROOT
HETATM    1  N2  UNL     1      12.623  12.233  44.773  1.00  0.00    -0.411 N
ATOM      2  H2  UNL     1      13.522  12.715  44.773  1.00  0.00     0.154 HD
ENDROOT
BRANCH   1   3
HETATM    3  C4  UNL     1      11.991  11.878  43.559  1.00  0.00     0.107 C
HETATM    4  C3  UNL     1      13.116  11.502  42.580  1.00  0.00     0.056 C
HETATM    5  C2  UNL     1      12.597  11.842  41.227  1.00  0.00     0.274 C
HETATM    6  N1  UNL     1      11.528  12.779  41.401  1.00  0.00     0.086 N
HETATM    7  C1  UNL     1      10.341  12.453  40.676  1.00  0.00     0.310 C
HETATM    8  C12 UNL     1      11.331  12.994  42.812  1.00  0.00     0.296 C
ENDBRANCH   1   3
BRANCH   1   9
HETATM    9  C5  UNL     1      11.977  11.903  45.984  1.00  0.00     0.077 C
HETATM   10  C6  UNL     1      10.861  12.797  46.417  1.00  0.00     0.024 C
HETATM   11  C7  UNL     1      11.061  13.185  47.864  1.00  0.00     0.002 C
HETATM   12  C8  UNL     1      10.739  12.092  48.828  1.00  0.00     0.000 C
HETATM   13  C9  UNL     1      11.381  10.768  48.488  1.00  0.00     0.000 C
HETATM   14  C10 UNL     1      10.784  10.127  47.280  1.00  0.00     0.002 C
HETATM   15  C11 UNL     1      11.406  10.487  45.987  1.00  0.00     0.024 C
ENDBRANCH   1   9
TORSDOF 2
ENDMDL