MODEL 3
REMARK VINA RESULT: -4.629167859      1.668      2.499
REMARK  2 active torsions:
REMARK  status: ('A' for Active; 'I' for Inactive)
REMARK    1  A    between atoms: C2_2  and  C3_3
REMARK    2  A    between atoms: C3_3  and  N1_4
ROOT
HETATM    1  N1  UNL     1      11.638  12.514  44.786  1.00  0.00     0.090 N
HETATM    2  C4  UNL     1      11.648  13.845  44.306  1.00  0.00     0.275 C
HETATM    3  C5  UNL     1      11.074  14.861  45.260  1.00  0.00     0.060 C
HETATM    4  C6  UNL     1       9.799  14.442  45.901  1.00  0.00     0.020 C
HETATM    5  C7  UNL     1       9.440  15.502  46.943  1.00  0.00     0.037 C
HETATM    6  C8  UNL     1       8.709  14.572  44.821  1.00  0.00     0.037 C
HETATM    7  N2  UNL     1       9.715  13.164  46.432  1.00  0.00    -0.404 N
ATOM      8  H2  UNL     1       8.847  12.637  46.336  1.00  0.00     0.154 HD
HETATM    9  C9  UNL     1      10.805  12.585  47.097  1.00  0.00     0.045 C
HETATM   10  C10 UNL     1      11.349  13.352  48.272  1.00  0.00     0.039 C
HETATM   11  C11 UNL     1      10.304  11.243  47.665  1.00  0.00     0.039 C
HETATM   12  C12 UNL     1      11.968  12.326  46.162  1.00  0.00     0.302 C
ENDROOT
BRANCH   1  13
HETATM   13  C3  UNL     1      12.498  11.677  43.995  1.00  0.00     0.272 C
BRANCH  13  14
HETATM   14  C2  UNL     1      12.236  11.722  42.519  1.00  0.00     0.026 C
HETATM   15  C1  UNL     1      13.462  11.296  41.722  1.00  0.00     0.007 C
ENDBRANCH  13  14
ENDBRANCH   1  13
TORSDOF 2
ENDMDL