MODEL 1
REMARK VINA RESULT: -5.309346167      0.000      0.000
REMARK  3 active torsions:
REMARK  status: ('A' for Active; 'I' for Inactive)
REMARK    1  A    between atoms: N1_1  and  C1_5
REMARK    2  A    between atoms: C1_5  and  C2_6
REMARK    3  A    between atoms: N2_10  and  C6_11
ROOT
HETATM    1  C2  UNL     1      11.384  10.340  48.730  1.00  0.00     0.039 C
HETATM    2  C3  UNL     1      10.311  11.220  49.332  1.00  0.00     0.010 C
HETATM    3  C4  UNL     1      10.303  12.517  48.594  1.00  0.00     0.031 C
HETATM    4  C5  UNL     1      11.611  12.697  47.838  1.00  0.00     0.273 C
HETATM    5  N2  UNL     1      11.809  11.686  46.843  1.00  0.00     0.093 N
HETATM    6  C12 UNL     1      11.282  10.411  47.215  1.00  0.00     0.279 C
ENDROOT
BRANCH   5   7
HETATM    7  C6  UNL     1      11.452  12.181  45.569  1.00  0.00     0.223 C
HETATM    8  C7  UNL     1      12.267  11.621  44.428  1.00  0.00     0.036 C
HETATM    9  C8  UNL     1      11.607  12.146  43.153  1.00  0.00     0.002 C
HETATM   10  C9  UNL     1      11.515  13.637  43.127  1.00  0.00     0.000 C
HETATM   11  C10 UNL     1      10.917  14.230  44.388  1.00  0.00     0.002 C
HETATM   12  C11 UNL     1      11.732  13.693  45.548  1.00  0.00     0.036 C
ENDBRANCH   5   7
BRANCH   1  13
HETATM   13  C1  UNL     1      11.239   8.937  49.254  1.00  0.00     0.236 C
BRANCH  13  14
HETATM   14  N1  UNL     1      11.494   8.045  48.128  1.00  0.00    -0.079 N
ATOM     15  H13 UNL     1      11.895   8.520  47.319  1.00  0.00     0.274 HD
ATOM     16  H12 UNL     1      12.266   7.399  48.291  1.00  0.00     0.274 HD
ATOM     17  H11 UNL     1      10.612   7.574  47.923  1.00  0.00     0.274 HD
ENDBRANCH  13  14
ENDBRANCH   1  13
TORSDOF 3
ENDMDL