MODEL 5
REMARK VINA RESULT: -4.154943446      2.527      3.632
REMARK  3 active torsions:
REMARK  status: ('A' for Active; 'I' for Inactive)
REMARK    1  A    between atoms: C2_2  and  N1_5
REMARK    2  A    between atoms: N1_5  and  C5_6
REMARK    3  A    between atoms: N1_5  and  C9_10
ROOT
HETATM    1  N1  UNL     1      11.420  13.919  43.242  1.00  0.00    -0.395 N
ENDROOT
BRANCH   1   2
HETATM    2  C2  UNL     1      10.673  15.064  43.487  1.00  0.00     0.018 C
HETATM    3  C1  UNL     1       9.374  14.803  44.264  1.00  0.00     0.037 C
HETATM    4  C3  UNL     1      11.436  16.085  44.317  1.00  0.00     0.037 C
HETATM    5  C4  UNL     1      10.242  15.859  42.270  1.00  0.00     0.037 C
ENDBRANCH   1   2
BRANCH   1   6
HETATM    6  C5  UNL     1      11.453  13.009  44.339  1.00  0.00     0.080 C
HETATM    7  C6  UNL     1      12.487  13.019  45.378  1.00  0.00     0.025 C
HETATM    8  C7  UNL     1      12.244  11.491  45.500  1.00  0.00     0.004 C
HETATM    9  C8  UNL     1      11.987  11.602  43.998  1.00  0.00     0.025 C
ENDBRANCH   1   6
BRANCH   1  10
HETATM   10  C9  UNL     1      11.478  13.235  42.057  1.00  0.00     0.107 C
HETATM   11  C10 UNL     1      10.257  12.916  41.255  1.00  0.00     0.054 C
HETATM   12  C11 UNL     1      10.912  12.059  40.177  1.00  0.00     0.234 C
HETATM   13  N2  UNL     1      12.285  12.532  40.064  1.00  0.00    -0.073 N
HETATM   14  C12 UNL     1      12.339  13.742  40.923  1.00  0.00     0.257 C
ATOM     15  H22 UNL     1      12.987  11.829  40.294  1.00  0.00     0.277 HD
ATOM     16  H21 UNL     1      12.591  12.691  39.104  1.00  0.00     0.277 HD
ENDBRANCH   1  10
TORSDOF 3
ENDMDL