MODEL 3
REMARK VINA RESULT: -4.532023524      2.067      3.476
REMARK  3 active torsions:
REMARK  status: ('A' for Active; 'I' for Inactive)
REMARK    1  A    between atoms: C2_2  and  C3_3
REMARK    2  A    between atoms: C3_3  and  C4_4
REMARK    3  A    between atoms: C12_13  and  N2_14
ROOT
HETATM    1  C4  UNL     1      10.860  11.820  47.309  1.00  0.00    -0.012 C
HETATM    2  C5  UNL     1      11.864  12.414  48.309  1.00  0.00     0.017 C
HETATM    3  C6  UNL     1      11.361  12.008  45.894  1.00  0.00     0.052 C
HETATM    4  C7  UNL     1      11.507  13.464  45.519  1.00  0.00     0.153 C
HETATM    5  C8  UNL     1      12.886  14.007  45.834  1.00  0.00     0.049 C
HETATM    6  C9  UNL     1      11.357  13.526  43.994  1.00  0.00     0.049 C
HETATM    7  N1  UNL     1      10.549  14.309  46.175  1.00  0.00     0.095 N
HETATM    8  C10 UNL     1      10.252  15.515  45.440  1.00  0.00     0.310 C
HETATM    9  C11 UNL     1       9.321  13.605  46.454  1.00  0.00     0.306 C
HETATM   10  C12 UNL     1       9.561  12.522  47.514  1.00  0.00     0.220 C
ENDROOT
BRANCH   1  11
HETATM   11  C3  UNL     1      10.827  10.348  47.605  1.00  0.00     0.011 C
BRANCH  11  12
HETATM   12  C2  UNL     1      11.238  10.014  49.009  1.00  0.00    -0.004 C
HETATM   13  C1  UNL     1      11.709   8.571  49.079  1.00  0.00     0.005 C
ENDBRANCH  11  12
ENDBRANCH   1  11
BRANCH  10  14
HETATM   14  N2  UNL     1       9.526  13.150  48.843  1.00  0.00    -0.073 N
ATOM     15  H23 UNL     1      10.047  14.026  48.864  1.00  0.00     0.274 HD
ATOM     16  H22 UNL     1       8.601  13.519  49.065  1.00  0.00     0.274 HD
ATOM     17  H21 UNL     1       9.855  12.495  49.553  1.00  0.00     0.274 HD
ENDBRANCH  10  14
TORSDOF 3
ENDMDL