MODEL 4
REMARK VINA RESULT: -4.782087152      1.459      2.816
REMARK  2 active torsions:
REMARK  status: ('A' for Active; 'I' for Inactive)
REMARK    1  A    between atoms: N1_3  and  N2_5
REMARK    2  A    between atoms: N2_5  and  C3_7
ROOT
HETATM    1  C3  UNL     1      11.670  11.997  44.715  1.00  0.00     0.046 C
HETATM    2  C4  UNL     1      12.995  12.604  45.144  1.00  0.00     0.037 C
HETATM    3  C5  UNL     1      12.756  13.719  46.108  1.00  0.00    -0.012 C
HETATM    4  C6  UNL     1      11.873  14.798  45.568  1.00  0.00     0.009 C
HETATM    5  C7  UNL     1      10.538  14.182  45.225  1.00  0.00    -0.012 C
HETATM    6  C8  UNL     1       9.894  13.556  46.454  1.00  0.00     0.009 C
HETATM    7  C9  UNL     1      10.833  12.492  46.953  1.00  0.00    -0.012 C
HETATM    8  C10 UNL     1      12.143  13.148  47.361  1.00  0.00     0.009 C
HETATM    9  C11 UNL     1      11.046  11.391  45.947  1.00  0.00     0.037 C
HETATM   10  C12 UNL     1      10.755  13.094  44.225  1.00  0.00     0.037 C
ENDROOT
BRANCH   1  11
HETATM   11  N2  UNL     1      11.871  11.055  43.660  1.00  0.00    -0.327 N
ATOM     12  H2  UNL     1      12.312  10.161  43.872  1.00  0.00     0.181 HD
BRANCH  11  13
HETATM   13  N1  UNL     1      11.476  11.330  42.332  1.00  0.00    -0.320 N
HETATM   14  C2  UNL     1      12.348  11.415  41.399  1.00  0.00     0.075 C
HETATM   15  C1  UNL     1      13.783  11.229  41.684  1.00  0.00     0.056 C
ATOM     16  H1  UNL     1      10.488  11.462  42.115  1.00  0.00     0.185 HD
ENDBRANCH  11  13
ENDBRANCH   1  11
TORSDOF 2
ENDMDL