MODEL 3
REMARK VINA RESULT: -9.179547483      1.398      1.930
REMARK  16 active torsions:
REMARK  status: ('A' for Active; 'I' for Inactive)
REMARK    1  A    between atoms: C2_2  and  C3_3
REMARK    2  A    between atoms: C3_3  and  C4_4
REMARK    3  A    between atoms: C3_3  and  C6_6
REMARK    4  A    between atoms: C3_3  and  C21_40
REMARK    5  A    between atoms: C6_6  and  O1_7
REMARK    6  A    between atoms: C6_6  and  N1_9
REMARK    7  A    between atoms: N2_12  and  C9_13
REMARK    8  A    between atoms: C9_13  and  C10_14
REMARK    9  A    between atoms: C10_14  and  C11_15
REMARK   10  A    between atoms: C11_15  and  C12_16
REMARK   11  A    between atoms: C12_16  and  N3_17
REMARK       I    between atoms: N3_17  and  C13_19
REMARK   12  A    between atoms: C13_19  and  C14_21
REMARK   13  A    between atoms: C14_21  and  N4_22
REMARK       I    between atoms: N4_22  and  C15_24
REMARK   14  A    between atoms: C15_24  and  C16_26
REMARK   15  A    between atoms: C16_26  and  N5_27
REMARK   16  A    between atoms: N8_34  and  O4_36
ROOT
HETATM    1  C9  UNL     1     -18.509   1.081  -4.511  1.00  0.00     0.099 C
HETATM    2  N8  UNL     1     -18.915   2.196  -4.011  1.00  0.00    -0.257 N
ATOM      3  H8  UNL     1     -18.947   2.275  -2.995  1.00  0.00     0.195 HD
ENDROOT
BRANCH   1   4
HETATM    4  N2  UNL     1     -18.128   0.027  -3.636  1.00  0.00    -0.366 N
HETATM    5  C8  UNL     1     -18.804  -1.266  -3.739  1.00  0.00     0.144 C
HETATM    6  C7  UNL     1     -18.283  -2.246  -2.724  1.00  0.00     0.144 C
HETATM    7  N1  UNL     1     -18.213  -1.652  -1.386  1.00  0.00    -0.361 N
HETATM    8  C20 UNL     1     -17.717  -0.320  -1.314  1.00  0.00     0.144 C
HETATM    9  C19 UNL     1     -17.105   0.137  -2.637  1.00  0.00     0.144 C
BRANCH   7  10
HETATM   10  C6  UNL     1     -18.660  -2.405  -0.307  1.00  0.00     0.127 C
BRANCH  10  11
HETATM   11  C3  UNL     1     -17.939  -3.182   0.689  1.00  0.00     0.051 C
BRANCH  11  12
HETATM   12  C2  UNL     1     -16.628  -3.712   0.248  1.00  0.00     0.018 C
HETATM   13  C1  UNL     1     -16.772  -4.643  -0.938  1.00  0.00     0.006 C
ENDBRANCH  11  12
BRANCH  11  14
HETATM   14  C4  UNL     1     -18.815  -4.390   1.093  1.00  0.00     0.018 C
HETATM   15  C5  UNL     1     -17.991  -5.411   1.852  1.00  0.00     0.006 C
ENDBRANCH  11  14
BRANCH  11  16
HETATM   16  C21 UNL     1     -17.751  -2.431   1.993  1.00  0.00    -0.041 A
HETATM   17  C22 UNL     1     -16.909  -1.321   2.049  1.00  0.00     0.009 A
HETATM   18  C23 UNL     1     -16.700  -0.604   3.214  1.00  0.00     0.008 A
HETATM   19  C24 UNL     1     -17.318  -0.958   4.368  1.00  0.00    -0.052 A
HETATM   20  C25 UNL     1     -18.151  -2.041   4.341  1.00  0.00    -0.051 A
HETATM   21  C30 UNL     1     -17.140  -0.234   5.658  1.00  0.00     0.039 C
HETATM   22  C26 UNL     1     -18.368  -2.775   3.162  1.00  0.00     0.016 A
HETATM   23  C27 UNL     1     -18.830  -2.438   5.588  1.00  0.00     0.039 C
HETATM   24  C28 UNL     1     -17.785  -2.439   6.683  1.00  0.00     0.005 C
HETATM   25  C29 UNL     1     -17.086  -1.134   6.847  1.00  0.00     0.005 C
ENDBRANCH  11  16
ENDBRANCH  10  11
BRANCH  10  26
HETATM   26  O1  UNL     1     -19.953  -2.411  -0.167  1.00  0.00    -0.349 OA
ATOM     27  H1  UNL     1     -20.285  -1.780   0.460  1.00  0.00     0.219 HD
ENDBRANCH  10  26
ENDBRANCH   7  10
ENDBRANCH   1   4
BRANCH   1  28
HETATM   28  C10 UNL     1     -18.461   0.961  -5.973  1.00  0.00     0.080 C
BRANCH  28  29
HETATM   29  C11 UNL     1     -17.008   0.783  -6.371  1.00  0.00     0.027 C
BRANCH  29  30
HETATM   30  C12 UNL     1     -16.665   1.819  -7.429  1.00  0.00     0.123 C
BRANCH  30  31
HETATM   31  N3  UNL     1     -16.855   3.158  -6.914  1.00  0.00    -0.360 N
HETATM   32  C13 UNL     1     -16.056   4.223  -7.372  1.00  0.00     0.235 C
HETATM   33  O2  UNL     1     -15.168   3.972  -8.247  1.00  0.00    -0.272 OA
ATOM     34  H3  UNL     1     -17.575   3.332  -6.212  1.00  0.00     0.162 HD
BRANCH  32  35
HETATM   35  C14 UNL     1     -16.288   5.567  -6.818  1.00  0.00     0.225 C
BRANCH  35  36
HETATM   36  N4  UNL     1     -15.986   5.646  -5.422  1.00  0.00    -0.351 N
HETATM   37  C15 UNL     1     -17.000   5.874  -4.471  1.00  0.00     0.237 C
HETATM   38  O3  UNL     1     -18.183   6.017  -4.841  1.00  0.00    -0.272 OA
ATOM     39  H4  UNL     1     -15.021   5.535  -5.109  1.00  0.00     0.163 HD
BRANCH  37  40
HETATM   40  C16 UNL     1     -16.647   5.941  -3.034  1.00  0.00     0.252 C
BRANCH  40  41
HETATM   41  N5  UNL     1     -17.504   5.112  -2.217  1.00  0.00    -0.278 N
HETATM   42  C17 UNL     1     -17.072   4.091  -1.461  1.00  0.00     0.201 A
HETATM   43  N6  UNL     1     -18.159   3.581  -0.866  1.00  0.00    -0.346 N
HETATM   44  C18 UNL     1     -19.248   4.266  -1.238  1.00  0.00     0.198 A
ATOM     45  H6  UNL     1     -18.157   2.789  -0.224  1.00  0.00     0.167 HD
HETATM   46  N7  UNL     1     -18.812   5.227  -2.091  1.00  0.00    -0.293 N
ATOM     47  H7  UNL     1     -19.397   5.922  -2.557  1.00  0.00     0.188 HD
ENDBRANCH  40  41
ENDBRANCH  37  40
ENDBRANCH  35  36
ENDBRANCH  32  35
ENDBRANCH  30  31
ENDBRANCH  29  30
ENDBRANCH  28  29
ENDBRANCH   1  28
BRANCH   2  48
HETATM   48  O4  UNL     1     -19.304   3.271  -4.734  1.00  0.00    -0.288 OA
ATOM     49  H4  UNL     1     -18.827   3.628  -5.473  1.00  0.00     0.244 HD
ENDBRANCH   2  48
TORSDOF 16
ENDMDL