MODEL 2
REMARK VINA RESULT: -9.480536127      0.813      1.228
REMARK  14 active torsions:
REMARK  status: ('A' for Active; 'I' for Inactive)
REMARK    1  A    between atoms: N2_5  and  C4_6
REMARK    2  A    between atoms: C4_6  and  C5_7
REMARK    3  A    between atoms: C5_7  and  C6_8
REMARK       I    between atoms: C6_8  and  N3_10
REMARK    4  A    between atoms: N3_10  and  C7_12
REMARK    5  A    between atoms: C9_14  and  O2_15
REMARK    6  A    between atoms: O2_15  and  C10_16
REMARK    7  A    between atoms: C10_16  and  C11_17
REMARK    8  A    between atoms: C11_17  and  C12_18
REMARK    9  A    between atoms: C12_18  and  N4_19
REMARK   10  A    between atoms: C21_32  and  N7_33
REMARK   11  A    between atoms: N7_33  and  C22_35
REMARK   12  A    between atoms: C22_35  and  C23_36
REMARK   13  A    between atoms: C23_36  and  N8_37
REMARK   14  A    between atoms: N8_37  and  C24_39
ROOT
HETATM    1  C7  UNL     1     -18.729  -1.118  -2.008  1.00  0.00     0.053 A
HETATM    2  C8  UNL     1     -18.520  -1.308  -3.357  1.00  0.00     0.067 A
HETATM    3  C9  UNL     1     -18.513  -0.250  -4.291  1.00  0.00     0.073 A
HETATM    4  C18 UNL     1     -18.724   1.016  -3.837  1.00  0.00     0.067 A
HETATM    5  C19 UNL     1     -18.937   1.238  -2.476  1.00  0.00     0.052 A
HETATM    6  N5  UNL     1     -19.107   2.520  -2.118  1.00  0.00    -0.351 N
ATOM      7  H5  UNL     1     -19.102   3.263  -2.816  1.00  0.00     0.166 HD
HETATM    8  C20 UNL     1     -19.283   2.798  -0.826  1.00  0.00     0.182 A
HETATM    9  N6  UNL     1     -19.292   1.843   0.104  1.00  0.00    -0.338 N
ATOM     10  H6  UNL     1     -19.428   2.094   1.084  1.00  0.00     0.168 HD
HETATM   11  C21 UNL     1     -19.122   0.533  -0.241  1.00  0.00     0.117 A
HETATM   12  C29 UNL     1     -18.938   0.188  -1.570  1.00  0.00     0.061 A
ENDROOT
BRANCH   1  13
HETATM   13  N3  UNL     1     -18.869  -2.200  -1.117  1.00  0.00    -0.326 N
HETATM   14  C6  UNL     1     -17.780  -3.017  -0.668  1.00  0.00     0.223 C
HETATM   15  O1  UNL     1     -16.615  -2.842  -1.011  1.00  0.00    -0.273 OA
ATOM     16  H3  UNL     1     -19.804  -2.417  -0.771  1.00  0.00     0.169 HD
BRANCH  14  17
HETATM   17  C5  UNL     1     -18.098  -4.133   0.267  1.00  0.00     0.133 C
BRANCH  17  18
HETATM   18  C4  UNL     1     -16.886  -4.845   0.746  1.00  0.00     0.281 C
BRANCH  18  19
HETATM   19  N2  UNL     1     -16.561  -4.695   2.125  1.00  0.00     0.092 N
HETATM   20  C3  UNL     1     -17.684  -4.045   2.775  1.00  0.00     0.302 C
HETATM   21  C2  UNL     1     -17.783  -4.350   4.239  1.00  0.00     0.302 C
HETATM   22  N1  UNL     1     -18.022  -5.758   4.489  1.00  0.00     0.087 N
HETATM   23  C1  UNL     1     -19.433  -6.048   4.613  1.00  0.00     0.310 C
HETATM   24  C31 UNL     1     -17.473  -6.579   3.427  1.00  0.00     0.302 C
HETATM   25  C30 UNL     1     -16.262  -5.901   2.826  1.00  0.00     0.302 C
ENDBRANCH  18  19
ENDBRANCH  17  18
ENDBRANCH  14  17
ENDBRANCH   1  13
BRANCH   3  26
HETATM   26  O2  UNL     1     -18.300  -0.551  -5.591  1.00  0.00    -0.351 OA
BRANCH  26  27
HETATM   27  C10 UNL     1     -17.580   0.015  -6.588  1.00  0.00     0.177 C
BRANCH  27  28
HETATM   28  C11 UNL     1     -18.312   0.427  -7.842  1.00  0.00     0.046 C
BRANCH  28  29
HETATM   29  C12 UNL     1     -17.471   1.387  -8.612  1.00  0.00     0.119 C
BRANCH  29  30
HETATM   30  N4  UNL     1     -17.947   2.718  -8.684  1.00  0.00    -0.412 N
HETATM   31  C13 UNL     1     -17.139   3.601  -9.456  1.00  0.00     0.117 C
HETATM   32  C14 UNL     1     -15.900   3.972  -8.685  1.00  0.00     0.019 C
HETATM   33  C15 UNL     1     -16.307   4.677  -7.431  1.00  0.00     0.003 C
HETATM   34  C16 UNL     1     -17.272   3.873  -6.628  1.00  0.00     0.019 C
HETATM   35  C17 UNL     1     -18.400   3.305  -7.465  1.00  0.00     0.117 C
ENDBRANCH  29  30
ENDBRANCH  28  29
ENDBRANCH  27  28
ENDBRANCH  26  27
ENDBRANCH   3  26
BRANCH  11  36
HETATM   36  N7  UNL     1     -19.081  -0.330   0.684  1.00  0.00    -0.374 N
ATOM     37  H7  UNL     1     -18.712  -1.237   0.399  1.00  0.00     0.161 HD
BRANCH  36  38
HETATM   38  C22 UNL     1     -19.461  -0.252   2.044  1.00  0.00     0.141 C
BRANCH  38  39
HETATM   39  C23 UNL     1     -18.224  -0.332   2.924  1.00  0.00     0.141 C
BRANCH  39  40
HETATM   40  N8  UNL     1     -18.431   0.296   4.191  1.00  0.00    -0.375 N
ATOM     41  H8  UNL     1     -18.883   1.210   4.190  1.00  0.00     0.161 HD
BRANCH  40  42
HETATM   42  C24 UNL     1     -18.104  -0.179   5.305  1.00  0.00     0.100 A
HETATM   43  C25 UNL     1     -16.948  -0.943   5.378  1.00  0.00     0.048 A
HETATM   44  C26 UNL     1     -16.507  -1.516   6.564  1.00  0.00     0.005 A
HETATM   45  C27 UNL     1     -17.317  -1.263   7.666  1.00  0.00     0.017 A
HETATM   46  C28 UNL     1     -18.455  -0.516   7.611  1.00  0.00     0.089 A
HETATM   47  N9  UNL     1     -18.826   0.014   6.410  1.00  0.00    -0.353 N
ATOM     48  H9  UNL     1     -19.676   0.574   6.356  1.00  0.00     0.166 HD
ENDBRANCH  40  42
ENDBRANCH  39  40
ENDBRANCH  38  39
ENDBRANCH  36  38
ENDBRANCH  11  36
TORSDOF 14
ENDMDL