MODEL 3
REMARK VINA RESULT: -9.406816323      2.542     10.347
REMARK  13 active torsions:
REMARK  status: ('A' for Active; 'I' for Inactive)
REMARK    1  A    between atoms: C2_2  and  C3_3
REMARK    2  A    between atoms: C3_3  and  C4_4
REMARK    3  A    between atoms: C4_4  and  C5_5
REMARK    4  A    between atoms: N1_6  and  C6_8
REMARK    5  A    between atoms: C8_12  and  N3_13
REMARK    6  A    between atoms: N3_13  and  C9_15
REMARK    7  A    between atoms: C9_15  and  C10_16
REMARK    8  A    between atoms: C10_16  and  C11_17
REMARK    9  A    between atoms: C10_16  and  N4_21
REMARK   10  A    between atoms: C11_17  and  C12_18
REMARK   11  A    between atoms: N4_21  and  S1_23
REMARK   12  A    between atoms: C16_29  and  N6_30
REMARK   13  A    between atoms: C19_33  and  N7_34
ROOT
HETATM    1  C6  UNL     1     -17.597   4.052  -3.720  1.00  0.00     0.128 A
HETATM    2  N2  UNL     1     -18.315   2.953  -3.272  1.00  0.00    -0.335 N
ATOM      3  H2  UNL     1     -18.978   2.505  -3.905  1.00  0.00     0.168 HD
HETATM    4  C7  UNL     1     -18.167   2.464  -2.043  1.00  0.00     0.123 A
HETATM    5  C8  UNL     1     -18.884   1.357  -1.581  1.00  0.00     0.147 A
HETATM    6  N5  UNL     1     -18.716   0.884  -0.342  1.00  0.00    -0.174 N
ATOM      7  H5  UNL     1     -19.253   0.073  -0.034  1.00  0.00     0.186 HD
HETATM    8  C16 UNL     1     -17.834   1.473   0.517  1.00  0.00     0.683 A
HETATM    9  N8  UNL     1     -17.142   2.541   0.071  1.00  0.00    -0.174 N
ATOM     10  H8  UNL     1     -16.480   2.989   0.705  1.00  0.00     0.186 HD
HETATM   11  C26 UNL     1     -17.282   3.045  -1.164  1.00  0.00     0.152 A
HETATM   12  N9  UNL     1     -16.592   4.106  -1.603  1.00  0.00    -0.341 N
ATOM     13  H9  UNL     1     -15.933   4.546  -0.962  1.00  0.00     0.167 HD
HETATM   14  C27 UNL     1     -16.715   4.634  -2.851  1.00  0.00     0.051 A
HETATM   15  C28 UNL     1     -15.865   5.827  -3.187  1.00  0.00     0.072 C
ENDROOT
BRANCH   5  16
HETATM   16  N3  UNL     1     -19.705   0.847  -2.415  1.00  0.00    -0.372 N
ATOM     17  H3  UNL     1     -20.440   1.466  -2.756  1.00  0.00     0.161 HD
BRANCH  16  18
HETATM   18  C9  UNL     1     -19.718  -0.483  -2.927  1.00  0.00     0.147 C
BRANCH  18  19
HETATM   19  C10 UNL     1     -18.361  -0.995  -3.404  1.00  0.00     0.111 C
BRANCH  19  20
HETATM   20  C11 UNL     1     -18.490  -0.999  -4.920  1.00  0.00     0.031 C
BRANCH  20  21
HETATM   21  C12 UNL     1     -18.249   0.314  -5.575  1.00  0.00    -0.021 C
HETATM   22  C13 UNL     1     -16.737   0.616  -5.639  1.00  0.00     0.009 C
HETATM   23  C14 UNL     1     -18.639   0.254  -7.069  1.00  0.00     0.009 C
ENDBRANCH  20  21
ENDBRANCH  19  20
BRANCH  19  24
HETATM   24  N4  UNL     1     -18.044  -2.263  -2.873  1.00  0.00    -0.313 N
ATOM     25  H4  UNL     1     -18.137  -3.091  -3.461  1.00  0.00     0.172 HD
BRANCH  24  26
HETATM   26  S1  UNL     1     -17.519  -2.432  -1.293  1.00  0.00     0.223 S
HETATM   27  C15 UNL     1     -16.650  -3.936  -0.930  1.00  0.00     0.185 C
HETATM   28  O1  UNL     1     -18.512  -2.212  -0.215  1.00  0.00    -0.206 OA
HETATM   29  O2  UNL     1     -16.465  -1.328  -1.069  1.00  0.00    -0.206 OA
ENDBRANCH  24  26
ENDBRANCH  19  24
ENDBRANCH  18  19
ENDBRANCH  16  18
ENDBRANCH   5  16
BRANCH   8  30
HETATM   30  N6  UNL     1     -17.665   0.966   1.833  1.00  0.00    -0.217 N
HETATM   31  C17 UNL     1     -18.456   1.550   2.897  1.00  0.00     0.143 C
HETATM   32  C18 UNL     1     -18.886   0.338   3.741  1.00  0.00     0.056 C
HETATM   33  C19 UNL     1     -17.645  -0.130   4.422  1.00  0.00     0.226 C
HETATM   34  C24 UNL     1     -16.597  -0.542   3.458  1.00  0.00     0.056 C
HETATM   35  C25 UNL     1     -16.737  -0.088   2.056  1.00  0.00     0.143 C
BRANCH  33  36
HETATM   36  N7  UNL     1     -17.901  -1.151   5.422  1.00  0.00     0.093 N
HETATM   37  C20 UNL     1     -16.673  -1.330   6.168  1.00  0.00     0.273 C
HETATM   38  C21 UNL     1     -17.075  -1.501   7.614  1.00  0.00     0.032 C
HETATM   39  C22 UNL     1     -18.310  -0.653   7.717  1.00  0.00     0.032 C
HETATM   40  C23 UNL     1     -18.903  -0.684   6.348  1.00  0.00     0.273 C
ENDBRANCH  33  36
ENDBRANCH   8  30
BRANCH   1  41
HETATM   41  N1  UNL     1     -17.782   4.451  -4.865  1.00  0.00    -0.354 N
HETATM   42  C5  UNL     1     -17.875   4.166  -6.194  1.00  0.00     0.063 C
ATOM     43  H1  UNL     1     -17.939   5.456  -4.786  1.00  0.00     0.166 HD
BRANCH  42  44
HETATM   44  C4  UNL     1     -16.613   4.436  -7.013  1.00  0.00     0.048 C
BRANCH  44  45
HETATM   45  C3  UNL     1     -16.393   3.319  -8.023  1.00  0.00     0.031 C
BRANCH  45  46
HETATM   46  C2  UNL     1     -17.513   3.234  -8.989  1.00  0.00    -0.037 C
HETATM   47  C1  UNL     1     -17.530   2.320  -9.946  1.00  0.00     0.007 C
ENDBRANCH  45  46
ENDBRANCH  44  45
ENDBRANCH  42  44
ENDBRANCH   1  41
TORSDOF 13
ENDMDL