MODEL 2
REMARK VINA RESULT: -8.542281813      0.974      1.426
REMARK  16 active torsions:
REMARK  status: ('A' for Active; 'I' for Inactive)
REMARK    1  A    between atoms: C2_2  and  N1_3
REMARK    2  A    between atoms: N1_3  and  C3_5
REMARK    3  A    between atoms: C6_10  and  C7_11
REMARK       I    between atoms: C7_11  and  N3_13
REMARK    4  A    between atoms: N3_13  and  C8_15
REMARK    5  A    between atoms: C8_15  and  C9_16
REMARK    6  A    between atoms: C9_16  and  N4_17
REMARK    7  A    between atoms: C12_20  and  N5_21
REMARK    8  A    between atoms: N5_21  and  C13_23
REMARK    9  A    between atoms: C13_23  and  C14_24
REMARK   10  A    between atoms: C14_24  and  C15_25
REMARK   11  A    between atoms: C18_28  and  O2_29
REMARK   12  A    between atoms: O2_29  and  C19_30
REMARK   13  A    between atoms: C19_30  and  O3_31
REMARK   14  A    between atoms: C21_33  and  O4_34
REMARK   15  A    between atoms: C24_39  and  N7_40
REMARK   16  A    between atoms: N7_40  and  C25_42
ROOT
HETATM    1  C3  UNL     1     -18.031  -1.608   4.015  1.00  0.00     0.146 C
HETATM    2  N2  UNL     1     -17.895  -0.269   3.822  1.00  0.00    -0.342 N
ATOM      3  H2  UNL     1     -17.358   0.251   4.516  1.00  0.00     0.167 HD
HETATM    4  C4  UNL     1     -18.419   0.440   2.771  1.00  0.00     0.026 C
HETATM    5  C5  UNL     1     -18.879   1.812   3.084  1.00  0.00     0.069 C
HETATM    6  C6  UNL     1     -18.589   0.037   1.473  1.00  0.00     0.098 C
HETATM    7  C12 UNL     1     -18.896  -1.294   1.066  1.00  0.00     0.124 C
HETATM    8  N6  UNL     1     -19.057  -2.344   1.908  1.00  0.00    -0.325 N
ATOM      9  H6  UNL     1     -19.642  -3.097   1.547  1.00  0.00     0.169 HD
HETATM   10  C24 UNL     1     -18.559  -2.556   3.167  1.00  0.00     0.147 C
ENDROOT
BRANCH   7  11
HETATM   11  N5  UNL     1     -19.008  -1.445  -0.137  1.00  0.00    -0.355 N
ATOM     12  H5  UNL     1     -19.716  -0.770  -0.427  1.00  0.00     0.166 HD
BRANCH  11  13
HETATM   13  C13 UNL     1     -18.636  -2.091  -1.282  1.00  0.00     0.067 C
BRANCH  13  14
HETATM   14  C14 UNL     1     -17.436  -1.617  -2.056  1.00  0.00     0.083 C
BRANCH  14  15
HETATM   15  C15 UNL     1     -17.809  -0.930  -3.315  1.00  0.00    -0.051 A
HETATM   16  C16 UNL     1     -18.525  -1.710  -4.239  1.00  0.00     0.010 A
HETATM   17  C17 UNL     1     -18.933  -1.188  -5.451  1.00  0.00     0.040 A
HETATM   18  C18 UNL     1     -18.650   0.108  -5.789  1.00  0.00     0.104 A
HETATM   19  C21 UNL     1     -17.940   0.894  -4.884  1.00  0.00     0.102 A
HETATM   20  C23 UNL     1     -17.538   0.346  -3.666  1.00  0.00     0.047 A
BRANCH  18  21
HETATM   21  O2  UNL     1     -19.045   0.670  -6.998  1.00  0.00    -0.323 OA
BRANCH  21  22
HETATM   22  C19 UNL     1     -18.246   0.379  -8.126  1.00  0.00     0.344 C
BRANCH  22  23
HETATM   23  O3  UNL     1     -18.378   1.265  -9.160  1.00  0.00    -0.371 OA
HETATM   24  C20 UNL     1     -18.559   2.581  -8.807  1.00  0.00     0.204 C
ENDBRANCH  22  23
ENDBRANCH  21  22
ENDBRANCH  18  21
BRANCH  19  25
HETATM   25  O4  UNL     1     -17.648   2.206  -5.217  1.00  0.00    -0.353 OA
HETATM   26  C22 UNL     1     -18.531   3.246  -4.851  1.00  0.00     0.210 C
ENDBRANCH  19  25
ENDBRANCH  14  15
ENDBRANCH  13  14
ENDBRANCH  11  13
ENDBRANCH   7  11
BRANCH   6  27
HETATM   27  C7  UNL     1     -18.393   1.013   0.448  1.00  0.00     0.257 C
HETATM   28  O1  UNL     1     -17.164   1.146   0.056  1.00  0.00    -0.267 OA
HETATM   29  N3  UNL     1     -19.309   1.843  -0.191  1.00  0.00    -0.355 N
ATOM     30  H3  UNL     1     -20.288   1.789   0.090  1.00  0.00     0.162 HD
BRANCH  29  31
HETATM   31  C8  UNL     1     -18.943   2.782  -1.236  1.00  0.00     0.153 C
BRANCH  31  32
HETATM   32  C9  UNL     1     -18.939   4.203  -0.724  1.00  0.00     0.291 C
BRANCH  32  33
HETATM   33  N4  UNL     1     -17.629   4.810  -0.741  1.00  0.00     0.081 N
HETATM   34  C10 UNL     1     -16.708   4.207  -1.660  1.00  0.00     0.309 C
HETATM   35  C11 UNL     1     -17.059   4.643   0.607  1.00  0.00     0.309 C
ENDBRANCH  32  33
ENDBRANCH  31  32
ENDBRANCH  29  31
ENDBRANCH   6  27
BRANCH  10  36
HETATM   36  N7  UNL     1     -18.615  -3.722   3.552  1.00  0.00    -0.367 N
ATOM     37  H7  UNL     1     -19.568  -3.985   3.800  1.00  0.00     0.161 HD
BRANCH  36  38
HETATM   38  C25 UNL     1     -17.723  -4.796   3.745  1.00  0.00     0.100 A
HETATM   39  C26 UNL     1     -17.130  -5.545   2.638  1.00  0.00    -0.018 A
HETATM   40  C27 UNL     1     -17.361  -5.177   1.200  1.00  0.00     0.018 C
HETATM   41  C28 UNL     1     -15.756  -6.181   2.866  1.00  0.00     0.018 C
HETATM   42  C29 UNL     1     -18.303  -6.161   3.334  1.00  0.00    -0.018 A
HETATM   43  C30 UNL     1     -17.969  -7.362   4.194  1.00  0.00     0.018 C
HETATM   44  C31 UNL     1     -19.676  -6.159   2.697  1.00  0.00     0.018 C
ENDBRANCH  36  38
ENDBRANCH  10  36
BRANCH   1  45
HETATM   45  N1  UNL     1     -17.617  -2.012   5.121  1.00  0.00    -0.374 N
ATOM     46  H1  UNL     1     -17.907  -2.955   5.378  1.00  0.00     0.161 HD
BRANCH  45  47
HETATM   47  C2  UNL     1     -16.799  -1.344   6.072  1.00  0.00     0.117 C
HETATM   48  C1  UNL     1     -17.470  -1.037   7.387  1.00  0.00     0.026 C
ENDBRANCH  45  47
ENDBRANCH   1  45
TORSDOF 16
ENDMDL