MODEL 4
REMARK VINA RESULT: -7.983522307      2.026      2.899
REMARK  14 active torsions:
REMARK  status: ('A' for Active; 'I' for Inactive)
REMARK    1  A    between atoms: C2_2  and  O1_3
REMARK    2  A    between atoms: O1_3  and  C3_4
REMARK    3  A    between atoms: C3_4  and  C4_5
REMARK    4  A    between atoms: C4_5  and  C5_6
REMARK    5  A    between atoms: C5_6  and  N1_7
REMARK       I    between atoms: N1_7  and  C6_9
REMARK    6  A    between atoms: C6_9  and  C7_11
REMARK    7  A    between atoms: N3_23  and  C16_24
REMARK    8  A    between atoms: C16_24  and  O3_25
REMARK    9  A    between atoms: C17_27  and  N4_28
REMARK       I    between atoms: N4_28  and  C18_30
REMARK   10  A    between atoms: C18_30  and  C19_32
REMARK   11  A    between atoms: C23_36  and  C24_37
REMARK       I    between atoms: C24_37  and  N5_39
REMARK   12  A    between atoms: N5_39  and  C25_41
REMARK   13  A    between atoms: C25_41  and  C26_42
REMARK   14  A    between atoms: C26_42  and  O6_43
ROOT
HETATM    1  C7  UNL     1     -17.820  -2.684   3.060  1.00  0.00     0.081 A
HETATM    2  S1  UNL     1     -18.894  -3.039   1.749  1.00  0.00    -0.066 SA
HETATM    3  C8  UNL     1     -18.673  -1.632   0.810  1.00  0.00     0.086 A
HETATM    4  N2  UNL     1     -19.207  -1.216  -0.378  1.00  0.00    -0.353 N
ATOM      5  H2  UNL     1     -19.879  -1.815  -0.857  1.00  0.00     0.166 HD
HETATM    6  C9  UNL     1     -18.866  -0.015  -0.943  1.00  0.00     0.020 A
HETATM    7  C10 UNL     1     -17.963   0.709  -0.226  1.00  0.00    -0.017 A
HETATM    8  C11 UNL     1     -17.401   0.327   0.973  1.00  0.00     0.025 A
HETATM    9  C12 UNL     1     -17.768  -0.918   1.539  1.00  0.00     0.006 A
HETATM   10  C13 UNL     1     -17.329  -1.467   2.704  1.00  0.00    -0.026 A
HETATM   11  C14 UNL     1     -16.316  -0.771   3.615  1.00  0.00     0.050 C
HETATM   12  C15 UNL     1     -17.572   2.042  -0.834  1.00  0.00     0.166 C
HETATM   13  N3  UNL     1     -18.630   2.539  -1.654  1.00  0.00    -0.343 N
HETATM   14  C23 UNL     1     -19.025   1.646  -2.761  1.00  0.00     0.184 C
HETATM   15  C28 UNL     1     -19.487   0.358  -2.227  1.00  0.00     0.092 C
ENDROOT
BRANCH  13  16
HETATM   16  C16 UNL     1     -19.312   3.730  -1.490  1.00  0.00     0.154 C
HETATM   17  C17 UNL     1     -19.156   5.102  -1.868  1.00  0.00     0.146 C
BRANCH  16  18
HETATM   18  O3  UNL     1     -20.446   3.566  -0.779  1.00  0.00    -0.345 OA
ATOM     19  H3  UNL     1     -21.026   4.313  -0.863  1.00  0.00     0.219 HD
ENDBRANCH  16  18
BRANCH  17  20
HETATM   20  N4  UNL     1     -18.018   5.614  -2.489  1.00  0.00    -0.332 N
HETATM   21  C18 UNL     1     -17.948   5.828  -3.899  1.00  0.00     0.229 C
HETATM   22  O4  UNL     1     -18.925   5.556  -4.627  1.00  0.00    -0.272 OA
ATOM     23  H4  UNL     1     -17.206   5.843  -1.916  1.00  0.00     0.168 HD
BRANCH  21  24
HETATM   24  C19 UNL     1     -16.714   6.376  -4.532  1.00  0.00     0.030 C
HETATM   25  C20 UNL     1     -15.540   6.105  -3.637  1.00  0.00     0.025 C
HETATM   26  C21 UNL     1     -16.516   5.839  -5.912  1.00  0.00     0.025 C
HETATM   27  C22 UNL     1     -16.879   7.885  -4.663  1.00  0.00     0.025 C
ENDBRANCH  21  24
ENDBRANCH  17  20
ENDBRANCH  13  16
BRANCH  14  28
HETATM   28  C24 UNL     1     -17.984   1.577  -3.812  1.00  0.00     0.241 C
HETATM   29  O5  UNL     1     -17.070   2.430  -3.944  1.00  0.00    -0.271 OA
HETATM   30  N5  UNL     1     -18.015   0.490  -4.721  1.00  0.00    -0.357 N
ATOM     31  H5  UNL     1     -18.739  -0.223  -4.646  1.00  0.00     0.162 HD
BRANCH  30  32
HETATM   32  C25 UNL     1     -17.020   0.403  -5.744  1.00  0.00     0.148 C
BRANCH  32  33
HETATM   33  C26 UNL     1     -17.424   0.823  -7.117  1.00  0.00     0.186 C
BRANCH  33  34
HETATM   34  O6  UNL     1     -18.513   1.594  -7.278  1.00  0.00    -0.394 OA
HETATM   35  C27 UNL     1     -18.466   2.923  -7.455  1.00  0.00     0.201 C
ENDBRANCH  33  34
ENDBRANCH  32  33
ENDBRANCH  30  32
ENDBRANCH  14  28
BRANCH   1  36
HETATM   36  C6  UNL     1     -17.614  -3.578   4.186  1.00  0.00     0.259 C
HETATM   37  N1  UNL     1     -16.917  -4.767   4.194  1.00  0.00    -0.356 N
ATOM     38  H1  UNL     1     -16.469  -5.121   3.348  1.00  0.00     0.162 HD
HETATM   39  O2  UNL     1     -18.142  -3.219   5.303  1.00  0.00    -0.267 OA
BRANCH  37  40
HETATM   40  C5  UNL     1     -16.840  -5.517   5.474  1.00  0.00     0.125 C
BRANCH  40  41
HETATM   41  C4  UNL     1     -16.932  -6.996   5.263  1.00  0.00     0.046 C
BRANCH  41  42
HETATM   42  C3  UNL     1     -18.128  -7.279   4.417  1.00  0.00     0.169 C
BRANCH  42  43
HETATM   43  O1  UNL     1     -19.259  -6.721   4.966  1.00  0.00    -0.391 OA
BRANCH  43  44
HETATM   44  C2  UNL     1     -20.166  -6.229   4.054  1.00  0.00     0.163 C
HETATM   45  C1  UNL     1     -19.740  -6.578   2.630  1.00  0.00     0.033 C
ENDBRANCH  43  44
ENDBRANCH  42  43
ENDBRANCH  41  42
ENDBRANCH  40  41
ENDBRANCH  37  40
ENDBRANCH   1  36
TORSDOF 14
ENDMDL