MODEL 3
REMARK VINA RESULT: -8.605625898      2.315      8.003
REMARK  14 active torsions:
REMARK  status: ('A' for Active; 'I' for Inactive)
REMARK    1  A    between atoms: C2_2  and  O1_5
REMARK    2  A    between atoms: O1_5  and  C5_6
REMARK       I    between atoms: C5_6  and  N1_8
REMARK    3  A    between atoms: N1_8  and  C6_10
REMARK    4  A    between atoms: C6_10  and  C8_13
REMARK       I    between atoms: C8_13  and  N3_15
REMARK    5  A    between atoms: N3_15  and  C9_17
REMARK    6  A    between atoms: C9_17  and  C10_18
REMARK       I    between atoms: C10_18  and  N4_20
REMARK    7  A    between atoms: N4_20  and  C11_21
REMARK    8  A    between atoms: N4_20  and  C19_30
REMARK    9  A    between atoms: C11_21  and  C12_22
REMARK   10  A    between atoms: C12_22  and  C13_23
REMARK   11  A    between atoms: C13_23  and  N5_24
REMARK   12  A    between atoms: C19_30  and  C20_31
REMARK   13  A    between atoms: C19_30  and  C25_40
REMARK       I    between atoms: C20_31  and  N6_33
REMARK   14  A    between atoms: N6_33  and  C21_35
ROOT
HETATM    1  C6  UNL     1     -18.305  -3.061  -0.798  1.00  0.00     0.286 C
HETATM    2  C7  UNL     1     -17.385  -4.174  -1.113  1.00  0.00     0.094 C
HETATM    3  N2  UNL     1     -16.664  -5.046  -1.341  1.00  0.00    -0.195 NA
ENDROOT
BRANCH   1   4
HETATM    4  N1  UNL     1     -18.071  -2.668   0.557  1.00  0.00    -0.312 N
HETATM    5  C5  UNL     1     -18.953  -1.750   1.187  1.00  0.00     0.362 C
HETATM    6  O2  UNL     1     -19.952  -1.278   0.539  1.00  0.00    -0.238 OA
ATOM      7  H1  UNL     1     -17.273  -3.045   1.069  1.00  0.00     0.166 HD
BRANCH   5   8
HETATM    8  O1  UNL     1     -18.832  -1.303   2.477  1.00  0.00    -0.294 OA
BRANCH   8   9
HETATM    9  C2  UNL     1     -17.928  -0.335   2.927  1.00  0.00     0.061 C
HETATM   10  C1  UNL     1     -18.668   0.974   3.193  1.00  0.00     0.046 C
HETATM   11  C3  UNL     1     -17.258  -0.778   4.208  1.00  0.00     0.046 C
HETATM   12  C4  UNL     1     -16.841  -0.036   1.919  1.00  0.00     0.046 C
ENDBRANCH   8   9
ENDBRANCH   5   8
ENDBRANCH   1   4
BRANCH   1  13
HETATM   13  C8  UNL     1     -18.073  -1.935  -1.735  1.00  0.00     0.255 C
HETATM   14  O3  UNL     1     -16.950  -1.382  -1.796  1.00  0.00    -0.270 OA
HETATM   15  N3  UNL     1     -19.108  -1.465  -2.575  1.00  0.00    -0.350 N
ATOM     16  H3  UNL     1     -20.028  -1.905  -2.536  1.00  0.00     0.163 HD
BRANCH  15  17
HETATM   17  C9  UNL     1     -18.878  -0.369  -3.488  1.00  0.00     0.225 C
BRANCH  17  18
HETATM   18  C10 UNL     1     -19.024   0.946  -2.819  1.00  0.00     0.238 C
HETATM   19  O4  UNL     1     -20.010   1.074  -2.056  1.00  0.00    -0.272 OA
HETATM   20  N4  UNL     1     -18.141   2.021  -2.990  1.00  0.00    -0.337 N
BRANCH  20  21
HETATM   21  C11 UNL     1     -17.034   1.818  -3.897  1.00  0.00     0.132 C
BRANCH  21  22
HETATM   22  C12 UNL     1     -17.292   0.887  -5.028  1.00  0.00     0.064 C
BRANCH  22  23
HETATM   23  C13 UNL     1     -17.024   1.598  -6.342  1.00  0.00     0.064 C
BRANCH  23  24
HETATM   24  N5  UNL     1     -18.130   1.642  -7.206  1.00  0.00    -0.374 N
HETATM   25  C14 UNL     1     -18.518   0.475  -7.893  1.00  0.00     0.063 C
HETATM   26  C15 UNL     1     -17.858   0.418  -9.257  1.00  0.00     0.044 C
HETATM   27  C16 UNL     1     -17.482   1.813  -9.699  1.00  0.00     0.007 C
HETATM   28  C17 UNL     1     -18.584   2.766  -9.270  1.00  0.00     0.021 C
HETATM   29  C18 UNL     1     -18.562   2.864  -7.743  1.00  0.00     0.127 C
ENDBRANCH  23  24
ENDBRANCH  22  23
ENDBRANCH  21  22
ENDBRANCH  20  21
BRANCH  20  30
HETATM   30  C19 UNL     1     -18.233   3.292  -2.322  1.00  0.00     0.183 C
BRANCH  30  31
HETATM   31  C20 UNL     1     -18.019   4.303  -3.393  1.00  0.00     0.242 C
HETATM   32  O5  UNL     1     -18.946   4.626  -4.192  1.00  0.00    -0.271 OA
HETATM   33  N6  UNL     1     -16.774   4.931  -3.559  1.00  0.00    -0.337 N
ATOM     34  H6  UNL     1     -16.011   4.685  -2.928  1.00  0.00     0.164 HD
BRANCH  33  35
HETATM   35  C21 UNL     1     -16.534   5.923  -4.603  1.00  0.00     0.122 A
HETATM   36  C22 UNL     1     -16.364   5.333  -5.931  1.00  0.00     0.091 C
HETATM   37  N7  UNL     1     -16.209   4.865  -7.000  1.00  0.00    -0.195 NA
HETATM   38  C23 UNL     1     -15.571   7.066  -4.287  1.00  0.00     0.050 A
HETATM   39  C24 UNL     1     -17.057   7.298  -4.482  1.00  0.00     0.050 A
ENDBRANCH  33  35
ENDBRANCH  30  31
BRANCH  30  40
HETATM   40  C25 UNL     1     -17.376   3.571  -1.180  1.00  0.00     0.018 C
HETATM   41  C26 UNL     1     -17.565   5.007  -0.756  1.00  0.00     0.007 C
HETATM   42  C27 UNL     1     -17.054   5.102   0.663  1.00  0.00     0.000 C
HETATM   43  C28 UNL     1     -17.042   3.701   1.155  1.00  0.00     0.000 C
HETATM   44  C29 UNL     1     -17.708   2.842   0.097  1.00  0.00     0.007 C
ENDBRANCH  30  40
ENDBRANCH  20  30
ENDBRANCH  17  18
ENDBRANCH  15  17
ENDBRANCH   1  13
TORSDOF 14
ENDMDL