MODEL 4
REMARK VINA RESULT: -8.702477490      3.901     10.848
REMARK  13 active torsions:
REMARK  status: ('A' for Active; 'I' for Inactive)
REMARK    1  A    between atoms: C2_2  and  C3_3
REMARK    2  A    between atoms: C3_3  and  C4_4
REMARK    3  A    between atoms: C4_4  and  C5_5
REMARK    4  A    between atoms: C5_5  and  O1_6
REMARK    5  A    between atoms: O1_6  and  C6_7
REMARK       I    between atoms: C6_7  and  N1_9
REMARK       I    between atoms: N2_12  and  C9_13
REMARK    6  A    between atoms: C9_13  and  C10_15
REMARK    7  A    between atoms: N3_22  and  C17_23
REMARK    8  A    between atoms: C17_23  and  C18_24
REMARK       I    between atoms: C18_24  and  N4_26
REMARK    9  A    between atoms: N4_26  and  C19_28
REMARK   10  A    between atoms: C19_28  and  C27_36
REMARK   11  A    between atoms: C20_29  and  C21_30
REMARK   12  A    between atoms: C27_36  and  C28_38
REMARK   13  A    between atoms: C28_38  and  O6_40
ROOT
HETATM    1  C10 UNL     1     -18.242   1.941  -1.728  1.00  0.00     0.314 C
HETATM    2  C11 UNL     1     -16.901   1.233  -1.932  1.00  0.00     0.046 C
HETATM    3  C12 UNL     1     -16.855   0.329  -3.095  1.00  0.00     0.014 C
HETATM    4  C13 UNL     1     -17.609   0.769  -4.290  1.00  0.00    -0.014 A
HETATM    5  C14 UNL     1     -16.831   1.018  -5.598  1.00  0.00     0.012 A
HETATM    6  C15 UNL     1     -17.699  -0.156  -5.473  1.00  0.00     0.012 A
HETATM    7  C16 UNL     1     -18.709   1.730  -4.045  1.00  0.00     0.283 C
HETATM    8  N3  UNL     1     -18.580   2.636  -2.949  1.00  0.00     0.111 N
ENDROOT
BRANCH   8   9
HETATM    9  C17 UNL     1     -17.468   3.497  -3.234  1.00  0.00     0.376 C
BRANCH   9  10
HETATM   10  C18 UNL     1     -17.709   4.463  -4.361  1.00  0.00     0.250 C
HETATM   11  O4  UNL     1     -18.726   5.126  -4.310  1.00  0.00    -0.271 OA
HETATM   12  N4  UNL     1     -16.739   4.533  -5.388  1.00  0.00    -0.322 N
ATOM     13  H4  UNL     1     -15.961   3.892  -5.230  1.00  0.00     0.169 HD
BRANCH  12  14
HETATM   14  C19 UNL     1     -16.587   5.272  -6.572  1.00  0.00     0.086 C
HETATM   15  C20 UNL     1     -17.369   5.055  -7.754  1.00  0.00     0.012 C
BRANCH  15  16
HETATM   16  C21 UNL     1     -17.575   3.996  -8.716  1.00  0.00     0.010 C
HETATM   17  C22 UNL     1     -16.839   2.703  -8.583  1.00  0.00     0.008 C
HETATM   18  C23 UNL     1     -17.589   1.686  -9.448  1.00  0.00     0.001 C
HETATM   19  C24 UNL     1     -17.400   2.141 -10.868  1.00  0.00     0.000 C
HETATM   20  C25 UNL     1     -16.705   3.464 -11.007  1.00  0.00     0.001 C
HETATM   21  C26 UNL     1     -17.157   4.559 -10.122  1.00  0.00     0.008 C
ENDBRANCH  15  16
BRANCH  14  22
HETATM   22  C27 UNL     1     -15.244   5.920  -6.636  1.00  0.00     0.245 C
HETATM   23  O5  UNL     1     -14.415   5.487  -7.471  1.00  0.00    -0.282 OA
BRANCH  22  24
HETATM   24  C28 UNL     1     -14.742   7.043  -5.841  1.00  0.00     0.203 C
HETATM   25  N5  UNL     1     -14.366   8.251  -6.408  1.00  0.00    -0.071 NA
BRANCH  24  26
HETATM   26  O6  UNL     1     -15.471   7.210  -4.666  1.00  0.00    -0.345 OA
ATOM     27  H6  UNL     1     -14.922   7.511  -3.952  1.00  0.00     0.219 HD
ENDBRANCH  24  26
ENDBRANCH  22  24
ENDBRANCH  14  22
ENDBRANCH  12  14
ENDBRANCH   9  10
ENDBRANCH   8   9
BRANCH   1  28
HETATM   28  C9  UNL     1     -19.239   1.003  -1.218  1.00  0.00     0.253 C
HETATM   29  N2  UNL     1     -19.219   0.464   0.076  1.00  0.00    -0.347 N
HETATM   30  C8  UNL     1     -20.183  -0.533   0.474  1.00  0.00     0.145 C
HETATM   31  C29 UNL     1     -18.273   0.917   1.052  1.00  0.00     0.145 C
HETATM   32  C7  UNL     1     -19.415  -1.760   1.045  1.00  0.00     0.148 C
HETATM   33  N1  UNL     1     -18.566  -1.305   2.132  1.00  0.00    -0.325 N
HETATM   34  C6  UNL     1     -18.036  -2.226   3.056  1.00  0.00     0.362 C
HETATM   35  C30 UNL     1     -18.247   0.094   2.308  1.00  0.00     0.148 C
HETATM   36  O2  UNL     1     -17.316  -1.752   4.020  1.00  0.00    -0.238 OA
HETATM   37  O3  UNL     1     -20.182   0.643  -1.981  1.00  0.00    -0.271 OA
BRANCH  34  38
HETATM   38  O1  UNL     1     -18.181  -3.584   3.077  1.00  0.00    -0.304 OA
BRANCH  38  39
HETATM   39  C5  UNL     1     -17.229  -4.452   2.566  1.00  0.00     0.180 C
BRANCH  39  40
HETATM   40  C4  UNL     1     -17.395  -4.915   1.165  1.00  0.00     0.027 C
BRANCH  40  41
HETATM   41  C3  UNL     1     -16.390  -4.376   0.185  1.00  0.00     0.002 C
BRANCH  41  42
HETATM   42  C2  UNL     1     -16.916  -4.486  -1.236  1.00  0.00    -0.004 C
HETATM   43  C1  UNL     1     -17.372  -3.128  -1.717  1.00  0.00     0.005 C
ENDBRANCH  41  42
ENDBRANCH  40  41
ENDBRANCH  39  40
ENDBRANCH  38  39
ENDBRANCH  34  38
ENDBRANCH   1  28
TORSDOF 13
ENDMDL