MODEL 5
REMARK VINA RESULT: -8.276344268      3.220      9.751
REMARK  13 active torsions:
REMARK  status: ('A' for Active; 'I' for Inactive)
REMARK    1  A    between atoms: C2_2  and  C3_3
REMARK    2  A    between atoms: C3_3  and  C4_4
REMARK    3  A    between atoms: C4_4  and  C5_5
REMARK    4  A    between atoms: C4_4  and  N1_11
REMARK    5  A    between atoms: C5_5  and  O2_7
REMARK    6  A    between atoms: O2_7  and  C6_8
REMARK    7  A    between atoms: C6_8  and  O3_9
REMARK    8  A    between atoms: C9_15  and  C10_16
REMARK    9  A    between atoms: C10_16  and  C11_17
REMARK   10  A    between atoms: C11_17  and  C12_18
REMARK   11  A    between atoms: C12_18  and  C13_19
REMARK   12  A    between atoms: C13_19  and  C14_20
REMARK   13  A    between atoms: C14_20  and  C15_21
REMARK       I    between atoms: C15_21  and  N2_23
ROOT
HETATM    1  N1  UNL     1     -17.587  -1.098  -1.024  1.00  0.00    -0.190 NA
HETATM    2  C7  UNL     1     -18.399  -0.319  -0.169  1.00  0.00     0.188 C
HETATM    3  C8  UNL     1     -17.617   0.787   0.437  1.00  0.00     0.163 C
HETATM    4  O4  UNL     1     -16.414   0.758   0.322  1.00  0.00    -0.294 OA
HETATM    5  C9  UNL     1     -18.212   1.929   1.176  1.00  0.00     0.155 C
HETATM    6  N3  UNL     1     -19.050   1.494   2.271  1.00  0.00    -0.350 N
ATOM      7  H3  UNL     1     -20.042   1.382   2.067  1.00  0.00     0.163 HD
HETATM    8  C17 UNL     1     -18.648   1.212   3.578  1.00  0.00     0.218 C
HETATM    9  O6  UNL     1     -19.400   1.618   4.524  1.00  0.00    -0.274 OA
HETATM   10  C18 UNL     1     -17.428   0.482   3.989  1.00  0.00     0.103 C
HETATM   11  C19 UNL     1     -17.586  -0.135   5.375  1.00  0.00     0.009 C
HETATM   12  C20 UNL     1     -18.424  -1.389   5.340  1.00  0.00     0.000 C
HETATM   13  C21 UNL     1     -17.806  -2.497   4.545  1.00  0.00     0.000 C
HETATM   14  C22 UNL     1     -17.917  -3.837   5.248  1.00  0.00     0.000 C
HETATM   15  C23 UNL     1     -16.988  -4.792   4.507  1.00  0.00     0.000 C
HETATM   16  C24 UNL     1     -17.705  -5.515   3.394  1.00  0.00     0.000 C
HETATM   17  C25 UNL     1     -16.929  -5.452   2.088  1.00  0.00     0.001 C
HETATM   18  C26 UNL     1     -17.701  -4.732   1.023  1.00  0.00     0.016 C
HETATM   19  C27 UNL     1     -17.040  -3.411   0.630  1.00  0.00     0.157 C
HETATM   20  S1  UNL     1     -17.925  -2.797  -0.777  1.00  0.00     0.212 S
HETATM   21  O7  UNL     1     -19.390  -3.017  -0.560  1.00  0.00    -0.211 OA
HETATM   22  O8  UNL     1     -17.443  -3.532  -1.984  1.00  0.00    -0.211 OA
ENDROOT
BRANCH   1  23
HETATM   23  C4  UNL     1     -17.576  -0.802  -2.438  1.00  0.00     0.174 C
BRANCH  23  24
HETATM   24  C3  UNL     1     -16.577   0.340  -2.684  1.00  0.00     0.030 C
BRANCH  24  25
HETATM   25  C2  UNL     1     -16.767   1.146  -3.896  1.00  0.00    -0.002 C
HETATM   26  C1  UNL     1     -16.094   0.738  -5.149  1.00  0.00     0.005 C
ENDBRANCH  24  25
ENDBRANCH  23  24
BRANCH  23  27
HETATM   27  C5  UNL     1     -18.850  -0.647  -3.098  1.00  0.00     0.279 C
HETATM   28  O1  UNL     1     -19.668   0.308  -2.890  1.00  0.00    -0.263 OA
BRANCH  27  29
HETATM   29  O2  UNL     1     -19.340  -1.563  -4.062  1.00  0.00    -0.294 OA
BRANCH  29  30
HETATM   30  C6  UNL     1     -18.679  -1.776  -5.294  1.00  0.00     0.344 C
BRANCH  30  31
HETATM   31  O3  UNL     1     -19.046  -0.847  -6.260  1.00  0.00    -0.377 OA
ATOM     32  H3  UNL     1     -19.291  -1.256  -7.082  1.00  0.00     0.212 HD
ENDBRANCH  30  31
ENDBRANCH  29  30
ENDBRANCH  27  29
ENDBRANCH  23  27
ENDBRANCH   1  23
BRANCH   5  33
HETATM   33  C10 UNL     1     -17.148   2.904   1.570  1.00  0.00     0.033 C
BRANCH  33  34
HETATM   34  C11 UNL     1     -17.198   4.203   0.829  1.00  0.00     0.002 C
BRANCH  34  35
HETATM   35  C12 UNL     1     -16.680   4.140  -0.578  1.00  0.00     0.001 C
BRANCH  35  36
HETATM   36  C13 UNL     1     -17.340   5.212  -1.399  1.00  0.00     0.009 C
BRANCH  36  37
HETATM   37  C14 UNL     1     -18.708   4.864  -1.882  1.00  0.00     0.103 C
BRANCH  37  38
HETATM   38  C15 UNL     1     -18.758   4.992  -3.350  1.00  0.00     0.217 C
HETATM   39  O5  UNL     1     -18.431   6.064  -3.890  1.00  0.00    -0.274 OA
HETATM   40  N2  UNL     1     -19.177   3.904  -4.134  1.00  0.00    -0.365 N
HETATM   41  C16 UNL     1     -19.226   4.026  -5.564  1.00  0.00     0.149 C
ATOM     42  H2  UNL     1     -19.446   3.027  -3.688  1.00  0.00     0.161 HD
ENDBRANCH  37  38
ENDBRANCH  36  37
ENDBRANCH  35  36
ENDBRANCH  34  35
ENDBRANCH  33  34
ENDBRANCH   5  33
TORSDOF 13
ENDMDL