MODEL 5
REMARK VINA RESULT: -8.685077461      1.263      2.304
REMARK  15 active torsions:
REMARK  status: ('A' for Active; 'I' for Inactive)
REMARK    1  A    between atoms: C2_2  and  O1_3
REMARK    2  A    between atoms: O1_3  and  C3_4
REMARK    3  A    between atoms: C3_4  and  C4_5
REMARK    4  A    between atoms: C4_5  and  C5_6
REMARK    5  A    between atoms: C5_6  and  N1_7
REMARK       I    between atoms: N1_7  and  C6_9
REMARK    6  A    between atoms: C6_9  and  C7_11
REMARK    7  A    between atoms: C9_13  and  N2_14
REMARK       I    between atoms: N2_14  and  C10_16
REMARK    8  A    between atoms: C10_16  and  C11_18
REMARK    9  A    between atoms: C11_18  and  N3_19
REMARK   10  A    between atoms: C11_18  and  C17_28
REMARK       I    between atoms: N3_19  and  C12_21
REMARK   11  A    between atoms: C12_21  and  O5_23
REMARK   12  A    between atoms: O5_23  and  C13_24
REMARK   13  A    between atoms: N4_33  and  C22_34
REMARK       I    between atoms: N5_37  and  C25_38
REMARK   14  A    between atoms: C25_38  and  C26_40
REMARK   15  A    between atoms: C26_40  and  C27_41
ROOT
HETATM    1  C27 UNL     1     -17.413  -2.612   8.749  1.00  0.00     0.133 C
HETATM    2  C28 UNL     1     -16.263  -3.250   8.087  1.00  0.00     0.059 C
HETATM    3  N6  UNL     1     -15.363  -3.768   7.579  1.00  0.00    -0.197 NA
ENDROOT
BRANCH   1   4
HETATM    4  C26 UNL     1     -17.509  -1.215   8.224  1.00  0.00     0.117 C
BRANCH   4   5
HETATM    5  C25 UNL     1     -18.354  -1.099   7.024  1.00  0.00     0.220 C
HETATM    6  N5  UNL     1     -17.805  -0.861   5.740  1.00  0.00    -0.350 N
HETATM    7  C24 UNL     1     -16.368  -0.703   5.484  1.00  0.00     0.128 C
HETATM    8  C29 UNL     1     -18.527  -0.740   4.489  1.00  0.00     0.161 C
HETATM    9  C23 UNL     1     -16.228  -0.800   4.002  1.00  0.00     0.057 C
HETATM   10  C22 UNL     1     -17.508  -0.167   3.498  1.00  0.00     0.243 C
HETATM   11  O6  UNL     1     -19.595  -1.217   7.143  1.00  0.00    -0.273 OA
BRANCH  10  12
HETATM   12  N4  UNL     1     -17.776  -0.580   2.163  1.00  0.00     0.110 N
HETATM   13  C7  UNL     1     -19.098  -0.978   1.853  1.00  0.00     0.316 C
HETATM   14  C8  UNL     1     -19.624  -0.054   0.752  1.00  0.00     0.072 C
HETATM   15  C9  UNL     1     -18.645   1.104   0.859  1.00  0.00     0.115 C
HETATM   16  C21 UNL     1     -17.388   0.361   1.177  1.00  0.00     0.299 C
BRANCH  13  17
HETATM   17  C6  UNL     1     -19.050  -2.349   1.224  1.00  0.00     0.251 C
HETATM   18  N1  UNL     1     -18.544  -3.442   1.945  1.00  0.00    -0.359 N
ATOM     19  H1  UNL     1     -18.212  -3.300   2.899  1.00  0.00     0.162 HD
HETATM   20  O2  UNL     1     -19.463  -2.526   0.052  1.00  0.00    -0.271 OA
BRANCH  18  21
HETATM   21  C5  UNL     1     -18.483  -4.752   1.370  1.00  0.00     0.125 C
BRANCH  21  22
HETATM   22  C4  UNL     1     -17.090  -5.328   1.304  1.00  0.00     0.046 C
BRANCH  22  23
HETATM   23  C3  UNL     1     -16.557  -5.494   2.698  1.00  0.00     0.169 C
BRANCH  23  24
HETATM   24  O1  UNL     1     -17.580  -5.687   3.583  1.00  0.00    -0.391 OA
BRANCH  24  25
HETATM   25  C2  UNL     1     -17.344  -5.340   4.889  1.00  0.00     0.163 C
HETATM   26  C1  UNL     1     -18.543  -4.491   5.334  1.00  0.00     0.033 C
ENDBRANCH  24  25
ENDBRANCH  23  24
ENDBRANCH  22  23
ENDBRANCH  21  22
ENDBRANCH  18  21
ENDBRANCH  13  17
BRANCH  15  27
HETATM   27  N2  UNL     1     -18.590   1.883  -0.343  1.00  0.00    -0.353 N
HETATM   28  C10 UNL     1     -17.408   2.454  -0.870  1.00  0.00     0.241 C
HETATM   29  O3  UNL     1     -16.356   2.222  -0.170  1.00  0.00    -0.271 OA
ATOM     30  H2  UNL     1     -19.460   2.036  -0.851  1.00  0.00     0.163 HD
BRANCH  28  31
HETATM   31  C11 UNL     1     -17.251   3.250  -2.071  1.00  0.00     0.186 C
BRANCH  31  32
HETATM   32  N3  UNL     1     -17.993   2.636  -3.177  1.00  0.00    -0.323 N
HETATM   33  C12 UNL     1     -17.543   1.508  -3.884  1.00  0.00     0.362 C
HETATM   34  O4  UNL     1     -16.456   0.940  -3.615  1.00  0.00    -0.238 OA
ATOM     35  H3  UNL     1     -18.884   3.051  -3.448  1.00  0.00     0.165 HD
BRANCH  33  36
HETATM   36  O5  UNL     1     -18.294   0.981  -4.915  1.00  0.00    -0.294 OA
BRANCH  36  37
HETATM   37  C13 UNL     1     -18.122   1.427  -6.246  1.00  0.00     0.061 C
HETATM   38  C14 UNL     1     -18.955   0.535  -7.141  1.00  0.00     0.046 C
HETATM   39  C15 UNL     1     -16.705   1.372  -6.706  1.00  0.00     0.046 C
HETATM   40  C16 UNL     1     -18.633   2.844  -6.425  1.00  0.00     0.046 C
ENDBRANCH  36  37
ENDBRANCH  33  36
ENDBRANCH  31  32
BRANCH  31  41
HETATM   41  C17 UNL     1     -17.565   4.712  -1.964  1.00  0.00    -0.022 C
HETATM   42  C18 UNL     1     -18.887   5.099  -2.536  1.00  0.00     0.017 C
HETATM   43  C19 UNL     1     -17.323   5.199  -0.579  1.00  0.00     0.017 C
HETATM   44  C20 UNL     1     -16.518   5.452  -2.834  1.00  0.00     0.017 C
ENDBRANCH  31  41
ENDBRANCH  28  31
ENDBRANCH  15  27
ENDBRANCH  10  12
ENDBRANCH   4   5
ENDBRANCH   1   4
TORSDOF 15
ENDMDL