MODEL 3
REMARK VINA RESULT: -8.163491994      3.192      9.209
REMARK  14 active torsions:
REMARK  status: ('A' for Active; 'I' for Inactive)
REMARK    1  A    between atoms: C2_2  and  C3_3
REMARK    2  A    between atoms: C2_2  and  C5_5
REMARK       I    between atoms: C5_5  and  N1_7
REMARK    3  A    between atoms: N1_7  and  C6_9
REMARK    4  A    between atoms: C6_9  and  C7_10
REMARK    5  A    between atoms: C7_10  and  C8_11
REMARK    6  A    between atoms: C7_10  and  C19_24
REMARK       I    between atoms: C8_11  and  N2_13
REMARK    7  A    between atoms: C19_24  and  N3_25
REMARK    8  A    between atoms: C19_24  and  N5_34
REMARK       I    between atoms: N3_25  and  C20_27
REMARK    9  A    between atoms: C20_27  and  C21_29
REMARK   10  A    between atoms: C21_29  and  N4_30
REMARK       I    between atoms: N5_34  and  C23_36
REMARK   11  A    between atoms: C23_36  and  O5_38
REMARK   12  A    between atoms: O5_38  and  C24_39
REMARK   13  A    between atoms: C24_39  and  C25_40
REMARK   14  A    between atoms: C25_40  and  C26_41
ROOT
HETATM    1  C7  UNL     1     -17.879  -2.534   1.974  1.00  0.00     0.047 C
ENDROOT
BRANCH   1   2
HETATM    2  C6  UNL     1     -17.591  -3.045   3.342  1.00  0.00     0.167 C
BRANCH   2   3
HETATM    3  N1  UNL     1     -17.672  -2.013   4.360  1.00  0.00    -0.353 N
HETATM    4  C5  UNL     1     -18.545  -2.124   5.464  1.00  0.00     0.247 C
HETATM    5  O1  UNL     1     -19.270  -3.151   5.539  1.00  0.00    -0.268 OA
ATOM      6  H1  UNL     1     -17.081  -1.186   4.276  1.00  0.00     0.163 HD
BRANCH   4   7
HETATM    7  C2  UNL     1     -18.656  -1.129   6.511  1.00  0.00    -0.000 C
HETATM    8  C1  UNL     1     -18.781   0.163   6.230  1.00  0.00     0.024 C
BRANCH   7   9
HETATM    9  C3  UNL     1     -18.645  -1.555   7.930  1.00  0.00     0.039 C
HETATM   10  C4  UNL     1     -17.495  -0.912   8.681  1.00  0.00     0.010 C
ENDBRANCH   7   9
ENDBRANCH   4   7
ENDBRANCH   2   3
ENDBRANCH   1   2
BRANCH   1  11
HETATM   11  C8  UNL     1     -18.337  -1.145   1.886  1.00  0.00     0.251 C
HETATM   12  O2  UNL     1     -19.491  -0.807   2.278  1.00  0.00    -0.268 OA
HETATM   13  N2  UNL     1     -17.536  -0.067   1.366  1.00  0.00    -0.348 N
HETATM   14  C9  UNL     1     -16.200  -0.231   0.845  1.00  0.00     0.126 C
HETATM   15  C18 UNL     1     -18.044   1.287   1.343  1.00  0.00     0.135 C
HETATM   16  C10 UNL     1     -16.320   0.155  -0.639  1.00  0.00     0.021 C
HETATM   17  C11 UNL     1     -16.554   1.636  -0.659  1.00  0.00     0.012 C
HETATM   18  C12 UNL     1     -17.763   2.068   0.112  1.00  0.00    -0.024 C
HETATM   19  C13 UNL     1     -18.938   2.065  -0.847  1.00  0.00     0.011 C
HETATM   20  C17 UNL     1     -17.529   3.513   0.517  1.00  0.00     0.011 C
HETATM   21  C14 UNL     1     -19.818   3.267  -0.683  1.00  0.00     0.001 C
HETATM   22  C15 UNL     1     -19.129   4.573  -0.967  1.00  0.00     0.000 C
HETATM   23  C16 UNL     1     -17.651   4.422  -0.705  1.00  0.00     0.001 C
ENDBRANCH   1  11
BRANCH   1  24
HETATM   24  C19 UNL     1     -18.566  -3.448   1.016  1.00  0.00     0.228 C
BRANCH  24  25
HETATM   25  N3  UNL     1     -19.444  -4.426   1.577  1.00  0.00    -0.334 N
HETATM   26  C20 UNL     1     -19.115  -5.539   2.379  1.00  0.00     0.244 C
HETATM   27  O3  UNL     1     -17.916  -5.740   2.662  1.00  0.00    -0.272 OA
ATOM     28  H3  UNL     1     -20.436  -4.304   1.371  1.00  0.00     0.164 HD
BRANCH  26  29
HETATM   29  C21 UNL     1     -20.093  -6.507   2.924  1.00  0.00     0.332 C
BRANCH  29  30
HETATM   30  N4  UNL     1     -20.998  -5.955   3.890  1.00  0.00    -0.071 N
ATOM     31  H43 UNL     1     -20.890  -4.942   3.939  1.00  0.00     0.274 HD
ATOM     32  H42 UNL     1     -21.958  -6.013   3.552  1.00  0.00     0.274 HD
ATOM     33  H41 UNL     1     -20.922  -6.367   4.821  1.00  0.00     0.274 HD
ENDBRANCH  29  30
ENDBRANCH  26  29
ENDBRANCH  24  25
BRANCH  24  34
HETATM   34  N5  UNL     1     -17.675  -3.987   0.013  1.00  0.00    -0.307 N
HETATM   35  C22 UNL     1     -16.732  -5.071   0.314  1.00  0.00     0.157 C
HETATM   36  C23 UNL     1     -17.688  -3.490  -1.299  1.00  0.00     0.364 C
HETATM   37  O4  UNL     1     -16.887  -3.951  -2.164  1.00  0.00    -0.238 OA
BRANCH  36  38
HETATM   38  O5  UNL     1     -18.533  -2.489  -1.760  1.00  0.00    -0.304 OA
BRANCH  38  39
HETATM   39  C24 UNL     1     -18.504  -2.066  -3.116  1.00  0.00     0.185 C
BRANCH  39  40
HETATM   40  C25 UNL     1     -18.825  -0.617  -3.275  1.00  0.00     0.074 C
BRANCH  40  41
HETATM   41  C26 UNL     1     -17.997  -0.008  -4.377  1.00  0.00     0.001 A
HETATM   42  C27 UNL     1     -16.813   0.678  -4.245  1.00  0.00     0.102 A
HETATM   43  N6  UNL     1     -16.254   1.119  -5.328  1.00  0.00    -0.368 N
HETATM   44  C28 UNL     1     -16.825   0.899  -6.501  1.00  0.00     0.138 A
ATOM     45  H6  UNL     1     -15.375   1.633  -5.276  1.00  0.00     0.165 HD
HETATM   46  S1  UNL     1     -18.228   0.027  -6.066  1.00  0.00    -0.088 SA
ENDBRANCH  40  41
ENDBRANCH  39  40
ENDBRANCH  38  39
ENDBRANCH  36  38
ENDBRANCH  24  34
ENDBRANCH   1  24
TORSDOF 14
ENDMDL