MODEL 5
REMARK VINA RESULT: -5.275431896      2.293      2.971
REMARK  8 active torsions:
REMARK  status: ('A' for Active; 'I' for Inactive)
REMARK    1  A    between atoms: C2_2  and  C4_4
REMARK    2  A    between atoms: C4_4  and  N1_5
REMARK    3  A    between atoms: N1_5  and  C5_6
REMARK    4  A    between atoms: N1_5  and  C10_19
REMARK    5  A    between atoms: C5_6  and  C6_7
REMARK    6  A    between atoms: C8_10  and  N2_11
REMARK    7  A    between atoms: C9_14  and  S2_15
REMARK    8  A    between atoms: C10_19  and  C11_20
ROOT
HETATM    1  C5  UNL     1      13.487  11.802  31.229  1.00  0.00     0.120 C
ENDROOT
BRANCH   1   2
HETATM    2  N1  UNL     1      14.146  11.517  30.049  1.00  0.00    -0.367 N
BRANCH   2   3
HETATM    3  C4  UNL     1      15.571  11.725  30.059  1.00  0.00     0.131 C
BRANCH   3   4
HETATM    4  C2  UNL     1      16.337  10.484  30.557  1.00  0.00    -0.004 C
HETATM    5  C1  UNL     1      17.107  10.919  31.786  1.00  0.00     0.011 C
HETATM    6  C3  UNL     1      17.350  10.080  29.507  1.00  0.00     0.011 C
ENDBRANCH   3   4
ENDBRANCH   2   3
BRANCH   2   7
HETATM    7  C10 UNL     1      13.556  11.296  28.826  1.00  0.00     0.068 C
BRANCH   7   8
HETATM    8  C11 UNL     1      12.304  11.973  28.426  1.00  0.00     0.028 C
HETATM    9  C12 UNL     1      11.499  11.354  27.337  1.00  0.00     0.036 C
HETATM   10  C13 UNL     1      10.248  12.229  27.162  1.00  0.00     0.168 C
HETATM   11  O1  UNL     1      10.123  13.130  28.199  1.00  0.00    -0.391 OA
HETATM   12  C14 UNL     1      11.133  14.084  28.086  1.00  0.00     0.168 C
HETATM   13  C15 UNL     1      12.509  13.425  28.058  1.00  0.00     0.036 C
ENDBRANCH   7   8
ENDBRANCH   2   7
ENDBRANCH   1   2
BRANCH   1  14
HETATM   14  C6  UNL     1      13.644  13.119  31.875  1.00  0.00     0.055 A
HETATM   15  C7  UNL     1      14.492  13.198  32.991  1.00  0.00     0.082 A
HETATM   16  S1  UNL     1      14.638  14.728  33.724  1.00  0.00    -0.080 SA
HETATM   17  C8  UNL     1      13.694  15.909  32.934  1.00  0.00     0.102 A
HETATM   18  C9  UNL     1      12.981  15.436  31.852  1.00  0.00     0.119 A
HETATM   19  N3  UNL     1      12.985  14.180  31.407  1.00  0.00    -0.346 N
ATOM     20  H3  UNL     1      12.399  14.004  30.592  1.00  0.00     0.167 HD
BRANCH  17  21
HETATM   21  N2  UNL     1      13.630  17.158  33.300  1.00  0.00    -0.391 N
ATOM     22  H22 UNL     1      14.455  17.663  33.625  1.00  0.00     0.157 HD
ATOM     23  H21 UNL     1      12.775  17.714  33.290  1.00  0.00     0.157 HD
ENDBRANCH  17  21
BRANCH  18  24
HETATM   24  S2  UNL     1      12.038  16.531  31.039  1.00  0.00     0.002 SA
HETATM   25 CL1  UNL     1      10.268  17.210  31.959  1.00  0.00    -0.037 Cl
ENDBRANCH  18  24
ENDBRANCH   1  14
TORSDOF 8
ENDMDL