MODEL 2
REMARK VINA RESULT: -5.343950345      0.851      1.044
REMARK  8 active torsions:
REMARK  status: ('A' for Active; 'I' for Inactive)
REMARK    1  A    between atoms: C2_2  and  C3_3
REMARK    2  A    between atoms: C3_3  and  N1_4
REMARK    3  A    between atoms: N1_4  and  N2_5
REMARK    4  A    between atoms: N1_4  and  C9_13
REMARK       I    between atoms: N2_5  and  C4_7
REMARK    5  A    between atoms: C4_7  and  C5_9
REMARK    6  A    between atoms: C10_16  and  N4_17
REMARK    7  A    between atoms: N4_17  and  C11_19
REMARK    8  A    between atoms: C11_19  and  C14_22
ROOT
HETATM    1  C9  UNL     1      13.439  12.563  30.188  1.00  0.00     0.197 A
HETATM    2  N3  UNL     1      13.202  13.138  31.344  1.00  0.00    -0.167 N
ATOM      3  H3  UNL     1      12.317  13.619  31.501  1.00  0.00     0.186 HD
HETATM    4  C10 UNL     1      14.093  13.095  32.291  1.00  0.00     0.687 A
HETATM    5  N5  UNL     1      15.234  12.455  32.039  1.00  0.00    -0.157 N
ATOM      6  H5  UNL     1      16.041  12.318  32.648  1.00  0.00     0.193 HD
HETATM    7  S1  UNL     1      14.998  11.924  30.433  1.00  0.00     0.040 SA
ENDROOT
BRANCH   1   8
HETATM    8  N1  UNL     1      12.569  12.524  29.064  1.00  0.00    -0.267 N
BRANCH   8   9
HETATM    9  C3  UNL     1      11.864  13.692  28.654  1.00  0.00     0.151 C
BRANCH   9  10
HETATM   10  C2  UNL     1      10.356  13.479  28.639  1.00  0.00     0.017 C
HETATM   11  C1  UNL     1       9.792  14.146  29.872  1.00  0.00     0.007 C
ENDBRANCH   9  10
ENDBRANCH   8   9
BRANCH   8  12
HETATM   12  N2  UNL     1      12.406  11.327  28.364  1.00  0.00    -0.265 N
HETATM   13  C4  UNL     1      12.855  11.084  27.064  1.00  0.00     0.243 C
HETATM   14  O1  UNL     1      13.452  11.969  26.426  1.00  0.00    -0.271 OA
ATOM     15  H2  UNL     1      11.918  10.569  28.840  1.00  0.00     0.190 HD
BRANCH  13  16
HETATM   16  C5  UNL     1      12.627   9.765  26.438  1.00  0.00     0.032 C
HETATM   17  C6  UNL     1      11.140   9.569  26.216  1.00  0.00     0.025 C
HETATM   18  C7  UNL     1      13.275   8.689  27.243  1.00  0.00     0.025 C
HETATM   19  C8  UNL     1      13.265   9.783  25.040  1.00  0.00     0.025 C
ENDBRANCH  13  16
ENDBRANCH   8  12
ENDBRANCH   1   8
BRANCH   4  20
HETATM   20  N4  UNL     1      13.835  13.673  33.417  1.00  0.00    -0.217 N
ATOM     21  H4  UNL     1      13.232  13.147  34.050  1.00  0.00     0.178 HD
BRANCH  20  22
HETATM   22  C11 UNL     1      14.267  14.928  33.899  1.00  0.00     0.039 C
HETATM   23  C12 UNL     1      15.439  14.625  34.861  1.00  0.00     0.038 C
HETATM   24  C13 UNL     1      14.839  15.796  32.836  1.00  0.00     0.038 C
BRANCH  22  25
HETATM   25  C14 UNL     1      13.178  15.582  34.712  1.00  0.00     0.026 C
HETATM   26  C15 UNL     1      12.795  14.891  35.966  1.00  0.00     0.007 C
ENDBRANCH  22  25
ENDBRANCH  20  22
ENDBRANCH   4  20
TORSDOF 8
ENDMDL