MODEL 2
REMARK VINA RESULT: -6.233167476      2.452      4.569
REMARK  8 active torsions:
REMARK  status: ('A' for Active; 'I' for Inactive)
REMARK    1  A    between atoms: N1_1  and  C1_5
REMARK    2  A    between atoms: C1_5  and  O1_6
REMARK    3  A    between atoms: C1_5  and  C2_8
REMARK    4  A    between atoms: N2_10  and  C4_11
REMARK    5  A    between atoms: C11_18  and  O2_19
REMARK    6  A    between atoms: O2_19  and  C12_20
REMARK    7  A    between atoms: C12_20  and  C13_21
REMARK    8  A    between atoms: C13_21  and  N3_22
ROOT
HETATM    1  C2  UNL     1      15.729  10.948  30.482  1.00  0.00     0.025 A
HETATM    2  C3  UNL     1      15.392  12.029  31.298  1.00  0.00     0.104 A
HETATM    3  N2  UNL     1      14.244  12.576  30.881  1.00  0.00    -0.351 N
HETATM    4  C9  UNL     1      13.814  11.870  29.796  1.00  0.00     0.048 A
HETATM    5  C10 UNL     1      12.709  12.009  29.002  1.00  0.00     0.070 A
HETATM    6  C11 UNL     1      12.499  11.151  27.952  1.00  0.00     0.109 A
HETATM    7  C17 UNL     1      13.389  10.140  27.678  1.00  0.00     0.150 A
HETATM    8  F1  UNL     1      13.119   9.331  26.626  1.00  0.00    -0.203 F
HETATM    9  C18 UNL     1      14.509   9.992  28.476  1.00  0.00     0.059 A
HETATM   10  C19 UNL     1      14.731  10.849  29.535  1.00  0.00     0.006 A
ENDROOT
BRANCH   1  11
HETATM   11  C1  UNL     1      16.936  10.093  30.624  1.00  0.00     0.352 C
BRANCH  11  12
HETATM   12  N1  UNL     1      17.748  10.719  31.686  1.00  0.00    -0.049 N
ATOM     13  H13 UNL     1      18.754  10.677  31.518  1.00  0.00     0.277 HD
ATOM     14  H12 UNL     1      17.678  11.736  31.716  1.00  0.00     0.277 HD
ATOM     15  H11 UNL     1      17.454  10.259  32.547  1.00  0.00     0.277 HD
ENDBRANCH  11  12
BRANCH  11  16
HETATM   16  O1  UNL     1      17.750  10.090  29.510  1.00  0.00    -0.366 OA
ATOM     17  H1  UNL     1      18.493   9.550  29.753  1.00  0.00     0.212 HD
ENDBRANCH  11  16
ENDBRANCH   1  11
BRANCH   3  18
HETATM   18  C4  UNL     1      13.558  13.710  31.455  1.00  0.00     0.089 C
HETATM   19  C5  UNL     1      13.999  13.988  32.870  1.00  0.00     0.026 C
HETATM   20  C6  UNL     1      14.102  15.491  33.011  1.00  0.00     0.002 C
HETATM   21  C7  UNL     1      13.531  16.031  31.705  1.00  0.00     0.002 C
HETATM   22  C8  UNL     1      13.999  14.965  30.729  1.00  0.00     0.026 C
ENDBRANCH   3  18
BRANCH   6  23
HETATM   23  O2  UNL     1      11.379  11.310  27.165  1.00  0.00    -0.346 OA
BRANCH  23  24
HETATM   24  C12 UNL     1      10.610  12.487  27.280  1.00  0.00     0.206 C
BRANCH  24  25
HETATM   25  C13 UNL     1       9.378  12.302  26.415  1.00  0.00     0.299 C
BRANCH  25  26
HETATM   26  N3  UNL     1       8.291  13.044  27.065  1.00  0.00     0.090 N
HETATM   27  C14 UNL     1       6.989  12.431  26.870  1.00  0.00     0.274 C
HETATM   28  C15 UNL     1       7.249  11.597  28.107  1.00  0.00     0.060 C
HETATM   29  C16 UNL     1       8.189  12.715  28.475  1.00  0.00     0.274 C
ENDBRANCH  25  26
ENDBRANCH  24  25
ENDBRANCH  23  24
ENDBRANCH   6  23
TORSDOF 8
ENDMDL