MODEL 5
REMARK VINA RESULT: -6.290683428      4.602      7.460
REMARK  6 active torsions:
REMARK  status: ('A' for Active; 'I' for Inactive)
REMARK    1  A    between atoms: C2_2  and  C4_4
REMARK    2  A    between atoms: C5_7  and  C6_8
REMARK    3  A    between atoms: N2_12  and  C10_13
REMARK    4  A    between atoms: C10_13  and  C11_14
REMARK    5  A    between atoms: C15_19  and  N3_20
REMARK       I    between atoms: N3_20  and  C16_22
REMARK    6  A    between atoms: C16_22  and  C17_24
ROOT
HETATM    1  C4  UNL     1      14.230  12.306  31.131  1.00  0.00     0.066 A
HETATM    2  N1  UNL     1      15.039  12.769  32.159  1.00  0.00    -0.339 N
ATOM      3  H1  UNL     1      15.882  12.321  32.519  1.00  0.00     0.167 HD
HETATM    4  C5  UNL     1      14.499  13.919  32.588  1.00  0.00     0.135 A
HETATM    5  O1  UNL     1      13.447  14.163  31.898  1.00  0.00    -0.278 OA
HETATM    6  C15 UNL     1      13.237  13.184  30.974  1.00  0.00     0.175 A
ENDROOT
BRANCH   4   7
HETATM    7  C6  UNL     1      15.121  14.703  33.709  1.00  0.00     0.099 C
HETATM    8  C7  UNL     1      14.998  16.150  33.322  1.00  0.00     0.020 C
HETATM    9  C8  UNL     1      15.026  17.067  34.496  1.00  0.00     0.021 C
HETATM   10  C9  UNL     1      13.848  16.644  35.392  1.00  0.00     0.127 C
HETATM   11  N2  UNL     1      14.162  15.354  35.875  1.00  0.00    -0.373 N
HETATM   12  C14 UNL     1      14.385  14.320  34.957  1.00  0.00     0.076 C
BRANCH  11  13
HETATM   13  C10 UNL     1      13.397  14.978  36.995  1.00  0.00     0.067 C
BRANCH  13  14
HETATM   14  C11 UNL     1      12.176  14.195  36.699  1.00  0.00     0.024 A
HETATM   15  C12 UNL     1      11.519  13.533  37.863  1.00  0.00     0.010 A
HETATM   16  C13 UNL     1      10.790  14.595  37.095  1.00  0.00     0.010 A
ENDBRANCH  13  14
ENDBRANCH  11  13
ENDBRANCH   4   7
BRANCH   1  17
HETATM   17  C2  UNL     1      14.546  11.065  30.477  1.00  0.00     0.032 C
HETATM   18  C1  UNL     1      14.105  11.142  28.967  1.00  0.00     0.016 C
HETATM   19  C3  UNL     1      16.081  10.989  30.327  1.00  0.00     0.016 C
ENDBRANCH   1  17
BRANCH   6  20
HETATM   20  N3  UNL     1      12.153  13.269  30.131  1.00  0.00    -0.303 N
HETATM   21  C16 UNL     1      11.009  14.004  29.985  1.00  0.00     0.263 C
HETATM   22  O2  UNL     1      10.635  14.917  30.722  1.00  0.00    -0.269 OA
ATOM     23  H3  UNL     1      12.223  12.571  29.391  1.00  0.00     0.171 HD
BRANCH  21  24
HETATM   24  C17 UNL     1      10.063  13.733  28.837  1.00  0.00     0.176 C
HETATM   25  C18 UNL     1      10.648  12.714  27.882  1.00  0.00     0.062 C
HETATM   26  C19 UNL     1       9.872  15.056  28.131  1.00  0.00     0.062 C
HETATM   27  F1  UNL     1       8.848  13.317  29.279  1.00  0.00    -0.233 F
ENDBRANCH  21  24
ENDBRANCH   6  20
TORSDOF 6
ENDMDL