MODEL 4
REMARK VINA RESULT: -6.396772038      2.939      4.653
REMARK  8 active torsions:
REMARK  status: ('A' for Active; 'I' for Inactive)
REMARK    1  A    between atoms: N3_7  and  C4_8
REMARK    2  A    between atoms: C4_8  and  C5_9
REMARK    3  A    between atoms: C8_12  and  N4_13
REMARK    4  A    between atoms: N4_13  and  C9_15
REMARK    5  A    between atoms: C9_15  and  C10_16
REMARK    6  A    between atoms: C13_20  and  O1_21
REMARK    7  A    between atoms: O1_21  and  C14_22
REMARK    8  A    between atoms: C19_27  and  O2_28
ROOT
HETATM    1  N1  UNL     1      14.644  17.696  34.687  1.00  0.00    -0.191 NA
HETATM    2  C1  UNL     1      14.680  16.577  34.313  1.00  0.00     0.104 C
HETATM    3  C2  UNL     1      14.681  15.194  33.877  1.00  0.00     0.106 A
HETATM    4  C3  UNL     1      15.450  14.185  34.364  1.00  0.00     0.134 A
HETATM    5  N2  UNL     1      15.091  13.089  33.697  1.00  0.00    -0.306 N
ATOM      6  H2  UNL     1      15.501  12.168  33.851  1.00  0.00     0.186 HD
HETATM    7  N3  UNL     1      14.148  13.333  32.817  1.00  0.00    -0.276 N
HETATM    8  C8  UNL     1      13.837  14.640  32.884  1.00  0.00     0.141 A
ENDROOT
BRANCH   8   9
HETATM    9  N4  UNL     1      12.975  15.344  32.300  1.00  0.00    -0.369 N
ATOM     10  H4  UNL     1      12.109  15.385  32.836  1.00  0.00     0.161 HD
BRANCH   9  11
HETATM   11  C9  UNL     1      12.871  16.093  31.110  1.00  0.00     0.162 C
BRANCH  11  12
HETATM   12  C10 UNL     1      11.911  15.191  30.310  1.00  0.00    -0.004 A
HETATM   13  C11 UNL     1      12.379  14.549  29.206  1.00  0.00     0.056 A
HETATM   14  C12 UNL     1      11.488  13.763  28.456  1.00  0.00     0.150 A
HETATM   15  F1  UNL     1      11.938  13.115  27.382  1.00  0.00    -0.203 F
HETATM   16  C13 UNL     1      10.159  13.619  28.794  1.00  0.00     0.110 A
HETATM   17  C18 UNL     1       9.733  14.294  29.939  1.00  0.00     0.077 A
HETATM   18  C19 UNL     1      10.602  15.070  30.688  1.00  0.00     0.076 A
BRANCH  16  19
HETATM   19  O1  UNL     1       9.327  12.865  27.989  1.00  0.00    -0.343 OA
BRANCH  19  20
HETATM   20  C14 UNL     1       7.932  12.955  27.997  1.00  0.00     0.129 C
HETATM   21  C15 UNL     1       7.415  12.712  26.599  1.00  0.00     0.032 C
HETATM   22  C16 UNL     1       7.599  11.205  26.936  1.00  0.00     0.005 C
HETATM   23  C17 UNL     1       7.290  11.606  28.360  1.00  0.00     0.032 C
ENDBRANCH  19  20
ENDBRANCH  16  19
BRANCH  18  24
HETATM   24  O2  UNL     1      10.170  15.723  31.808  1.00  0.00    -0.360 OA
ATOM     25  H2  UNL     1       9.246  15.928  31.897  1.00  0.00     0.217 HD
ENDBRANCH  18  24
ENDBRANCH  11  12
ENDBRANCH   9  11
ENDBRANCH   8   9
BRANCH   7  26
HETATM   26  C4  UNL     1      13.677  12.360  31.844  1.00  0.00     0.155 C
BRANCH  26  27
HETATM   27  C5  UNL     1      14.647  12.232  30.692  1.00  0.00     0.005 A
HETATM   28  C6  UNL     1      15.728  11.207  30.685  1.00  0.00     0.007 A
HETATM   29  C7  UNL     1      14.540  11.246  29.634  1.00  0.00     0.007 A
ENDBRANCH  26  27
ENDBRANCH   7  26
TORSDOF 8
ENDMDL