MODEL 2
REMARK VINA RESULT: -5.442489834      1.623      1.895
REMARK  8 active torsions:
REMARK  status: ('A' for Active; 'I' for Inactive)
REMARK    1  A    between atoms: C7_9  and  C8_10
REMARK    2  A    between atoms: C7_9  and  C14_17
REMARK    3  A    between atoms: C8_10  and  C9_11
REMARK    4  A    between atoms: C10_12  and  C11_13
REMARK    5  A    between atoms: C11_13  and  C12_14
REMARK    6  A    between atoms: C12_14  and  C13_15
REMARK    7  A    between atoms: C14_17  and  O3_18
REMARK    8  A    between atoms: N1_20  and  O4_22
ROOT
HETATM    1  C1  UNL     1      15.165  17.406  34.156  1.00  0.00     0.027 C
HETATM    2  C2  UNL     1      13.959  16.663  34.595  1.00  0.00     0.056 C
HETATM    3  C3  UNL     1      12.775  17.026  33.744  1.00  0.00     0.027 C
HETATM    4  C4  UNL     1      13.649  17.072  35.990  1.00  0.00     0.268 C
HETATM    5  O1  UNL     1      14.096  18.149  36.491  1.00  0.00    -0.264 OA
HETATM    6  O2  UNL     1      12.856  16.255  36.745  1.00  0.00    -0.321 OA
HETATM    7  C5  UNL     1      12.266  15.092  36.272  1.00  0.00     0.180 C
HETATM    8  C6  UNL     1      12.898  14.477  35.089  1.00  0.00     0.046 C
HETATM    9  C7  UNL     1      14.112  15.148  34.560  1.00  0.00     0.048 C
ENDROOT
BRANCH   9  10
HETATM   10  C8  UNL     1      14.264  14.730  33.101  1.00  0.00     0.046 C
BRANCH  10  11
HETATM   11  C9  UNL     1      14.165  13.296  32.849  1.00  0.00    -0.029 C
HETATM   12  C10 UNL     1      13.814  12.744  31.703  1.00  0.00    -0.031 C
BRANCH  12  13
HETATM   13  C11 UNL     1      13.454  13.442  30.459  1.00  0.00     0.027 C
BRANCH  13  14
HETATM   14  C12 UNL     1      11.959  13.643  30.315  1.00  0.00     0.014 C
BRANCH  14  15
HETATM   15  C13 UNL     1      11.591  15.106  30.453  1.00  0.00     0.085 C
HETATM   16 BR1  UNL     1      13.117  16.120  29.789  1.00  0.00    -0.097 Br
ENDBRANCH  14  15
ENDBRANCH  13  14
ENDBRANCH  12  13
ENDBRANCH  10  11
ENDBRANCH   9  10
BRANCH   9  17
HETATM   17  C14 UNL     1      15.281  14.715  35.350  1.00  0.00     0.145 C
HETATM   18  N1  UNL     1      15.161  14.134  36.497  1.00  0.00    -0.250 N
ATOM     19  H1  UNL     1      14.220  13.976  36.855  1.00  0.00     0.196 HD
BRANCH  17  20
HETATM   20  O3  UNL     1      16.549  14.938  34.848  1.00  0.00    -0.347 OA
ATOM     21  H3  UNL     1      16.664  15.578  34.155  1.00  0.00     0.219 HD
ENDBRANCH  17  20
BRANCH  18  22
HETATM   22  O4  UNL     1      16.202  13.722  37.255  1.00  0.00    -0.288 OA
ATOM     23  H4  UNL     1      16.832  13.064  36.987  1.00  0.00     0.244 HD
ENDBRANCH  18  22
ENDBRANCH   9  17
TORSDOF 8
ENDMDL