MODEL 3
REMARK VINA RESULT: -5.462951311      1.044      1.129
REMARK  7 active torsions:
REMARK  status: ('A' for Active; 'I' for Inactive)
REMARK    1  A    between atoms: C2_2  and  C4_4
REMARK    2  A    between atoms: C4_4  and  C5_5
REMARK    3  A    between atoms: C6_7  and  S1_8
REMARK    4  A    between atoms: C9_15  and  C10_16
REMARK       I    between atoms: C10_16  and  N3_18
REMARK    5  A    between atoms: N3_18  and  C11_20
REMARK    6  A    between atoms: C11_20  and  C12_21
REMARK    7  A    between atoms: C12_21  and  N4_22
ROOT
HETATM    1  S1  UNL     1      16.289  11.225  31.353  1.00  0.00     0.034 SA
HETATM    2  C7  UNL     1      17.351  10.358  30.197  1.00  0.00     0.142 C
HETATM    3  N1  UNL     1      18.022   9.792  29.436  1.00  0.00    -0.184 NA
ENDROOT
BRANCH   1   4
HETATM    4  C6  UNL     1      14.948  11.950  30.701  1.00  0.00     0.203 A
HETATM    5  O1  UNL     1      14.267  11.407  29.749  1.00  0.00    -0.290 OA
HETATM    6  C5  UNL     1      13.191  12.038  29.261  1.00  0.00     0.075 A
HETATM    7  C9  UNL     1      12.756  13.259  29.725  1.00  0.00     0.099 A
HETATM    8  C8  UNL     1      13.523  13.811  30.756  1.00  0.00     0.121 A
HETATM    9  N2  UNL     1      14.606  13.135  31.220  1.00  0.00    -0.320 N
HETATM   10  S2  UNL     1      13.159  15.267  31.358  1.00  0.00    -0.059 SA
ATOM     11  H2  UNL     1      15.166  13.536  31.972  1.00  0.00     0.169 HD
BRANCH   6  12
HETATM   12  C4  UNL     1      12.432  11.377  28.159  1.00  0.00     0.070 C
BRANCH  12  13
HETATM   13  C2  UNL     1      13.318  10.650  27.186  1.00  0.00    -0.017 C
HETATM   14  C1  UNL     1      12.829   9.234  26.972  1.00  0.00     0.010 C
HETATM   15  C3  UNL     1      13.224  11.370  25.835  1.00  0.00     0.010 C
ENDBRANCH  12  13
ENDBRANCH   6  12
BRANCH   7  16
HETATM   16  C10 UNL     1      11.621  13.996  29.190  1.00  0.00     0.257 C
HETATM   17  O2  UNL     1      11.875  14.776  28.201  1.00  0.00    -0.267 OA
HETATM   18  N3  UNL     1      10.300  13.898  29.678  1.00  0.00    -0.355 N
ATOM     19  H3  UNL     1      10.068  13.278  30.454  1.00  0.00     0.162 HD
BRANCH  18  20
HETATM   20  C11 UNL     1       9.277  14.714  29.036  1.00  0.00     0.153 C
BRANCH  20  21
HETATM   21  C12 UNL     1       8.064  13.945  28.674  1.00  0.00     0.291 C
BRANCH  21  22
HETATM   22  N4  UNL     1       8.442  12.718  28.027  1.00  0.00     0.081 N
HETATM   23  C13 UNL     1       8.716  12.940  26.628  1.00  0.00     0.309 C
HETATM   24  C14 UNL     1       7.341  11.780  28.122  1.00  0.00     0.309 C
ENDBRANCH  21  22
ENDBRANCH  20  21
ENDBRANCH  18  20
ENDBRANCH   7  16
ENDBRANCH   1   4
TORSDOF 7
ENDMDL