MODEL 2
REMARK VINA RESULT: -7.355111507      0.805      1.049
REMARK  7 active torsions:
REMARK  status: ('A' for Active; 'I' for Inactive)
REMARK    1  A    between atoms: C2_2  and  C3_3
REMARK    2  A    between atoms: C3_3  and  C4_4
REMARK    3  A    between atoms: C4_4  and  C5_5
REMARK    4  A    between atoms: C6_8  and  C7_9
REMARK    5  A    between atoms: C11_16  and  C12_17
REMARK    6  A    between atoms: C12_17  and  O2_18
REMARK    7  A    between atoms: C12_17  and  C13_20
ROOT
HETATM    1  C7  UNL     1      14.436  12.712  31.424  1.00  0.00     0.051 A
HETATM    2  C8  UNL     1      13.329  12.924  30.645  1.00  0.00     0.049 A
HETATM    3  C9  UNL     1      13.045  12.201  29.502  1.00  0.00     0.047 A
HETATM    4  N2  UNL     1      11.969  12.417  28.742  1.00  0.00    -0.322 N
ATOM      5  H2  UNL     1      11.313  13.146  29.023  1.00  0.00     0.169 HD
HETATM    6  C10 UNL     1      11.713  11.728  27.637  1.00  0.00     0.255 A
HETATM    7  O1  UNL     1      10.660  12.012  26.984  1.00  0.00    -0.268 OA
HETATM    8  C11 UNL     1      12.564  10.683  27.145  1.00  0.00     0.045 A
HETATM    9  C15 UNL     1      13.640  10.468  27.930  1.00  0.00    -0.035 A
HETATM   10  C16 UNL     1      14.516   9.292  27.765  1.00  0.00     0.050 C
HETATM   11  C17 UNL     1      13.916  11.210  29.113  1.00  0.00     0.000 A
HETATM   12  C18 UNL     1      15.030  10.971  29.870  1.00  0.00     0.057 A
HETATM   13  C19 UNL     1      15.290  11.707  31.006  1.00  0.00     0.131 A
HETATM   14  F1  UNL     1      16.401  11.487  31.770  1.00  0.00    -0.205 F
ENDROOT
BRANCH   1  15
HETATM   15  C6  UNL     1      14.722  13.528  32.593  1.00  0.00     0.141 A
HETATM   16  N1  UNL     1      14.714  13.172  33.884  1.00  0.00    -0.323 N
HETATM   17  C5  UNL     1      15.102  14.233  34.620  1.00  0.00     0.148 A
ATOM     18  H1  UNL     1      14.457  12.254  34.249  1.00  0.00     0.169 HD
HETATM   19  O3  UNL     1      15.344  15.218  33.796  1.00  0.00    -0.223 OA
HETATM   20  N3  UNL     1      15.127  14.837  32.584  1.00  0.00    -0.242 N
ATOM     21  H3  UNL     1      15.239  15.417  31.752  1.00  0.00     0.196 HD
BRANCH  17  22
HETATM   22  C4  UNL     1      15.238  14.314  36.098  1.00  0.00     0.087 C
BRANCH  22  23
HETATM   23  C3  UNL     1      14.146  15.177  36.656  1.00  0.00     0.008 C
BRANCH  23  24
HETATM   24  C2  UNL     1      12.775  14.716  36.212  1.00  0.00    -0.004 C
HETATM   25  C1  UNL     1      12.019  14.010  37.297  1.00  0.00     0.005 C
ENDBRANCH  23  24
ENDBRANCH  22  23
ENDBRANCH  17  22
ENDBRANCH   1  15
BRANCH   8  26
HETATM   26  C12 UNL     1      12.115   9.993  25.974  1.00  0.00     0.157 C
BRANCH  26  27
HETATM   27  O2  UNL     1      12.008  10.976  24.886  1.00  0.00    -0.391 OA
ATOM     28  H2  UNL     1      11.219  10.781  24.395  1.00  0.00     0.210 HD
ENDBRANCH  26  27
BRANCH  26  29
HETATM   29  C13 UNL     1      10.945   9.147  25.842  1.00  0.00     0.032 C
HETATM   30  C14 UNL     1      10.815   7.799  25.359  1.00  0.00     0.008 C
ENDBRANCH  26  29
ENDBRANCH   8  26
TORSDOF 7
ENDMDL