MODEL 4
REMARK VINA RESULT: -5.198175652      3.534      4.624
REMARK  7 active torsions:
REMARK  status: ('A' for Active; 'I' for Inactive)
REMARK    1  A    between atoms: C2_2  and  C3_3
REMARK    2  A    between atoms: C3_3  and  C4_4
REMARK    3  A    between atoms: C3_3  and  C13_19
REMARK    4  A    between atoms: C4_4  and  C5_5
REMARK    5  A    between atoms: C5_5  and  O1_6
REMARK    6  A    between atoms: C5_5  and  C6_8
REMARK    7  A    between atoms: C6_8  and  C7_9
ROOT
HETATM    1  C6  UNL     1      14.196  13.710  33.074  1.00  0.00     0.048 C
ENDROOT
BRANCH   1   2
HETATM    2  C5  UNL     1      13.581  13.209  31.825  1.00  0.00     0.120 C
BRANCH   2   3
HETATM    3  C4  UNL     1      14.473  12.907  30.693  1.00  0.00     0.047 C
BRANCH   3   4
HETATM    4  C3  UNL     1      14.827  11.424  30.608  1.00  0.00     0.089 C
BRANCH   4   5
HETATM    5  C2  UNL     1      14.358  10.899  29.266  1.00  0.00     0.011 C
HETATM    6  C1  UNL     1      13.213  11.628  28.667  1.00  0.00     0.006 C
ENDBRANCH   4   5
BRANCH   4   7
HETATM    7  C13 UNL     1      16.203  11.084  30.920  1.00  0.00     0.177 C
HETATM    8  O2  UNL     1      16.770  11.280  32.039  1.00  0.00    -0.648 OA
HETATM    9  O3  UNL     1      17.054  10.485  29.963  1.00  0.00    -0.648 OA
ENDBRANCH   4   7
ENDBRANCH   3   4
ENDBRANCH   2   3
BRANCH   2  10
HETATM   10  O1  UNL     1      12.960  11.978  32.213  1.00  0.00    -0.396 OA
ATOM     11  H1  UNL     1      13.502  11.274  31.876  1.00  0.00     0.210 HD
ENDBRANCH   2  10
ENDBRANCH   1   2
BRANCH   1  12
HETATM   12  C7  UNL     1      13.948  15.087  33.511  1.00  0.00     0.067 C
HETATM   13  S1  UNL     1      15.408  16.008  34.083  1.00  0.00    -0.092 SA
HETATM   14  S2  UNL     1      14.219  17.529  35.083  1.00  0.00    -0.091 SA
HETATM   15  C8  UNL     1      12.628  16.633  34.819  1.00  0.00     0.074 C
HETATM   16  C9  UNL     1      11.662  16.914  35.880  1.00  0.00     0.090 C
HETATM   17  C12 UNL     1      13.002  15.174  34.677  1.00  0.00     0.035 C
HETATM   18  S3  UNL     1      11.098  15.498  36.818  1.00  0.00    -0.166 SA
HETATM   19  C10 UNL     1      12.174  14.068  36.667  1.00  0.00     0.094 C
HETATM   20  C11 UNL     1      13.442  14.538  35.933  1.00  0.00     0.098 C
HETATM   21 CL1  UNL     1      14.341  15.592  37.041  1.00  0.00    -0.124 Cl
ENDBRANCH   1  12
TORSDOF 7
ENDMDL