MODEL 1
REMARK VINA RESULT: -6.962156595      0.000      0.000
REMARK  6 active torsions:
REMARK  status: ('A' for Active; 'I' for Inactive)
REMARK    1  A    between atoms: C6_6  and  C7_7
REMARK    2  A    between atoms: C7_7  and  C8_8
REMARK    3  A    between atoms: C9_12  and  C10_13
REMARK    4  A    between atoms: C10_13  and  C11_14
REMARK    5  A    between atoms: C11_14  and  C12_15
REMARK    6  A    between atoms: C12_15  and  N2_16
ROOT
HETATM    1  C8  UNL     1      13.645   9.515  26.803  1.00  0.00     0.092 A
HETATM    2  N1  UNL     1      13.954  10.168  25.677  1.00  0.00    -0.314 N
ATOM      3  H1  UNL     1      14.752  10.776  25.494  1.00  0.00     0.175 HD
HETATM    4  S1  UNL     1      12.704   9.741  24.636  1.00  0.00     0.000 SA
HETATM    5  C9  UNL     1      11.827   8.734  25.696  1.00  0.00     0.069 A
HETATM    6  N3  UNL     1      12.561   8.790  26.796  1.00  0.00    -0.342 N
ATOM      7  H3  UNL     1      12.282   8.273  27.629  1.00  0.00     0.167 HD
ENDROOT
BRANCH   1   8
HETATM    8  C7  UNL     1      14.532   9.622  28.039  1.00  0.00     0.115 C
BRANCH   8   9
HETATM    9  C6  UNL     1      14.120  10.731  28.907  1.00  0.00    -0.049 A
HETATM   10  C1  UNL     1      12.977  11.478  28.711  1.00  0.00     0.010 A
HETATM   11  C2  UNL     1      12.651  12.509  29.567  1.00  0.00     0.032 A
HETATM   12  C3  UNL     1      13.433  12.851  30.654  1.00  0.00     0.054 A
HETATM   13  C4  UNL     1      14.580  12.100  30.851  1.00  0.00     0.055 A
HETATM   14  N5  UNL     1      13.102  13.908  31.536  1.00  0.00    -0.387 N
HETATM   15  C5  UNL     1      14.914  11.069  29.999  1.00  0.00     0.039 A
HETATM   16  N4  UNL     1      15.397  12.441  31.969  1.00  0.00    -0.387 N
HETATM   17  C17 UNL     1      14.937  13.288  33.042  1.00  0.00     0.139 C
ATOM     18  H4  UNL     1      16.347  12.071  32.011  1.00  0.00     0.159 HD
HETATM   19  C18 UNL     1      14.044  14.406  32.514  1.00  0.00     0.139 C
ATOM     20  H5  UNL     1      12.174  14.330  31.480  1.00  0.00     0.159 HD
ENDBRANCH   8   9
ENDBRANCH   1   8
BRANCH   5  21
HETATM   21  C10 UNL     1      10.547   7.968  25.461  1.00  0.00     0.068 C
BRANCH  21  22
HETATM   22  C11 UNL     1       9.482   8.972  25.127  1.00  0.00     0.037 C
BRANCH  22  23
HETATM   23  C12 UNL     1       8.596   9.332  26.289  1.00  0.00     0.272 C
BRANCH  23  24
HETATM   24  N2  UNL     1       8.284  10.718  26.366  1.00  0.00     0.088 N
HETATM   25  C13 UNL     1       9.384  11.611  26.433  1.00  0.00     0.272 C
HETATM   26  C14 UNL     1       9.232  12.477  27.654  1.00  0.00     0.032 C
HETATM   27  C15 UNL     1       7.820  12.236  28.122  1.00  0.00     0.032 C
HETATM   28  C16 UNL     1       7.296  11.080  27.324  1.00  0.00     0.272 C
ENDBRANCH  23  24
ENDBRANCH  22  23
ENDBRANCH  21  22
ENDBRANCH   5  21
TORSDOF 6
ENDMDL