MODEL 5
REMARK VINA RESULT: -6.446520046      6.249      9.261
REMARK  7 active torsions:
REMARK  status: ('A' for Active; 'I' for Inactive)
REMARK    1  A    between atoms: C2_2  and  C3_3
REMARK    2  A    between atoms: C3_3  and  C4_4
REMARK    3  A    between atoms: C4_4  and  O1_5
REMARK    4  A    between atoms: O1_5  and  C5_6
REMARK    5  A    between atoms: C5_6  and  C7_8
REMARK    6  A    between atoms: C16_17  and  O2_18
REMARK    7  A    between atoms: O2_18  and  C17_19
REMARK       I    between atoms: N1_23  and  C20_24
REMARK       I    between atoms: C20_24  and  N2_25
REMARK       I    between atoms: C20_24  and  N3_29
ROOT
HETATM    1  C7  UNL     1       1.384  21.666   1.791  1.00  0.00     0.023 C
HETATM    2  C8  UNL     1       1.143  22.947   1.027  1.00  0.00     0.008 C
HETATM    3  C9  UNL     1       1.835  22.513  -0.278  1.00  0.00     0.006 C
HETATM    4  C10 UNL     1       1.205  21.150  -0.486  1.00  0.00    -0.001 C
HETATM    5  C11 UNL     1      -0.003  21.335  -1.364  1.00  0.00    -0.003 C
HETATM    6  C12 UNL     1       0.428  22.003  -2.640  1.00  0.00     0.006 C
HETATM    7  C13 UNL     1      -0.634  21.591  -3.678  1.00  0.00     0.011 C
HETATM    8  C14 UNL     1      -0.335  20.125  -3.917  1.00  0.00     0.038 C
HETATM    9  C15 UNL     1      -0.996  19.743  -5.175  1.00  0.00     0.015 C
HETATM   10  C16 UNL     1      -2.217  19.246  -5.128  1.00  0.00     0.071 C
HETATM   11  C19 UNL     1      -2.820  19.119  -3.753  1.00  0.00     0.186 C
HETATM   12  N1  UNL     1      -1.806  18.526  -2.953  1.00  0.00    -0.349 N
HETATM   13  C20 UNL     1      -1.923  17.187  -2.618  1.00  0.00     0.479 C
HETATM   14  N2  UNL     1      -3.148  16.905  -1.850  1.00  0.00    -0.033 N
ATOM     15  H21 UNL     1      -3.234  15.919  -1.603  1.00  0.00     0.278 HD
ATOM     16  H22 UNL     1      -3.977  17.233  -2.345  1.00  0.00     0.278 HD
ATOM     17  H23 UNL     1      -3.208  17.498  -1.022  1.00  0.00     0.278 HD
HETATM   18  N3  UNL     1      -2.071  16.383  -3.842  1.00  0.00    -0.033 N
ATOM     19  H31 UNL     1      -2.157  15.397  -3.595  1.00  0.00     0.278 HD
ATOM     20  H32 UNL     1      -1.313  16.549  -4.505  1.00  0.00     0.278 HD
ATOM     21  H33 UNL     1      -2.846  16.703  -4.423  1.00  0.00     0.278 HD
HETATM   22  C21 UNL     1      -0.642  19.268  -2.720  1.00  0.00     0.039 C
HETATM   23  C22 UNL     1       0.520  18.320  -2.590  1.00  0.00     0.039 C
HETATM   24  C23 UNL     1      -0.872  20.149  -1.519  1.00  0.00     0.018 C
HETATM   25  C24 UNL     1      -0.990  19.436  -0.221  1.00  0.00     0.008 C
HETATM   26  C25 UNL     1      -0.612  20.378   0.937  1.00  0.00     0.010 C
HETATM   27  C26 UNL     1       0.839  20.634   0.898  1.00  0.00    -0.034 C
HETATM   28  C27 UNL     1       1.573  19.340   1.157  1.00  0.00     0.016 C
ENDROOT
BRANCH  10  29
HETATM   29  O2  UNL     1      -2.906  18.865  -6.270  1.00  0.00    -0.282 OA
BRANCH  29  30
HETATM   30  C17 UNL     1      -4.106  18.196  -6.219  1.00  0.00     0.259 C
HETATM   31  C18 UNL     1      -5.430  18.854  -6.441  1.00  0.00     0.126 C
HETATM   32  O3  UNL     1      -4.111  16.978  -5.979  1.00  0.00    -0.265 OA
ENDBRANCH  29  30
ENDBRANCH  10  29
BRANCH   1  33
HETATM   33  C5  UNL     1       1.122  21.669   3.213  1.00  0.00     0.122 C
HETATM   34  C6  UNL     1       0.366  22.837   3.779  1.00  0.00     0.040 C
BRANCH  33  35
HETATM   35  O1  UNL     1       2.397  21.609   3.841  1.00  0.00    -0.386 OA
BRANCH  35  36
HETATM   36  C4  UNL     1       2.825  20.315   3.979  1.00  0.00     0.168 C
BRANCH  36  37
HETATM   37  C3  UNL     1       4.241  20.162   3.529  1.00  0.00     0.026 C
BRANCH  37  38
HETATM   38  C2  UNL     1       4.848  21.326   2.834  1.00  0.00    -0.002 C
HETATM   39  C1  UNL     1       5.089  21.132   1.365  1.00  0.00     0.005 C
ENDBRANCH  37  38
ENDBRANCH  36  37
ENDBRANCH  35  36
ENDBRANCH  33  35
ENDBRANCH   1  33
TORSDOF 7
ENDMDL