MODEL 3
REMARK VINA RESULT: -6.440887785      1.811      8.898
REMARK  7 active torsions:
REMARK  status: ('A' for Active; 'I' for Inactive)
REMARK    1  A    between atoms: C2_2  and  C3_3
REMARK    2  A    between atoms: C2_2  and  C4_6
REMARK    3  A    between atoms: C3_3  and  O1_4
REMARK    4  A    between atoms: C9_12  and  O3_13
REMARK    5  A    between atoms: C13_18  and  O4_19
REMARK    6  A    between atoms: O4_19  and  C14_20
REMARK    7  A    between atoms: C14_20  and  C17_23
ROOT
HETATM    1  C4  UNL     1       1.098  22.826   1.696  1.00  0.00     0.069 C
HETATM    2  C5  UNL     1       2.514  22.958   1.168  1.00  0.00     0.132 C
HETATM    3  O2  UNL     1       3.458  23.366   1.771  1.00  0.00    -0.298 OA
HETATM    4  C6  UNL     1       2.456  22.476  -0.236  1.00  0.00     0.084 C
HETATM    5  C7  UNL     1       1.028  22.044  -0.414  1.00  0.00     0.008 C
HETATM    6  C8  UNL     1       0.774  21.065  -1.472  1.00  0.00     0.024 C
HETATM    7  C9  UNL     1       0.808  21.824  -2.807  1.00  0.00     0.123 C
HETATM    8  C10 UNL     1       0.435  20.886  -3.934  1.00  0.00     0.037 C
HETATM    9  C11 UNL     1      -0.901  20.276  -3.740  1.00  0.00    -0.001 C
HETATM   10  C12 UNL     1      -1.355  19.450  -4.907  1.00  0.00     0.037 C
HETATM   11  C13 UNL     1      -1.280  17.988  -4.623  1.00  0.00     0.123 C
HETATM   12  C21 UNL     1      -0.157  17.668  -3.634  1.00  0.00     0.033 C
HETATM   13  C22 UNL     1      -0.387  18.324  -2.322  1.00  0.00     0.012 C
HETATM   14  C23 UNL     1      -1.090  19.625  -2.418  1.00  0.00    -0.036 C
HETATM   15  C24 UNL     1      -2.586  19.420  -2.133  1.00  0.00     0.016 C
HETATM   16  C25 UNL     1      -0.636  20.590  -1.327  1.00  0.00     0.001 C
HETATM   17  C26 UNL     1      -0.852  19.986   0.054  1.00  0.00     0.007 C
HETATM   18  C27 UNL     1      -0.697  21.145   1.054  1.00  0.00     0.011 C
HETATM   19  C28 UNL     1       0.719  21.566   1.017  1.00  0.00    -0.029 C
HETATM   20  C29 UNL     1       1.652  20.414   1.309  1.00  0.00     0.016 C
ENDROOT
BRANCH  11  21
HETATM   21  O4  UNL     1      -2.396  17.293  -4.433  1.00  0.00    -0.371 OA
BRANCH  21  22
HETATM   22  C14 UNL     1      -3.207  16.778  -5.330  1.00  0.00     0.077 C
HETATM   23  C15 UNL     1      -2.323  16.007  -6.342  1.00  0.00     0.051 C
HETATM   24  C16 UNL     1      -4.102  15.645  -4.786  1.00  0.00     0.051 C
BRANCH  22  25
HETATM   25  C17 UNL     1      -4.037  17.666  -6.177  1.00  0.00    -0.050 A
HETATM   26  C18 UNL     1      -4.343  17.740  -7.447  1.00  0.00    -0.021 A
HETATM   27  C19 UNL     1      -5.180  18.919  -7.217  1.00  0.00     0.032 A
HETATM   28  C20 UNL     1      -4.856  18.876  -5.765  1.00  0.00     0.040 A
ENDBRANCH  22  25
ENDBRANCH  21  22
ENDBRANCH  11  21
BRANCH   7  29
HETATM   29  O3  UNL     1       0.061  22.973  -2.774  1.00  0.00    -0.395 OA
ATOM     30  H3  UNL     1      -0.658  22.955  -3.394  1.00  0.00     0.210 HD
ENDBRANCH   7  29
BRANCH   1  31
HETATM   31  C2  UNL     1       0.995  22.987   3.129  1.00  0.00     0.017 C
HETATM   32  C1  UNL     1       0.345  21.945   3.958  1.00  0.00     0.013 C
BRANCH  31  33
HETATM   33  C3  UNL     1       0.523  24.349   3.538  1.00  0.00     0.169 C
BRANCH  33  34
HETATM   34  O1  UNL     1       1.496  25.335   3.196  1.00  0.00    -0.400 OA
ATOM     35  H1  UNL     1       1.287  25.729   2.357  1.00  0.00     0.209 HD
ENDBRANCH  33  34
ENDBRANCH  31  33
ENDBRANCH   1  31
TORSDOF 7
ENDMDL