MODEL 5
REMARK VINA RESULT: -6.308754525      4.418      6.927
REMARK  10 active torsions:
REMARK  status: ('A' for Active; 'I' for Inactive)
REMARK    1  A    between atoms: C2_2  and  C4_4
REMARK    2  A    between atoms: C11_11  and  O1_12
REMARK    3  A    between atoms: C11_11  and  C12_14
REMARK    4  A    between atoms: C15_18  and  C16_19
REMARK    5  A    between atoms: C16_19  and  C18_21
REMARK    6  A    between atoms: C18_21  and  O3_22
REMARK    7  A    between atoms: C18_21  and  C19_24
REMARK    8  A    between atoms: C19_24  and  C20_25
REMARK    9  A    between atoms: C20_25  and  O5_27
REMARK   10  A    between atoms: O5_27  and  C21_28
ROOT
HETATM    1  C4  UNL     1      -3.037  19.961  -3.284  1.00  0.00     0.022 C
HETATM    2  C5  UNL     1      -4.064  20.021  -2.148  1.00  0.00     0.010 C
HETATM    3  C6  UNL     1      -3.255  20.407  -0.901  1.00  0.00     0.006 C
HETATM    4  C7  UNL     1      -1.905  20.721  -1.486  1.00  0.00    -0.001 C
HETATM    5  C8  UNL     1      -0.798  20.959  -0.587  1.00  0.00     0.002 C
HETATM    6  C9  UNL     1      -0.691  20.163   0.657  1.00  0.00     0.009 C
HETATM    7  C10 UNL     1       0.742  19.692   0.668  1.00  0.00     0.042 C
HETATM    8  C11 UNL     1       1.512  20.705  -0.235  1.00  0.00     0.095 C
HETATM    9  C23 UNL     1       0.535  20.916  -1.301  1.00  0.00    -0.006 C
HETATM   10  C24 UNL     1       0.649  22.152  -2.135  1.00  0.00     0.019 C
HETATM   11  C25 UNL     1       0.610  19.743  -2.267  1.00  0.00     0.013 C
HETATM   12  C26 UNL     1      -0.535  19.727  -3.253  1.00  0.00     0.011 C
HETATM   13  C27 UNL     1      -1.807  19.602  -2.501  1.00  0.00    -0.033 C
HETATM   14  C28 UNL     1      -1.943  18.250  -1.911  1.00  0.00     0.016 C
ENDROOT
BRANCH   8  15
HETATM   15  O1  UNL     1       2.606  19.947  -0.691  1.00  0.00    -0.386 OA
ATOM     16  H1  UNL     1       3.349  20.499  -0.476  1.00  0.00     0.210 HD
ENDBRANCH   8  15
BRANCH   8  17
HETATM   17  C12 UNL     1       1.907  21.796   0.667  1.00  0.00     0.187 C
HETATM   18  O2  UNL     1       2.404  22.956   0.142  1.00  0.00    -0.374 OA
HETATM   19  C13 UNL     1       3.228  23.102   1.258  1.00  0.00     0.205 C
HETATM   20  C14 UNL     1       3.091  21.650   1.524  1.00  0.00    -0.028 C
HETATM   21  C15 UNL     1       3.702  20.719   2.194  1.00  0.00    -0.012 C
BRANCH  21  22
HETATM   22  C16 UNL     1       4.925  20.852   3.006  1.00  0.00     0.034 C
HETATM   23  C17 UNL     1       5.188  19.719   3.954  1.00  0.00     0.017 C
BRANCH  22  24
HETATM   24  C18 UNL     1       6.165  20.979   2.127  1.00  0.00     0.134 C
BRANCH  24  25
HETATM   25  O3  UNL     1       7.271  21.369   2.872  1.00  0.00    -0.394 OA
ATOM     26  H3  UNL     1       7.992  20.760   2.761  1.00  0.00     0.210 HD
ENDBRANCH  24  25
BRANCH  24  27
HETATM   27  C19 UNL     1       6.492  19.681   1.447  1.00  0.00     0.143 C
BRANCH  27  28
HETATM   28  C20 UNL     1       7.829  19.804   0.815  1.00  0.00     0.261 C
HETATM   29  O4  UNL     1       8.886  19.530   1.428  1.00  0.00    -0.265 OA
BRANCH  28  30
HETATM   30  O5  UNL     1       7.970  20.236  -0.509  1.00  0.00    -0.322 OA
BRANCH  30  31
HETATM   31  C21 UNL     1       9.213  20.272  -1.165  1.00  0.00     0.174 C
HETATM   32  C22 UNL     1       9.345  21.479  -2.075  1.00  0.00     0.034 C
ENDBRANCH  30  31
ENDBRANCH  28  30
ENDBRANCH  27  28
ENDBRANCH  24  27
ENDBRANCH  22  24
ENDBRANCH  21  22
ENDBRANCH   8  17
BRANCH   1  33
HETATM   33  C2  UNL     1      -3.417  19.143  -4.409  1.00  0.00    -0.088 C
HETATM   34  C1  UNL     1      -4.656  18.663  -4.444  1.00  0.00     0.014 C
HETATM   35  C3  UNL     1      -2.522  18.766  -5.522  1.00  0.00     0.043 C
ENDBRANCH   1  33
TORSDOF 10
ENDMDL