MODEL 1
REMARK VINA RESULT: -6.559233195      0.000      0.000
REMARK  9 active torsions:
REMARK  status: ('A' for Active; 'I' for Inactive)
REMARK    1  A    between atoms: C4_4  and  C5_5
REMARK    2  A    between atoms: C5_5  and  C6_6
REMARK    3  A    between atoms: C6_6  and  C7_7
REMARK    4  A    between atoms: C10_11  and  O2_12
REMARK    5  A    between atoms: C11_14  and  C12_15
REMARK    6  A    between atoms: C12_15  and  O3_16
REMARK    7  A    between atoms: C19_24  and  C20_25
REMARK    8  A    between atoms: C20_25  and  O4_26
REMARK    9  A    between atoms: C21_28  and  C22_29
ROOT
HETATM    1  C7  UNL     1       6.517  18.173   1.426  1.00  0.00     0.066 C
HETATM    2  C8  UNL     1       5.210  17.594   0.802  1.00  0.00     0.046 C
HETATM    3  O1  UNL     1       6.959  19.074   0.540  1.00  0.00    -0.367 OA
HETATM    4  C9  UNL     1       8.103  18.581  -0.129  1.00  0.00     0.190 C
HETATM    5  C10 UNL     1       8.886  19.714  -0.603  1.00  0.00     0.081 C
HETATM    6  C11 UNL     1       9.493  19.992  -1.709  1.00  0.00    -0.003 C
HETATM    7  C13 UNL     1       9.647  19.243  -2.948  1.00  0.00     0.018 C
HETATM    8  C14 UNL     1       9.135  17.934  -3.150  1.00  0.00    -0.065 C
HETATM    9  C15 UNL     1       8.239  17.692  -4.361  1.00  0.00     0.048 C
HETATM   10  C16 UNL     1       9.363  16.902  -2.383  1.00  0.00    -0.020 C
HETATM   11  C17 UNL     1      10.212  16.991  -1.174  1.00  0.00     0.028 C
HETATM   12  C18 UNL     1       9.362  16.513  -0.013  1.00  0.00     0.019 C
HETATM   13  C19 UNL     1       8.737  17.603   0.830  1.00  0.00     0.023 C
HETATM   14  C21 UNL     1       7.509  17.061   1.453  1.00  0.00     0.067 C
ENDROOT
BRANCH  14  15
HETATM   15  C22 UNL     1       7.481  16.182   2.645  1.00  0.00     0.065 C
HETATM   16  C23 UNL     1       6.080  15.564   2.786  1.00  0.00     0.046 C
HETATM   17  C24 UNL     1       8.366  15.003   2.766  1.00  0.00     0.038 C
HETATM   18  C25 UNL     1       8.898  14.677   4.122  1.00  0.00     0.006 C
HETATM   19  C26 UNL     1       8.218  15.309   5.268  1.00  0.00     0.032 C
HETATM   20  C27 UNL     1       7.785  16.697   4.948  1.00  0.00     0.118 C
HETATM   21  C28 UNL     1       6.702  17.054   5.961  1.00  0.00     0.039 C
HETATM   22  O5  UNL     1       7.559  17.046   3.700  1.00  0.00    -0.375 OA
ENDBRANCH  14  15
BRANCH   1  23
HETATM   23  C6  UNL     1       6.197  18.893   2.676  1.00  0.00     0.042 C
BRANCH  23  24
HETATM   24  C5  UNL     1       6.087  20.412   2.518  1.00  0.00     0.030 C
BRANCH  24  25
HETATM   25  C4  UNL     1       4.908  21.013   3.090  1.00  0.00    -0.025 C
HETATM   26  C2  UNL     1       3.873  21.383   2.384  1.00  0.00    -0.091 C
HETATM   27  C1  UNL     1       3.804  21.217   0.919  1.00  0.00     0.042 C
HETATM   28  C3  UNL     1       2.693  22.006   3.066  1.00  0.00     0.042 C
ENDBRANCH  24  25
ENDBRANCH  23  24
ENDBRANCH   1  23
BRANCH  13  29
HETATM   29  C20 UNL     1       9.762  18.164   1.724  1.00  0.00     0.177 C
BRANCH  29  30
HETATM   30  O4  UNL     1       9.394  19.025   2.716  1.00  0.00    -0.400 OA
ATOM     31  H4  UNL     1       9.574  18.803   3.622  1.00  0.00     0.209 HD
ENDBRANCH  29  30
ENDBRANCH  13  29
BRANCH   5  32
HETATM   32  O2  UNL     1       8.998  20.734   0.386  1.00  0.00    -0.362 OA
ATOM     33  H2  UNL     1       9.415  21.515   0.044  1.00  0.00     0.217 HD
ENDBRANCH   5  32
BRANCH   6  34
HETATM   34  C12 UNL     1      10.230  21.328  -1.827  1.00  0.00     0.205 C
BRANCH  34  35
HETATM   35  O3  UNL     1       9.241  22.288  -2.059  1.00  0.00    -0.396 OA
ATOM     36  H3  UNL     1       9.051  22.675  -1.212  1.00  0.00     0.209 HD
ENDBRANCH  34  35
ENDBRANCH   6  34
TORSDOF 9
ENDMDL