MODEL 1
REMARK VINA RESULT: -5.823651515      0.000      0.000
REMARK  9 active torsions:
REMARK  status: ('A' for Active; 'I' for Inactive)
REMARK    1  A    between atoms: C2_2  and  C3_3
REMARK    2  A    between atoms: C10_10  and  O1_11
REMARK    3  A    between atoms: C11_13  and  C12_14
REMARK    4  A    between atoms: C21_23  and  C22_24
REMARK    5  A    between atoms: C22_24  and  O3_26
REMARK    6  A    between atoms: O3_26  and  C23_27
REMARK    7  A    between atoms: C23_27  and  O4_28
REMARK    8  A    between atoms: O4_28  and  C24_29
REMARK       I    between atoms: C24_29  and  N1_31
REMARK    9  A    between atoms: N1_31  and  C25_33
ROOT
HETATM    1  C3  UNL     1      10.055  19.268  -2.841  1.00  0.00     0.002 C
HETATM    2  C4  UNL     1      10.953  19.615  -4.056  1.00  0.00     0.022 C
HETATM    3  C5  UNL     1      10.955  18.784  -1.732  1.00  0.00     0.017 C
HETATM    4  C6  UNL     1      10.334  18.200  -0.540  1.00  0.00     0.016 C
HETATM    5  C7  UNL     1      10.139  16.681  -0.619  1.00  0.00     0.002 C
HETATM    6  C8  UNL     1       9.901  16.352  -2.009  1.00  0.00    -0.017 C
HETATM    7  C9  UNL     1       8.891  16.989  -2.845  1.00  0.00     0.002 C
HETATM    8  C10 UNL     1       9.005  18.366  -3.320  1.00  0.00     0.152 C
HETATM    9  C11 UNL     1      11.328  15.980  -0.057  1.00  0.00     0.027 C
HETATM   10  C15 UNL     1      10.822  14.641   0.454  1.00  0.00     0.016 C
HETATM   11  C16 UNL     1       9.513  14.967   1.017  1.00  0.00     0.013 C
HETATM   12  C17 UNL     1       9.398  15.490   2.410  1.00  0.00    -0.042 C
HETATM   13  C18 UNL     1      10.522  15.305   3.357  1.00  0.00     0.015 C
HETATM   14  C19 UNL     1       8.087  15.104   3.083  1.00  0.00     0.015 C
HETATM   15  C20 UNL     1       9.310  16.882   1.777  1.00  0.00     0.030 C
HETATM   16  C21 UNL     1       9.100  16.278   0.398  1.00  0.00     0.065 C
ENDROOT
BRANCH  16  17
HETATM   17  C22 UNL     1       7.692  16.299   0.081  1.00  0.00     0.271 C
HETATM   18  O2  UNL     1       6.982  15.287  -0.233  1.00  0.00    -0.264 OA
BRANCH  17  19
HETATM   19  O3  UNL     1       6.993  17.509   0.105  1.00  0.00    -0.294 OA
BRANCH  19  20
HETATM   20  C23 UNL     1       5.638  17.578   0.503  1.00  0.00     0.360 C
BRANCH  20  21
HETATM   21  O4  UNL     1       5.178  18.918   0.553  1.00  0.00    -0.278 OA
BRANCH  21  22
HETATM   22  C24 UNL     1       5.865  19.863   1.298  1.00  0.00     0.362 C
HETATM   23  O5  UNL     1       5.788  21.061   0.929  1.00  0.00    -0.238 OA
HETATM   24  N1  UNL     1       6.641  19.492   2.453  1.00  0.00    -0.333 N
ATOM     25  H1  UNL     1       6.696  18.516   2.744  1.00  0.00     0.165 HD
BRANCH  24  26
HETATM   26  C25 UNL     1       7.336  20.508   3.194  1.00  0.00     0.078 C
HETATM   27  C26 UNL     1       8.806  20.566   2.848  1.00  0.00     0.032 C
HETATM   28  C27 UNL     1       7.242  20.175   4.681  1.00  0.00     0.032 C
ENDBRANCH  24  26
ENDBRANCH  21  22
ENDBRANCH  20  21
ENDBRANCH  19  20
ENDBRANCH  17  19
ENDBRANCH  16  17
BRANCH   9  29
HETATM   29  C12 UNL     1      12.584  15.897  -0.742  1.00  0.00    -0.088 C
HETATM   30  C13 UNL     1      13.547  16.803  -0.573  1.00  0.00     0.014 C
HETATM   31  C14 UNL     1      12.970  14.789  -1.661  1.00  0.00     0.043 C
ENDBRANCH   9  29
BRANCH   1  32
HETATM   32  C2  UNL     1       9.452  20.569  -2.448  1.00  0.00    -0.025 C
HETATM   33  C1  UNL     1      10.242  21.542  -2.068  1.00  0.00     0.008 C
ENDBRANCH   1  32
BRANCH   8  34
HETATM   34  O1  UNL     1       7.746  19.055  -3.287  1.00  0.00    -0.391 OA
ATOM     35  H1  UNL     1       7.050  18.437  -3.476  1.00  0.00     0.210 HD
ENDBRANCH   8  34
TORSDOF 9
ENDMDL