MODEL 4
REMARK VINA RESULT: -6.748115270      5.017      8.196
REMARK  7 active torsions:
REMARK  status: ('A' for Active; 'I' for Inactive)
REMARK    1  A    between atoms: C2_2  and  C3_3
REMARK    2  A    between atoms: C9_9  and  C10_10
REMARK    3  A    between atoms: C15_15  and  C16_16
REMARK    4  A    between atoms: C17_17  and  C18_18
REMARK    5  A    between atoms: C19_19  and  C20_20
REMARK    6  A    between atoms: C20_20  and  C21_21
REMARK    7  A    between atoms: C24_26  and  O3_27
ROOT
HETATM    1  C10 UNL     1       1.661  22.763   3.202  1.00  0.00     0.174 C
HETATM    2  C11 UNL     1       2.836  21.909   3.122  1.00  0.00     0.010 C
HETATM    3  C12 UNL     1       3.606  21.877   2.030  1.00  0.00    -0.082 C
HETATM    4  C13 UNL     1       4.788  20.988   2.013  1.00  0.00     0.043 C
HETATM    5  C14 UNL     1       3.212  22.742   0.869  1.00  0.00     0.069 C
HETATM    6  C15 UNL     1       1.694  22.740   0.840  1.00  0.00     0.149 C
HETATM    7  O4  UNL     1       1.157  23.140   2.014  1.00  0.00    -0.370 OA
ENDROOT
BRANCH   1   8
HETATM    8  C9  UNL     1       0.532  22.136   4.019  1.00  0.00     0.155 C
HETATM    9  C8  UNL     1       0.884  21.843   5.424  1.00  0.00     0.038 C
HETATM   10  C7  UNL     1       0.431  23.090   6.155  1.00  0.00     0.041 C
HETATM   11  C6  UNL     1      -0.642  23.614   5.258  1.00  0.00     0.065 C
HETATM   12  C5  UNL     1      -0.431  25.115   5.107  1.00  0.00     0.039 C
HETATM   13  O5  UNL     1      -0.499  23.065   4.010  1.00  0.00    -0.372 OA
HETATM   14  C25 UNL     1      -2.028  23.420   5.827  1.00  0.00     0.020 C
HETATM   15  C4  UNL     1      -1.704  25.897   5.284  1.00  0.00     0.008 C
HETATM   16  C3  UNL     1      -2.366  25.700   6.605  1.00  0.00    -0.011 C
HETATM   17  C27 UNL     1      -2.224  24.244   7.058  1.00  0.00    -0.008 C
HETATM   18  C28 UNL     1      -3.458  23.859   7.816  1.00  0.00     0.011 C
HETATM   19  C26 UNL     1      -2.313  21.969   6.140  1.00  0.00     0.013 C
BRANCH  16  20
HETATM   20  C2  UNL     1      -1.835  26.622   7.678  1.00  0.00     0.000 C
HETATM   21  C1  UNL     1      -2.031  28.066   7.346  1.00  0.00     0.005 C
ENDBRANCH  16  20
ENDBRANCH   1   8
BRANCH   6  22
HETATM   22  C16 UNL     1       1.201  21.373   0.542  1.00  0.00     0.005 C
HETATM   23  C17 UNL     1      -0.067  21.016   0.590  1.00  0.00    -0.001 C
BRANCH  23  24
HETATM   24  C18 UNL     1      -0.469  19.672   0.286  1.00  0.00     0.008 C
HETATM   25  C19 UNL     1      -0.729  19.172  -0.928  1.00  0.00     0.056 C
BRANCH  25  26
HETATM   26  C20 UNL     1      -0.648  19.887  -2.120  1.00  0.00    -0.112 C
BRANCH  26  27
HETATM   27  C21 UNL     1      -0.575  20.528  -3.187  1.00  0.00     0.093 C
HETATM   28  C22 UNL     1      -0.960  20.017  -4.549  1.00  0.00     0.300 C
HETATM   29  O1  UNL     1      -1.925  19.300  -4.858  1.00  0.00    -0.259 OA
HETATM   30  O2  UNL     1       0.005  20.520  -5.433  1.00  0.00    -0.314 OA
HETATM   31  C23 UNL     1       0.737  21.566  -4.776  1.00  0.00     0.216 C
HETATM   32  C24 UNL     1      -0.109  21.926  -3.578  1.00  0.00     0.189 C
BRANCH  32  33
HETATM   33  O3  UNL     1      -1.155  22.738  -3.935  1.00  0.00    -0.388 OA
ATOM     34  H3  UNL     1      -1.030  23.126  -4.793  1.00  0.00     0.210 HD
ENDBRANCH  32  33
ENDBRANCH  26  27
ENDBRANCH  25  26
ENDBRANCH  23  24
ENDBRANCH   6  22
TORSDOF 7
ENDMDL