MODEL 1
REMARK VINA RESULT: -6.045561088      0.000      0.000
REMARK  9 active torsions:
REMARK  status: ('A' for Active; 'I' for Inactive)
REMARK    1  A    between atoms: C2_2  and  C3_3
REMARK    2  A    between atoms: C2_2  and  C6_7
REMARK    3  A    between atoms: C3_3  and  C4_4
REMARK    4  A    between atoms: C4_4  and  C5_5
REMARK    5  A    between atoms: C20_21  and  O2_22
REMARK    6  A    between atoms: O2_22  and  C21_23
REMARK    7  A    between atoms: C21_23  and  C22_25
REMARK    8  A    between atoms: C22_25  and  O4_28
REMARK    9  A    between atoms: C26_31  and  O5_32
ROOT
HETATM    1  C6  UNL     1      -1.794  19.010  -1.953  1.00  0.00    -0.077 C
HETATM    2  C7  UNL     1      -2.884  18.977  -0.903  1.00  0.00     0.044 C
HETATM    3  C8  UNL     1      -0.487  19.131  -1.349  1.00  0.00    -0.069 C
HETATM    4  C9  UNL     1       0.692  18.716  -2.252  1.00  0.00     0.036 C
HETATM    5  C10 UNL     1       1.710  18.578  -1.082  1.00  0.00     0.011 C
HETATM    6  C11 UNL     1       1.540  20.020  -0.557  1.00  0.00     0.009 C
HETATM    7  C12 UNL     1       0.050  20.286  -0.641  1.00  0.00    -0.016 C
HETATM    8  C13 UNL     1      -0.086  21.604  -1.418  1.00  0.00     0.020 C
HETATM    9  C14 UNL     1      -0.562  20.566   0.696  1.00  0.00     0.014 C
HETATM   10  C15 UNL     1       0.216  21.611   1.481  1.00  0.00     0.007 C
HETATM   11  C16 UNL     1       1.684  21.432   1.400  1.00  0.00     0.007 C
HETATM   12  C17 UNL     1       2.355  21.833   2.693  1.00  0.00    -0.016 C
HETATM   13  C18 UNL     1       1.971  23.324   2.861  1.00  0.00     0.018 C
HETATM   14  C19 UNL     1       1.839  21.164   3.907  1.00  0.00     0.018 C
HETATM   15  C20 UNL     1       3.852  21.841   2.558  1.00  0.00     0.142 C
HETATM   16  C25 UNL     1       4.204  21.700   1.110  1.00  0.00     0.065 C
HETATM   17  C26 UNL     1       3.693  20.443   0.497  1.00  0.00     0.129 C
HETATM   18  C27 UNL     1       2.195  20.197   0.767  1.00  0.00    -0.009 C
HETATM   19  C28 UNL     1       2.149  18.925   1.547  1.00  0.00     0.018 C
ENDROOT
BRANCH   1  20
HETATM   20  C2  UNL     1      -2.267  19.719  -3.150  1.00  0.00     0.011 C
HETATM   21  C1  UNL     1      -3.691  20.225  -2.808  1.00  0.00     0.015 C
BRANCH  20  22
HETATM   22  C3  UNL     1      -2.497  18.881  -4.387  1.00  0.00     0.015 C
BRANCH  22  23
HETATM   23  C4  UNL     1      -1.319  19.160  -5.346  1.00  0.00     0.070 C
BRANCH  23  24
HETATM   24  C5  UNL     1      -0.718  20.480  -5.019  1.00  0.00     0.231 C
HETATM   25  O1  UNL     1       0.352  20.768  -5.483  1.00  0.00    -0.307 OA
ENDBRANCH  23  24
ENDBRANCH  22  23
ENDBRANCH  20  22
ENDBRANCH   1  20
BRANCH  17  26
HETATM   26  O5  UNL     1       4.493  19.406   0.914  1.00  0.00    -0.395 OA
ATOM     27  H5  UNL     1       4.409  18.696   0.288  1.00  0.00     0.210 HD
ENDBRANCH  17  26
BRANCH  15  28
HETATM   28  O2  UNL     1       4.510  20.873   3.339  1.00  0.00    -0.313 OA
BRANCH  28  29
HETATM   29  C21 UNL     1       5.845  20.834   3.611  1.00  0.00     0.293 C
HETATM   30  O3  UNL     1       6.496  21.907   3.571  1.00  0.00    -0.262 OA
BRANCH  29  31
HETATM   31  C22 UNL     1       6.562  19.588   3.950  1.00  0.00     0.138 C
HETATM   32  C23 UNL     1       5.745  18.712   4.893  1.00  0.00     0.056 C
HETATM   33  C24 UNL     1       7.879  19.864   4.648  1.00  0.00     0.056 C
BRANCH  31  34
HETATM   34  O4  UNL     1       6.809  18.825   2.809  1.00  0.00    -0.380 OA
ATOM     35  H4  UNL     1       7.275  18.026   3.027  1.00  0.00     0.211 HD
ENDBRANCH  31  34
ENDBRANCH  29  31
ENDBRANCH  28  29
ENDBRANCH  15  28
TORSDOF 9
ENDMDL