MODEL 4
REMARK VINA RESULT: -7.338790257      3.988      6.607
REMARK  9 active torsions:
REMARK  status: ('A' for Active; 'I' for Inactive)
REMARK    1  A    between atoms: C4_4  and  C5_5
REMARK    2  A    between atoms: C5_5  and  C6_6
REMARK    3  A    between atoms: C6_6  and  C8_8
REMARK    4  A    between atoms: N1_19  and  O1_21
REMARK    5  A    between atoms: O1_21  and  C19_22
REMARK    6  A    between atoms: C19_22  and  C20_24
REMARK    7  A    between atoms: C20_24  and  C21_25
REMARK    8  A    between atoms: C21_25  and  O3_28
REMARK    9  A    between atoms: C26_32  and  O4_33
ROOT
HETATM    1  C8  UNL     1      -1.132  20.901  -0.912  1.00  0.00     0.001 C
HETATM    2  C9  UNL     1      -1.930  19.708  -0.424  1.00  0.00     0.006 C
HETATM    3  C10 UNL     1      -1.197  19.518   0.922  1.00  0.00     0.006 C
HETATM    4  C11 UNL     1       0.228  19.867   0.628  1.00  0.00     0.001 C
HETATM    5  C12 UNL     1       0.827  20.898   1.493  1.00  0.00    -0.002 C
HETATM    6  C13 UNL     1       0.002  21.373   2.649  1.00  0.00     0.010 C
HETATM    7  C14 UNL     1       0.847  22.455   3.348  1.00  0.00    -0.009 C
HETATM    8  C15 UNL     1       0.661  23.798   2.731  1.00  0.00     0.005 C
HETATM    9  C16 UNL     1       1.771  24.206   1.790  1.00  0.00     0.011 C
HETATM   10  C17 UNL     1       2.293  22.915   1.136  1.00  0.00     0.040 C
HETATM   11  C18 UNL     1       3.044  22.224   2.220  1.00  0.00     0.015 C
HETATM   12  N1  UNL     1       4.239  21.817   2.109  1.00  0.00    -0.266 N
ATOM     13  H1  UNL     1       4.750  21.954   1.238  1.00  0.00     0.194 HD
HETATM   14  C24 UNL     1       2.276  22.029   3.501  1.00  0.00     0.059 C
HETATM   15  C25 UNL     1       1.125  22.115   0.635  1.00  0.00     0.029 C
HETATM   16  C26 UNL     1       1.318  21.504  -0.698  1.00  0.00     0.132 C
HETATM   17  C27 UNL     1       0.253  20.453  -0.800  1.00  0.00    -0.010 C
HETATM   18  C28 UNL     1       0.738  19.371  -1.681  1.00  0.00     0.018 C
ENDROOT
BRANCH  12  19
HETATM   19  O1  UNL     1       4.840  21.189   3.172  1.00  0.00    -0.200 OA
BRANCH  19  20
HETATM   20  C19 UNL     1       6.187  20.938   3.174  1.00  0.00     0.284 C
HETATM   21  O2  UNL     1       6.958  21.894   3.501  1.00  0.00    -0.263 OA
BRANCH  20  22
HETATM   22  C20 UNL     1       6.722  19.596   2.805  1.00  0.00     0.150 C
BRANCH  22  23
HETATM   23  C21 UNL     1       7.245  19.615   1.387  1.00  0.00     0.059 C
HETATM   24  C22 UNL     1       8.739  19.722   1.368  1.00  0.00     0.045 C
HETATM   25  C23 UNL     1       6.778  18.377   0.646  1.00  0.00     0.045 C
BRANCH  23  26
HETATM   26  O3  UNL     1       6.634  20.708   0.750  1.00  0.00    -0.390 OA
ATOM     27  H3  UNL     1       6.773  20.590  -0.183  1.00  0.00     0.210 HD
ENDBRANCH  23  26
ENDBRANCH  22  23
ENDBRANCH  20  22
ENDBRANCH  19  20
ENDBRANCH  12  19
BRANCH  16  28
HETATM   28  O4  UNL     1       1.427  22.354  -1.753  1.00  0.00    -0.394 OA
ATOM     29  H4  UNL     1       2.093  22.152  -2.400  1.00  0.00     0.210 HD
ENDBRANCH  16  28
BRANCH   1  30
HETATM   30  C6  UNL     1      -1.646  21.650  -2.030  1.00  0.00    -0.010 C
HETATM   31  C7  UNL     1      -3.132  22.005  -1.794  1.00  0.00     0.010 C
BRANCH  30  32
HETATM   32  C5  UNL     1      -1.555  21.179  -3.427  1.00  0.00     0.032 C
BRANCH  32  33
HETATM   33  C4  UNL     1      -2.687  20.355  -3.911  1.00  0.00    -0.024 C
HETATM   34  C2  UNL     1      -2.492  19.182  -4.454  1.00  0.00    -0.091 C
HETATM   35  C1  UNL     1      -3.728  18.426  -4.911  1.00  0.00     0.042 C
HETATM   36  C3  UNL     1      -1.187  18.548  -4.678  1.00  0.00     0.042 C
ENDBRANCH  32  33
ENDBRANCH  30  32
ENDBRANCH   1  30
TORSDOF 9
ENDMDL