MODEL 1
REMARK VINA RESULT: -5.668755657      0.000      0.000
REMARK  8 active torsions:
REMARK  status: ('A' for Active; 'I' for Inactive)
REMARK    1  A    between atoms: C2_2  and  C3_3
REMARK    2  A    between atoms: C3_3  and  C6_6
REMARK    3  A    between atoms: C6_6  and  O2_8
REMARK    4  A    between atoms: O2_8  and  C7_9
REMARK    5  A    between atoms: C16_19  and  C17_20
REMARK    6  A    between atoms: C24_27  and  C26_29
REMARK    7  A    between atoms: C26_29  and  O4_30
REMARK    8  A    between atoms: C28_33  and  O5_34
ROOT
HETATM    1  C7  UNL     1       3.088  22.094   1.112  1.00  0.00     0.189 C
HETATM    2  C8  UNL     1       2.030  22.171   0.088  1.00  0.00     0.051 C
HETATM    3  C9  UNL     1       1.121  21.043  -0.160  1.00  0.00    -0.015 C
HETATM    4  C10 UNL     1       0.668  21.128  -1.641  1.00  0.00     0.018 C
HETATM    5  C11 UNL     1       1.668  19.666  -0.035  1.00  0.00     0.018 C
HETATM    6  C12 UNL     1      -0.161  21.217   0.612  1.00  0.00     0.153 C
HETATM    7  C13 UNL     1      -0.787  19.990   1.077  1.00  0.00     0.004 C
HETATM    8  C14 UNL     1      -0.720  19.975   2.386  1.00  0.00     0.008 C
HETATM    9  C15 UNL     1      -0.033  21.215   2.835  1.00  0.00     0.178 C
HETATM   10  O3  UNL     1       0.116  21.930   1.720  1.00  0.00    -0.367 OA
HETATM   11  C16 UNL     1       1.184  20.880   3.632  1.00  0.00    -0.019 C
HETATM   12  C27 UNL     1       2.406  21.636   3.525  1.00  0.00     0.045 C
HETATM   13  C28 UNL     1       2.742  22.608   2.493  1.00  0.00     0.073 C
ENDROOT
BRANCH  11  14
HETATM   14  C17 UNL     1       0.719  20.566   5.058  1.00  0.00    -0.052 C
HETATM   15  C18 UNL     1       0.192  21.620   5.914  1.00  0.00    -0.023 C
HETATM   16  C19 UNL     1      -1.351  21.639   6.038  1.00  0.00     0.019 C
HETATM   17  C20 UNL     1       0.587  23.041   5.715  1.00  0.00     0.019 C
HETATM   18  C21 UNL     1       0.643  21.411   7.377  1.00  0.00     0.013 C
HETATM   19  C22 UNL     1       0.424  20.049   7.886  1.00  0.00     0.002 C
HETATM   20  C23 UNL     1       0.441  18.978   6.845  1.00  0.00     0.016 C
HETATM   21  C24 UNL     1       1.369  19.375   5.671  1.00  0.00     0.002 C
HETATM   22  C25 UNL     1       1.223  18.157   4.729  1.00  0.00     0.022 C
BRANCH  21  23
HETATM   23  C26 UNL     1       2.737  19.362   6.142  1.00  0.00     0.177 C
BRANCH  23  24
HETATM   24  O4  UNL     1       2.991  18.169   6.893  1.00  0.00    -0.400 OA
ATOM     25  H4  UNL     1       3.910  18.117   7.128  1.00  0.00     0.209 HD
ENDBRANCH  23  24
ENDBRANCH  21  23
ENDBRANCH  11  14
BRANCH  13  26
HETATM   26  O5  UNL     1       2.062  23.822   2.481  1.00  0.00    -0.362 OA
ATOM     27  H5  UNL     1       1.151  23.751   2.744  1.00  0.00     0.217 HD
ENDBRANCH  13  26
BRANCH   1  28
HETATM   28  O2  UNL     1       3.790  20.888   1.246  1.00  0.00    -0.309 OA
BRANCH  28  29
HETATM   29  C6  UNL     1       5.162  20.794   1.460  1.00  0.00     0.267 C
HETATM   30  O1  UNL     1       5.874  21.442   0.651  1.00  0.00    -0.264 OA
BRANCH  29  31
HETATM   31  C3  UNL     1       5.822  20.018   2.528  1.00  0.00     0.040 C
HETATM   32  C4  UNL     1       7.010  19.238   2.030  1.00  0.00     0.025 C
HETATM   33  C5  UNL     1       4.829  18.982   3.054  1.00  0.00     0.025 C
BRANCH  31  34
HETATM   34  C2  UNL     1       6.143  20.918   3.670  1.00  0.00     0.014 C
HETATM   35  C1  UNL     1       6.980  20.253   4.737  1.00  0.00     0.006 C
ENDBRANCH  31  34
ENDBRANCH  29  31
ENDBRANCH  28  29
ENDBRANCH   1  28
TORSDOF 8
ENDMDL