MODEL 5
REMARK VINA RESULT: -6.322658885      2.542      3.295
REMARK  8 active torsions:
REMARK  status: ('A' for Active; 'I' for Inactive)
REMARK    1  A    between atoms: N2_7  and  O1_8
REMARK    2  A    between atoms: O1_8  and  C5_9
REMARK    3  A    between atoms: C5_9  and  C6_10
REMARK    4  A    between atoms: C6_10  and  C7_11
REMARK    5  A    between atoms: C7_11  and  C8_12
REMARK    6  A    between atoms: C8_12  and  C9_13
REMARK    7  A    between atoms: C21_25  and  O2_26
REMARK    8  A    between atoms: C25_31  and  O3_32
ROOT
HETATM    1  C9  UNL     1       1.700  21.795   3.952  1.00  0.00    -0.006 C
HETATM    2  C10 UNL     1       1.461  20.288   3.861  1.00  0.00     0.006 C
HETATM    3  C11 UNL     1       2.075  19.842   2.545  1.00  0.00     0.011 C
HETATM    4  C12 UNL     1       1.820  20.982   1.634  1.00  0.00    -0.025 C
HETATM    5  C13 UNL     1       2.769  21.177   0.503  1.00  0.00     0.016 C
HETATM    6  C14 UNL     1       2.040  22.343  -0.193  1.00  0.00    -0.008 C
HETATM    7  C15 UNL     1       2.125  23.608   0.592  1.00  0.00     0.006 C
HETATM    8  C16 UNL     1       1.574  23.451   2.018  1.00  0.00     0.011 C
HETATM    9  C17 UNL     1       2.012  22.143   2.550  1.00  0.00    -0.032 C
HETATM   10  C18 UNL     1       3.567  22.329   2.605  1.00  0.00     0.016 C
HETATM   11  C19 UNL     1       0.632  21.851  -0.180  1.00  0.00     0.005 C
HETATM   12  C20 UNL     1       0.022  21.489  -1.451  1.00  0.00     0.026 C
HETATM   13  C21 UNL     1       0.093  22.386  -2.604  1.00  0.00     0.123 C
HETATM   14  C22 UNL     1      -0.793  21.589  -3.589  1.00  0.00     0.032 C
HETATM   15  C23 UNL     1      -0.469  20.125  -3.261  1.00  0.00     0.010 C
HETATM   16  C24 UNL     1       0.454  20.163  -2.049  1.00  0.00     0.021 C
HETATM   17  C25 UNL     1       0.025  19.157  -1.016  1.00  0.00     0.123 C
HETATM   18  C26 UNL     1       0.616  19.355   0.319  1.00  0.00     0.042 C
HETATM   19  C27 UNL     1       0.586  20.771   0.860  1.00  0.00    -0.029 C
HETATM   20  C28 UNL     1      -0.742  20.850   1.549  1.00  0.00     0.016 C
ENDROOT
BRANCH   1  21
HETATM   21  C8  UNL     1       0.671  22.490   4.723  1.00  0.00     0.005 C
BRANCH  21  22
HETATM   22  C7  UNL     1       0.632  22.475   6.183  1.00  0.00     0.002 C
BRANCH  22  23
HETATM   23  C6  UNL     1      -0.689  22.215   6.837  1.00  0.00     0.029 C
BRANCH  23  24
HETATM   24  C5  UNL     1      -0.668  22.455   8.333  1.00  0.00     0.202 C
BRANCH  24  25
HETATM   25  O1  UNL     1       0.343  21.604   8.853  1.00  0.00    -0.272 OA
BRANCH  25  26
HETATM   26  N2  UNL     1       0.168  20.313   9.195  1.00  0.00    -0.220 N
HETATM   27  C2  UNL     1       0.649  19.209   8.597  1.00  0.00     0.105 A
HETATM   28  C1  UNL     1       1.515  19.136   7.380  1.00  0.00     0.091 C
HETATM   29  N1  UNL     1       0.232  18.120   9.265  1.00  0.00    -0.353 N
HETATM   30  C3  UNL     1      -0.521  18.498  10.300  1.00  0.00     0.109 A
ATOM     31  H1  UNL     1       0.455  17.155   9.019  1.00  0.00     0.166 HD
HETATM   32  C4  UNL     1      -0.552  19.884  10.243  1.00  0.00     0.142 A
ENDBRANCH  25  26
ENDBRANCH  24  25
ENDBRANCH  23  24
ENDBRANCH  22  23
ENDBRANCH  21  22
ENDBRANCH   1  21
BRANCH  17  33
HETATM   33  O3  UNL     1      -1.380  19.134  -1.012  1.00  0.00    -0.395 OA
ATOM     34  H3  UNL     1      -1.648  18.227  -1.098  1.00  0.00     0.210 HD
ENDBRANCH  17  33
BRANCH  13  35
HETATM   35  O2  UNL     1       1.316  22.451  -3.269  1.00  0.00    -0.395 OA
ATOM     36  H2  UNL     1       2.096  22.404  -2.728  1.00  0.00     0.210 HD
ENDBRANCH  13  35
TORSDOF 8
ENDMDL