MODEL 1
REMARK VINA RESULT: -8.136156379      0.000      0.000
REMARK  6 active torsions:
REMARK  status: ('A' for Active; 'I' for Inactive)
REMARK    1  A    between atoms: C2_2  and  C3_3
REMARK    2  A    between atoms: C2_2  and  C13_15
REMARK    3  A    between atoms: C3_3  and  C4_4
REMARK    4  A    between atoms: C19_22  and  S1_23
REMARK    5  A    between atoms: S1_23  and  N2_26
REMARK    6  A    between atoms: N2_26  and  C20_28
ROOT
HETATM    1  C13 UNL     1       2.056  22.331   2.484  1.00  0.00    -0.027 A
HETATM    2  C14 UNL     1       0.962  22.785   3.195  1.00  0.00     0.011 A
HETATM    3  C15 UNL     1       0.776  22.470   4.501  1.00  0.00     0.023 A
HETATM    4  C16 UNL     1       1.673  21.676   5.186  1.00  0.00     0.046 A
HETATM    5  C17 UNL     1       1.485  21.330   6.586  1.00  0.00     0.099 C
HETATM    6  N1  UNL     1       1.341  21.044   7.697  1.00  0.00    -0.191 NA
HETATM    7  C18 UNL     1       2.752  21.230   4.480  1.00  0.00     0.048 A
HETATM    8  C19 UNL     1       2.974  21.536   3.139  1.00  0.00     0.087 A
ENDROOT
BRANCH   8   9
HETATM    9  S1  UNL     1       4.407  20.886   2.367  1.00  0.00     0.259 S
HETATM   10  O1  UNL     1       5.433  21.879   1.991  1.00  0.00    -0.201 OA
HETATM   11  O2  UNL     1       4.081  19.890   1.278  1.00  0.00    -0.201 OA
BRANCH   9  12
HETATM   12  N2  UNL     1       5.208  19.856   3.566  1.00  0.00    -0.309 N
ATOM     13  H2  UNL     1       4.711  19.211   4.181  1.00  0.00     0.172 HD
BRANCH  12  14
HETATM   14  C20 UNL     1       6.623  20.026   3.578  1.00  0.00     0.123 C
HETATM   15  C21 UNL     1       7.187  19.017   2.494  1.00  0.00     0.029 C
HETATM   16  C22 UNL     1       8.675  19.047   2.516  1.00  0.00     0.029 C
HETATM   17  C23 UNL     1       9.188  20.106   3.457  1.00  0.00     0.233 C
HETATM   18  N3  UNL     1       8.717  19.915   4.795  1.00  0.00    -0.069 N
HETATM   19  C24 UNL     1       7.282  19.701   4.872  1.00  0.00     0.205 C
ATOM     20  H32 UNL     1       9.222  19.156   5.252  1.00  0.00     0.277 HD
ATOM     21  H31 UNL     1       9.001  20.690   5.393  1.00  0.00     0.277 HD
HETATM   22  C25 UNL     1       6.983  18.242   5.224  1.00  0.00     0.042 C
ENDBRANCH  12  14
ENDBRANCH   9  12
ENDBRANCH   8   9
BRANCH   1  23
HETATM   23  C2  UNL     1       2.175  22.703   1.035  1.00  0.00     0.039 C
HETATM   24  C1  UNL     1       2.861  24.064   0.961  1.00  0.00     0.019 C
BRANCH  23  25
HETATM   25  C3  UNL     1       1.019  22.533   0.199  1.00  0.00    -0.009 C
BRANCH  25  26
HETATM   26  C4  UNL     1       0.852  21.713  -1.010  1.00  0.00    -0.012 C
HETATM   27  C5  UNL     1       1.896  21.825  -2.080  1.00  0.00     0.040 C
HETATM   28  C6  UNL     1       1.541  22.318  -3.416  1.00  0.00     0.004 C
HETATM   29  C7  UNL     1       1.886  21.378  -4.566  1.00  0.00     0.000 C
HETATM   30  C8  UNL     1       0.668  20.984  -5.367  1.00  0.00     0.000 C
HETATM   31  C9  UNL     1      -0.027  19.784  -4.762  1.00  0.00     0.000 C
HETATM   32  C10 UNL     1      -1.001  20.264  -3.707  1.00  0.00     0.006 C
HETATM   33  C11 UNL     1      -0.361  20.082  -2.374  1.00  0.00     0.084 C
HETATM   34  C12 UNL     1      -0.514  21.316  -1.458  1.00  0.00     0.267 C
HETATM   35  F1  UNL     1      -1.188  20.840  -0.344  1.00  0.00    -0.201 F
HETATM   36  F2  UNL     1      -1.315  22.162  -2.081  1.00  0.00    -0.201 F
ENDBRANCH  25  26
ENDBRANCH  23  25
ENDBRANCH   1  23
TORSDOF 6
ENDMDL