MODEL 3
REMARK VINA RESULT: -6.855159850      3.359      5.862
REMARK  8 active torsions:
REMARK  status: ('A' for Active; 'I' for Inactive)
REMARK    1  A    between atoms: C2_2  and  C5_5
REMARK       I    between atoms: C5_5  and  N1_7
REMARK    2  A    between atoms: N1_7  and  C6_9
REMARK    3  A    between atoms: C6_9  and  C7_10
REMARK    4  A    between atoms: C7_10  and  C8_11
REMARK    5  A    between atoms: C8_11  and  N2_12
REMARK    6  A    between atoms: N2_12  and  C9_14
REMARK    7  A    between atoms: C11_16  and  C12_17
REMARK    8  A    between atoms: C20_28  and  C21_29
ROOT
HETATM    1  C9  UNL     1      -0.377  19.783  -0.151  1.00  0.00     0.042 A
HETATM    2  C10 UNL     1      -0.094  20.998   0.431  1.00  0.00     0.055 A
HETATM    3  C11 UNL     1       1.213  21.413   0.500  1.00  0.00     0.017 A
HETATM    4  N3  UNL     1       2.231  20.650   0.005  1.00  0.00    -0.358 N
ATOM      5  H3  UNL     1       3.196  20.973   0.064  1.00  0.00     0.166 HD
HETATM    6  C18 UNL     1       1.944  19.467  -0.560  1.00  0.00     0.045 A
HETATM    7  C19 UNL     1       2.960  18.675  -1.070  1.00  0.00     0.042 A
HETATM    8  C20 UNL     1       2.724  17.447  -1.664  1.00  0.00    -0.002 A
HETATM    9  C24 UNL     1       1.419  17.009  -1.744  1.00  0.00     0.013 A
HETATM   10  C25 UNL     1       0.363  17.772  -1.246  1.00  0.00     0.017 A
HETATM   11  C26 UNL     1       0.659  18.987  -0.665  1.00  0.00     0.017 A
ENDROOT
BRANCH   1  12
HETATM   12  N2  UNL     1      -1.584  19.394  -0.219  1.00  0.00    -0.389 N
ATOM     13  H2  UNL     1      -1.800  18.406  -0.085  1.00  0.00     0.159 HD
BRANCH  12  14
HETATM   14  C8  UNL     1      -2.644  20.313  -0.479  1.00  0.00     0.121 C
BRANCH  14  15
HETATM   15  C7  UNL     1      -3.225  20.108  -1.878  1.00  0.00     0.039 C
BRANCH  15  16
HETATM   16  C6  UNL     1      -2.684  21.161  -2.795  1.00  0.00     0.124 C
BRANCH  16  17
HETATM   17  N1  UNL     1      -1.451  20.787  -3.424  1.00  0.00    -0.360 N
HETATM   18  C5  UNL     1      -0.303  21.617  -3.420  1.00  0.00     0.225 C
HETATM   19  O1  UNL     1      -0.259  22.753  -2.866  1.00  0.00    -0.273 OA
ATOM     20  H1  UNL     1      -1.398  19.885  -3.895  1.00  0.00     0.162 HD
BRANCH  18  21
HETATM   21  C2  UNL     1       0.929  21.151  -4.096  1.00  0.00     0.030 C
HETATM   22  C1  UNL     1       2.178  21.639  -3.410  1.00  0.00     0.024 C
HETATM   23  C3  UNL     1       0.933  21.750  -5.506  1.00  0.00     0.024 C
HETATM   24  C4  UNL     1       0.971  19.664  -4.250  1.00  0.00     0.024 C
ENDBRANCH  18  21
ENDBRANCH  16  17
ENDBRANCH  15  16
ENDBRANCH  14  15
ENDBRANCH  12  14
ENDBRANCH   1  12
BRANCH   3  25
HETATM   25  C12 UNL     1       1.571  22.696   1.105  1.00  0.00     0.054 C
HETATM   26  C13 UNL     1       3.000  23.067   0.768  1.00  0.00     0.012 C
HETATM   27  C14 UNL     1       3.272  24.430   1.355  1.00  0.00     0.001 C
HETATM   28  C15 UNL     1       2.025  25.072   1.917  1.00  0.00     0.002 C
HETATM   29  C16 UNL     1       1.372  24.223   2.972  1.00  0.00     0.021 C
HETATM   30  C17 UNL     1       1.454  22.738   2.610  1.00  0.00     0.092 C
HETATM   31 CL1  UNL     1       2.902  22.114   3.424  1.00  0.00    -0.124 Cl
ENDBRANCH   3  25
BRANCH   8  32
HETATM   32  C21 UNL     1       3.860  16.642  -2.192  1.00  0.00     0.294 C
HETATM   33  O2  UNL     1       4.609  16.056  -1.199  1.00  0.00    -0.355 OA
HETATM   34  C22 UNL     1       5.814  15.754  -1.834  1.00  0.00     0.197 C
HETATM   35  C23 UNL     1       6.015  16.988  -2.688  1.00  0.00     0.197 C
HETATM   36  O3  UNL     1       4.726  17.388  -2.952  1.00  0.00    -0.355 OA
ENDBRANCH   8  32
TORSDOF 8
ENDMDL