MODEL 2
REMARK VINA RESULT: -6.803031556      4.874      8.810
REMARK  8 active torsions:
REMARK  status: ('A' for Active; 'I' for Inactive)
REMARK    1  A    between atoms: C2_2  and  C3_3
REMARK    2  A    between atoms: C3_3  and  C4_4
REMARK    3  A    between atoms: C4_4  and  C5_5
REMARK    4  A    between atoms: C14_17  and  C15_18
REMARK    5  A    between atoms: N1_21  and  C18_22
REMARK    6  A    between atoms: C18_22  and  O2_23
REMARK    7  A    between atoms: C18_22  and  C19_25
REMARK    8  A    between atoms: C21_29  and  O3_30
ROOT
HETATM    1  C5  UNL     1      -1.206  20.141  -2.595  1.00  0.00    -0.000 C
HETATM    2  C6  UNL     1       0.036  19.464  -2.054  1.00  0.00    -0.003 C
HETATM    3  C7  UNL     1       0.731  18.856  -3.236  1.00  0.00     0.011 C
HETATM    4  C8  UNL     1       0.810  19.678  -4.458  1.00  0.00     0.080 C
HETATM    5  C9  UNL     1      -0.240  20.666  -4.733  1.00  0.00     0.247 C
HETATM    6  F1  UNL     1      -1.222  20.083  -5.548  1.00  0.00    -0.206 F
HETATM    7  F2  UNL     1       0.299  21.691  -5.503  1.00  0.00    -0.206 F
HETATM    8  C10 UNL     1      -0.953  21.241  -3.517  1.00  0.00     0.062 C
HETATM    9  C11 UNL     1      -0.269  22.459  -3.085  1.00  0.00     0.013 C
HETATM   10  C12 UNL     1       1.051  22.348  -2.436  1.00  0.00     0.033 C
HETATM   11  C13 UNL     1       0.886  21.673  -1.105  1.00  0.00     0.126 C
HETATM   12  O1  UNL     1       2.018  22.030  -0.355  1.00  0.00    -0.378 OA
HETATM   13  C14 UNL     1       2.904  20.974  -0.356  1.00  0.00     0.151 C
HETATM   14  C25 UNL     1       2.362  19.905  -1.236  1.00  0.00     0.042 C
HETATM   15  C26 UNL     1       0.854  20.207  -1.106  1.00  0.00     0.022 C
ENDROOT
BRANCH  13  16
HETATM   16  C15 UNL     1       3.052  20.577   1.110  1.00  0.00     0.152 C
HETATM   17  C16 UNL     1       3.546  19.174   1.302  1.00  0.00     0.054 C
HETATM   18  C17 UNL     1       3.230  18.755   2.714  1.00  0.00     0.127 C
HETATM   19  N1  UNL     1       3.720  19.833   3.658  1.00  0.00    -0.359 N
HETATM   20  C23 UNL     1       2.982  21.039   3.817  1.00  0.00     0.151 C
HETATM   21  C24 UNL     1       3.449  22.063   2.839  1.00  0.00     0.188 C
HETATM   22  O4  UNL     1       3.911  21.525   1.651  1.00  0.00    -0.382 OA
BRANCH  19  23
HETATM   23  C18 UNL     1       4.889  19.523   4.319  1.00  0.00     0.150 C
BRANCH  23  24
HETATM   24  O2  UNL     1       4.715  18.873   5.440  1.00  0.00    -0.346 OA
ATOM     25  H2  UNL     1       5.281  19.158   6.149  1.00  0.00     0.219 HD
ENDBRANCH  23  24
BRANCH  23  26
HETATM   26  C19 UNL     1       6.248  19.804   3.967  1.00  0.00     0.034 A
HETATM   27  C20 UNL     1       7.283  18.833   4.103  1.00  0.00     0.106 A
HETATM   28  N2  UNL     1       8.417  19.374   3.690  1.00  0.00    -0.346 N
HETATM   29  C21 UNL     1       8.255  20.622   3.284  1.00  0.00     0.140 A
ATOM     30  H2  UNL     1       9.312  18.885   3.685  1.00  0.00     0.167 HD
HETATM   31  C22 UNL     1       6.902  20.899   3.455  1.00  0.00     0.073 A
BRANCH  29  32
HETATM   32  O3  UNL     1       9.180  21.515   2.788  1.00  0.00    -0.346 OA
ATOM     33  H3  UNL     1       9.746  22.123   3.249  1.00  0.00     0.219 HD
ENDBRANCH  29  32
ENDBRANCH  23  26
ENDBRANCH  19  23
ENDBRANCH  13  16
BRANCH   1  34
HETATM   34  C4  UNL     1      -2.212  20.262  -1.534  1.00  0.00     0.005 C
BRANCH  34  35
HETATM   35  C3  UNL     1      -3.436  21.061  -1.853  1.00  0.00     0.000 C
BRANCH  35  36
HETATM   36  C2  UNL     1      -4.547  20.602  -0.904  1.00  0.00    -0.005 C
HETATM   37  C1  UNL     1      -5.284  21.838  -0.467  1.00  0.00     0.005 C
ENDBRANCH  35  36
ENDBRANCH  34  35
ENDBRANCH   1  34
TORSDOF 8
ENDMDL