MODEL 5
REMARK VINA RESULT: -6.698799969      4.493      9.243
REMARK  6 active torsions:
REMARK  status: ('A' for Active; 'I' for Inactive)
REMARK    1  A    between atoms: C2_2  and  C3_3
REMARK    2  A    between atoms: N1_8  and  C8_9
REMARK    3  A    between atoms: N2_11  and  C10_12
REMARK    4  A    between atoms: C15_18  and  C16_19
REMARK    5  A    between atoms: C16_19  and  N4_20
REMARK       I    between atoms: N4_20  and  C17_22
REMARK       I    between atoms: C17_22  and  N5_24
REMARK    6  A    between atoms: N5_24  and  C18_26
ROOT
HETATM    1  C10 UNL     1       1.285  20.122   5.924  1.00  0.00     0.096 C
HETATM    2  C11 UNL     1       1.768  20.312   7.153  1.00  0.00     0.110 C
HETATM    3  C12 UNL     1       0.968  20.231   8.343  1.00  0.00     0.089 C
HETATM    4  N3  UNL     1       0.328  20.157   9.308  1.00  0.00    -0.192 NA
ENDROOT
BRANCH   1   5
HETATM    5  N2  UNL     1       2.212  20.240   4.865  1.00  0.00    -0.387 N
HETATM    6  C9  UNL     1       3.205  19.199   4.675  1.00  0.00     0.158 C
HETATM    7  C8  UNL     1       4.521  19.851   4.371  1.00  0.00     0.246 C
HETATM    8  C15 UNL     1       4.382  20.708   3.128  1.00  0.00     0.040 C
HETATM    9  C14 UNL     1       3.445  21.818   3.447  1.00  0.00     0.028 C
HETATM   10  C13 UNL     1       2.123  21.407   4.028  1.00  0.00     0.122 C
BRANCH   7  11
HETATM   11  N1  UNL     1       5.660  19.033   4.328  1.00  0.00     0.096 N
HETATM   12  C7  UNL     1       6.824  19.869   4.613  1.00  0.00     0.273 C
HETATM   13  C6  UNL     1       7.993  19.088   4.028  1.00  0.00     0.031 C
HETATM   14  C5  UNL     1       8.163  17.879   4.894  1.00  0.00     0.012 C
HETATM   15  C3  UNL     1       6.932  17.146   5.256  1.00  0.00    -0.018 C
HETATM   16  C4  UNL     1       7.114  16.627   6.693  1.00  0.00     0.017 C
HETATM   17  C24 UNL     1       5.645  17.849   5.137  1.00  0.00     0.282 C
BRANCH  15  18
HETATM   18  C2  UNL     1       6.888  15.876   4.393  1.00  0.00     0.006 C
HETATM   19  C1  UNL     1       8.087  15.020   4.575  1.00  0.00     0.006 C
ENDBRANCH  15  18
ENDBRANCH   7  11
BRANCH   8  20
HETATM   20  C16 UNL     1       3.929  19.943   1.940  1.00  0.00     0.131 C
BRANCH  20  21
HETATM   21  N4  UNL     1       3.652  20.863   0.858  1.00  0.00    -0.342 N
HETATM   22  C17 UNL     1       2.620  20.606  -0.132  1.00  0.00     0.320 C
HETATM   23  O1  UNL     1       2.006  19.527   0.049  1.00  0.00    -0.247 OA
HETATM   24  N5  UNL     1       2.379  21.514  -1.167  1.00  0.00    -0.309 N
ATOM     25  H5  UNL     1       2.971  22.345  -1.168  1.00  0.00     0.170 HD
ATOM     26  H4  UNL     1       4.200  21.720   0.788  1.00  0.00     0.164 HD
BRANCH  24  27
HETATM   27  C18 UNL     1       1.437  21.443  -2.206  1.00  0.00     0.039 A
HETATM   28  C19 UNL     1       0.154  21.924  -1.943  1.00  0.00     0.053 A
HETATM   29  C20 UNL     1      -0.856  21.910  -2.872  1.00  0.00     0.037 A
HETATM   30 CL1  UNL     1      -2.467  22.512  -2.552  1.00  0.00    -0.084 Cl
HETATM   31  C21 UNL     1      -0.587  21.391  -4.124  1.00  0.00     0.048 A
HETATM   32  C22 UNL     1       0.679  20.914  -4.390  1.00  0.00     0.037 A
HETATM   33 CL2  UNL     1       1.029  20.257  -5.975  1.00  0.00    -0.084 Cl
HETATM   34  C23 UNL     1       1.703  20.934  -3.437  1.00  0.00     0.053 A
ENDBRANCH  24  27
ENDBRANCH  20  21
ENDBRANCH   8  20
ENDBRANCH   1   5
TORSDOF 6
ENDMDL