MODEL 5
REMARK VINA RESULT: -5.628912345      3.020      7.627
REMARK  8 active torsions:
REMARK  status: ('A' for Active; 'I' for Inactive)
REMARK    1  A    between atoms: C2_2  and  C3_3
REMARK    2  A    between atoms: C3_3  and  O2_5
REMARK    3  A    between atoms: O2_5  and  C4_6
REMARK    4  A    between atoms: C6_8  and  C7_9
REMARK    5  A    between atoms: C7_9  and  O3_10
REMARK    6  A    between atoms: C9_14  and  C10_15
REMARK    7  A    between atoms: C16_22  and  C17_23
REMARK    8  A    between atoms: C17_23  and  C18_24
ROOT
HETATM    1  C4  UNL     1       1.687  21.277   3.983  1.00  0.00     0.087 C
HETATM    2  C5  UNL     1       3.159  21.197   4.197  1.00  0.00     0.048 C
HETATM    3  C6  UNL     1       1.440  22.795   3.833  1.00  0.00     0.110 C
HETATM    4  C8  UNL     1       1.287  23.052   2.365  1.00  0.00    -0.065 C
HETATM    5  C9  UNL     1       1.452  24.288   1.905  1.00  0.00    -0.008 C
HETATM    6  C11 UNL     1       1.006  21.765   1.675  1.00  0.00     0.034 C
HETATM    7  C12 UNL     1       1.764  21.440   0.445  1.00  0.00    -0.032 C
HETATM    8  C13 UNL     1       3.292  21.559   0.653  1.00  0.00     0.016 C
HETATM    9  C14 UNL     1       1.502  22.399  -0.695  1.00  0.00     0.011 C
HETATM   10  C15 UNL     1       1.786  21.760  -2.065  1.00  0.00     0.007 C
HETATM   11  C16 UNL     1       0.842  20.672  -2.397  1.00  0.00     0.004 C
HETATM   12  C19 UNL     1       0.442  19.924  -1.155  1.00  0.00    -0.039 C
HETATM   13  C20 UNL     1       0.371  18.408  -1.423  1.00  0.00     0.015 C
HETATM   14  C21 UNL     1      -0.957  20.281  -0.778  1.00  0.00     0.015 C
HETATM   15  C22 UNL     1       1.478  20.053  -0.065  1.00  0.00     0.002 C
HETATM   16  C23 UNL     1       1.245  19.009   0.950  1.00  0.00     0.007 C
HETATM   17  C24 UNL     1       1.654  19.393   2.342  1.00  0.00     0.013 C
HETATM   18  C25 UNL     1       1.086  20.706   2.762  1.00  0.00    -0.004 C
HETATM   19  C26 UNL     1      -0.386  20.350   3.088  1.00  0.00     0.019 C
ENDROOT
BRANCH   1  20
HETATM   20  O2  UNL     1       1.091  20.855   5.220  1.00  0.00    -0.305 OA
BRANCH  20  21
HETATM   21  C3  UNL     1       1.719  20.220   6.243  1.00  0.00     0.282 C
HETATM   22  O1  UNL     1       1.864  20.886   7.308  1.00  0.00    -0.260 OA
BRANCH  21  23
HETATM   23  C2  UNL     1       2.240  18.863   6.240  1.00  0.00     0.072 C
HETATM   24  C1  UNL     1       1.536  17.905   5.721  1.00  0.00     0.017 C
ENDBRANCH  21  23
ENDBRANCH  20  21
ENDBRANCH   1  20
BRANCH   3  25
HETATM   25  C7  UNL     1       0.403  23.349   4.700  1.00  0.00     0.315 C
HETATM   26  F1  UNL     1      -0.841  22.811   4.719  1.00  0.00    -0.219 F
BRANCH  25  27
HETATM   27  O3  UNL     1       0.798  23.514   6.030  1.00  0.00    -0.366 OA
ATOM     28  H3  UNL     1       0.099  23.790   6.612  1.00  0.00     0.213 HD
ENDBRANCH  25  27
ENDBRANCH   3  25
BRANCH   5  29
HETATM   29  C10 UNL     1       1.787  25.516   2.636  1.00  0.00     0.142 C
HETATM   30 CL1  UNL     1       1.037  27.003   2.073  1.00  0.00    -0.126 Cl
ENDBRANCH   5  29
BRANCH  11  31
HETATM   31  C17 UNL     1       1.307  19.863  -3.536  1.00  0.00     0.118 C
BRANCH  31  32
HETATM   32  C18 UNL     1       0.883  20.177  -4.886  1.00  0.00     0.172 C
HETATM   33  O4  UNL     1       0.678  21.292  -5.396  1.00  0.00    -0.648 OA
HETATM   34  O5  UNL     1       0.662  19.114  -5.783  1.00  0.00    -0.648 OA
ENDBRANCH  31  32
ENDBRANCH  11  31
TORSDOF 8
ENDMDL