MODEL 1
REMARK VINA RESULT: -6.965692676      0.000      0.000
REMARK  6 active torsions:
REMARK  status: ('A' for Active; 'I' for Inactive)
REMARK    1  A    between atoms: O1_2  and  C2_3
REMARK    2  A    between atoms: C7_8  and  O2_9
REMARK    3  A    between atoms: O2_9  and  C8_10
REMARK    4  A    between atoms: C8_10  and  C9_11
REMARK    5  A    between atoms: C19_23  and  C20_24
REMARK    6  A    between atoms: N2_28  and  C22_30
ROOT
HETATM    1  C2  UNL     1       2.768  19.730   0.167  1.00  0.00     0.104 A
HETATM    2  C3  UNL     1       2.328  18.627  -0.546  1.00  0.00     0.054 A
HETATM    3  C4  UNL     1       1.708  18.888  -1.778  1.00  0.00     0.007 A
HETATM    4  C5  UNL     1       1.592  20.176  -2.171  1.00  0.00     0.016 A
HETATM    5  C6  UNL     1       2.004  21.282  -1.514  1.00  0.00     0.077 A
HETATM    6  C7  UNL     1       2.625  21.044  -0.276  1.00  0.00     0.129 A
HETATM    7  N1  UNL     1       1.643  22.356  -2.341  1.00  0.00    -0.374 N
ATOM      8  H1  UNL     1       1.812  23.336  -2.114  1.00  0.00     0.161 HD
HETATM    9  C15 UNL     1       0.985  21.891  -3.588  1.00  0.00     0.052 A
HETATM   10  C16 UNL     1       1.799  22.225  -4.781  1.00  0.00     0.043 C
HETATM   11  C17 UNL     1      -0.404  22.429  -3.591  1.00  0.00     0.043 C
HETATM   12  C18 UNL     1       0.964  20.392  -3.434  1.00  0.00     0.002 A
HETATM   13  C19 UNL     1       0.653  19.190  -3.883  1.00  0.00     0.077 A
HETATM   14  C21 UNL     1       1.095  18.157  -2.873  1.00  0.00     0.057 A
HETATM   15  N2  UNL     1       0.872  16.936  -2.996  1.00  0.00    -0.384 N
ATOM     16  H2  UNL     1       0.429  16.671  -3.876  1.00  0.00     0.160 HD
ENDROOT
BRANCH  13  17
HETATM   17  C20 UNL     1      -0.002  18.891  -5.127  1.00  0.00     0.212 C
HETATM   18  O3  UNL     1      -0.958  19.548  -5.593  1.00  0.00    -0.644 OA
HETATM   19  O4  UNL     1       0.423  17.798  -5.911  1.00  0.00    -0.644 OA
ENDBRANCH  13  17
BRANCH  15  20
HETATM   20  C22 UNL     1       1.128  15.870  -2.127  1.00  0.00     0.082 C
HETATM   21  C23 UNL     1       2.472  15.236  -2.195  1.00  0.00     0.031 C
HETATM   22  C24 UNL     1       2.706  14.275  -3.314  1.00  0.00     0.081 C
HETATM   23  C25 UNL     1       1.552  13.327  -3.447  1.00  0.00     0.243 C
HETATM   24  F1  UNL     1       0.836  13.713  -4.595  1.00  0.00    -0.206 F
HETATM   25  F2  UNL     1       2.011  12.047  -3.615  1.00  0.00    -0.206 F
HETATM   26  C26 UNL     1       0.596  13.464  -2.273  1.00  0.00     0.081 C
HETATM   27  C27 UNL     1      -0.018  14.849  -2.291  1.00  0.00     0.031 C
ENDBRANCH  15  20
BRANCH   1  28
HETATM   28  O1  UNL     1       3.397  19.593   1.387  1.00  0.00    -0.353 OA
HETATM   29  C1  UNL     1       2.693  19.126   2.513  1.00  0.00     0.210 C
ENDBRANCH   1  28
BRANCH   6  30
HETATM   30  O2  UNL     1       3.047  22.140   0.414  1.00  0.00    -0.346 OA
BRANCH  30  31
HETATM   31  C8  UNL     1       2.246  23.300   0.599  1.00  0.00     0.180 C
BRANCH  31  32
HETATM   32  C9  UNL     1       2.553  23.838   1.982  1.00  0.00     0.010 C
HETATM   33  C10 UNL     1       1.731  25.087   2.269  1.00  0.00     0.007 C
HETATM   34  C11 UNL     1       1.453  25.149   3.749  1.00  0.00     0.000 C
HETATM   35  C12 UNL     1       0.369  24.122   4.048  1.00  0.00     0.000 C
HETATM   36  C13 UNL     1       0.772  22.810   3.391  1.00  0.00     0.000 C
HETATM   37  C14 UNL     1       2.248  22.794   3.051  1.00  0.00     0.007 C
ENDBRANCH  31  32
ENDBRANCH  30  31
ENDBRANCH   6  30
TORSDOF 6
ENDMDL