MODEL 2
REMARK VINA RESULT: -7.017113376      1.101      1.640
REMARK  8 active torsions:
REMARK  status: ('A' for Active; 'I' for Inactive)
REMARK    1  A    between atoms: C4_4  and  N1_5
REMARK       I    between atoms: N1_5  and  C5_7
REMARK    2  A    between atoms: C5_7  and  C6_9
REMARK    3  A    between atoms: C11_14  and  N2_15
REMARK    4  A    between atoms: C13_20  and  C14_21
REMARK    5  A    between atoms: C14_21  and  O2_22
REMARK    6  A    between atoms: O2_22  and  C15_23
REMARK    7  A    between atoms: C19_28  and  O3_29
REMARK    8  A    between atoms: O3_29  and  C20_30
ROOT
HETATM    1  C1  UNL     1      -0.030  19.646  -0.495  1.00  0.00     0.010 C
HETATM    2  C2  UNL     1      -0.377  20.501  -1.697  1.00  0.00    -0.010 C
HETATM    3  C3  UNL     1      -0.230  19.679  -2.923  1.00  0.00     0.029 C
HETATM    4  C4  UNL     1      -0.831  20.357  -4.150  1.00  0.00     0.086 C
HETATM    5  C10 UNL     1       0.342  20.912  -4.923  1.00  0.00     0.058 C
HETATM    6  C11 UNL     1       1.160  21.906  -4.131  1.00  0.00     0.186 C
HETATM    7  C12 UNL     1       0.494  22.492  -2.964  1.00  0.00     0.040 C
HETATM    8  C13 UNL     1       0.469  21.749  -1.678  1.00  0.00     0.016 C
ENDROOT
BRANCH   8   9
HETATM    9  C14 UNL     1       1.825  21.504  -1.067  1.00  0.00     0.180 C
BRANCH   9  10
HETATM   10  O2  UNL     1       2.314  22.532  -0.340  1.00  0.00    -0.351 OA
BRANCH  10  11
HETATM   11  C15 UNL     1       2.023  23.128   0.841  1.00  0.00     0.074 A
HETATM   12  C16 UNL     1       2.368  24.407   1.203  1.00  0.00     0.079 A
HETATM   13  C17 UNL     1       2.035  24.939   2.430  1.00  0.00     0.121 A
HETATM   14  F1  UNL     1       2.369  26.197   2.797  1.00  0.00    -0.206 F
HETATM   15  C18 UNL     1       1.324  24.170   3.354  1.00  0.00     0.079 A
HETATM   16  C19 UNL     1       0.955  22.887   3.043  1.00  0.00     0.074 A
HETATM   17  C26 UNL     1       1.317  22.388   1.780  1.00  0.00     0.073 A
BRANCH  16  18
HETATM   18  O3  UNL     1       0.257  22.084   3.907  1.00  0.00    -0.346 OA
BRANCH  18  19
HETATM   19  C20 UNL     1       0.800  21.153   4.745  1.00  0.00     0.132 C
HETATM   20  C21 UNL     1       1.148  21.708   6.122  1.00  0.00     0.062 C
HETATM   21  C22 UNL     1       1.387  20.565   7.065  1.00  0.00     0.274 C
HETATM   22  N3  UNL     1       1.741  19.340   6.384  1.00  0.00     0.084 N
HETATM   23  C23 UNL     1       2.025  18.342   7.392  1.00  0.00     0.309 C
HETATM   24  C24 UNL     1       0.685  18.846   5.550  1.00  0.00     0.274 C
HETATM   25  C25 UNL     1      -0.162  19.985   5.028  1.00  0.00     0.062 C
ENDBRANCH  18  19
ENDBRANCH  16  18
ENDBRANCH  10  11
ENDBRANCH   9  10
ENDBRANCH   8   9
BRANCH   6  26
HETATM   26  N2  UNL     1       2.492  21.389  -3.872  1.00  0.00    -0.075 N
ATOM     27  H23 UNL     1       2.943  21.064  -4.727  1.00  0.00     0.274 HD
ATOM     28  H22 UNL     1       3.145  22.134  -3.628  1.00  0.00     0.274 HD
ATOM     29  H21 UNL     1       2.466  20.661  -3.159  1.00  0.00     0.274 HD
ENDBRANCH   6  26
BRANCH   4  30
HETATM   30  N1  UNL     1      -1.468  19.372  -4.999  1.00  0.00    -0.356 N
HETATM   31  C5  UNL     1      -2.834  19.048  -4.819  1.00  0.00     0.225 C
HETATM   32  O1  UNL     1      -3.501  19.617  -3.917  1.00  0.00    -0.273 OA
ATOM     33  H1  UNL     1      -0.929  18.909  -5.730  1.00  0.00     0.162 HD
BRANCH  31  34
HETATM   34  C6  UNL     1      -3.471  18.040  -5.693  1.00  0.00     0.030 C
HETATM   35  C7  UNL     1      -4.217  18.758  -6.798  1.00  0.00     0.024 C
HETATM   36  C8  UNL     1      -4.458  17.243  -4.873  1.00  0.00     0.024 C
HETATM   37  C9  UNL     1      -2.461  17.066  -6.260  1.00  0.00     0.024 C
ENDBRANCH  31  34
ENDBRANCH   4  30
TORSDOF 8
ENDMDL