MODEL 1
REMARK VINA RESULT: -7.491720759      0.000      0.000
REMARK  8 active torsions:
REMARK  status: ('A' for Active; 'I' for Inactive)
REMARK    1  A    between atoms: C2_2  and  C3_3
REMARK    2  A    between atoms: C2_2  and  C10_11
REMARK    3  A    between atoms: C3_3  and  C4_4
REMARK    4  A    between atoms: C4_4  and  N1_5
REMARK    5  A    between atoms: C10_11  and  O1_12
REMARK    6  A    between atoms: C10_11  and  C11_14
REMARK    7  A    between atoms: C12_15  and  C13_16
REMARK    8  A    between atoms: C18_21  and  O2_22
ROOT
HETATM    1  C13 UNL     1       5.577  20.559   2.345  1.00  0.00     0.047 C
HETATM    2  C14 UNL     1       5.777  19.781   3.593  1.00  0.00    -0.029 A
HETATM    3  C15 UNL     1       6.848  19.696   4.387  1.00  0.00     0.021 A
HETATM    4  C16 UNL     1       6.696  19.030   5.579  1.00  0.00     0.016 A
HETATM    5  C17 UNL     1       5.458  18.460   5.930  1.00  0.00     0.038 A
HETATM    6  C18 UNL     1       4.381  18.565   5.067  1.00  0.00     0.072 A
HETATM    7  C19 UNL     1       4.531  19.232   3.872  1.00  0.00    -0.017 A
HETATM    8  C20 UNL     1       3.672  19.361   2.630  1.00  0.00     0.048 C
HETATM    9  C21 UNL     1       4.840  19.399   1.602  1.00  0.00     0.007 C
HETATM   10  C22 UNL     1       5.783  18.325   1.751  1.00  0.00     0.003 A
HETATM   11  C23 UNL     1       6.375  18.188   0.441  1.00  0.00     0.018 A
HETATM   12  C24 UNL     1       7.080  17.924   1.609  1.00  0.00    -0.006 A
HETATM   13  C25 UNL     1       7.439  16.438   1.901  1.00  0.00     0.019 C
HETATM   14  C26 UNL     1       8.333  18.767   1.765  1.00  0.00     0.096 A
HETATM   15  C27 UNL     1       8.828  19.596   0.701  1.00  0.00     0.208 A
HETATM   16  O3  UNL     1       9.328  18.320   0.839  1.00  0.00    -0.374 OA
HETATM   17  C28 UNL     1       8.848  18.967   3.161  1.00  0.00     0.125 C
HETATM   18  C29 UNL     1       8.241  20.116   3.962  1.00  0.00     0.274 C
HETATM   19  F1  UNL     1       8.954  20.255   5.142  1.00  0.00    -0.201 F
HETATM   20  F2  UNL     1       8.288  21.316   3.350  1.00  0.00    -0.201 F
ENDROOT
BRANCH   1  21
HETATM   21  C12 UNL     1       4.569  21.641   2.531  1.00  0.00    -0.018 C
HETATM   22  C11 UNL     1       4.214  22.462   1.573  1.00  0.00     0.001 C
BRANCH  22  23
HETATM   23  C10 UNL     1       3.236  23.537   1.697  1.00  0.00     0.144 C
BRANCH  23  24
HETATM   24  C2  UNL     1       1.888  23.242   1.055  1.00  0.00     0.016 C
HETATM   25  C1  UNL     1       1.045  22.415   2.007  1.00  0.00     0.013 C
BRANCH  24  26
HETATM   26  C3  UNL     1       2.135  22.494  -0.236  1.00  0.00     0.037 C
BRANCH  26  27
HETATM   27  C4  UNL     1       0.926  21.818  -0.799  1.00  0.00     0.273 C
BRANCH  27  28
HETATM   28  N1  UNL     1       0.848  21.904  -2.224  1.00  0.00     0.088 N
HETATM   29  C5  UNL     1      -0.255  21.216  -2.835  1.00  0.00     0.272 C
HETATM   30  C6  UNL     1      -0.379  21.729  -4.258  1.00  0.00     0.030 C
HETATM   31  C7  UNL     1       0.906  21.585  -5.020  1.00  0.00     0.003 C
HETATM   32  C8  UNL     1       2.091  22.063  -4.249  1.00  0.00     0.030 C
HETATM   33  C9  UNL     1       2.072  21.455  -2.845  1.00  0.00     0.272 C
ENDBRANCH  27  28
ENDBRANCH  26  27
ENDBRANCH  24  26
ENDBRANCH  23  24
BRANCH  23  34
HETATM   34  O1  UNL     1       3.719  24.695   1.071  1.00  0.00    -0.391 OA
ATOM     35  H1  UNL     1       4.560  24.878   1.470  1.00  0.00     0.210 HD
ENDBRANCH  23  34
ENDBRANCH  22  23
ENDBRANCH   1  21
BRANCH   6  36
HETATM   36  O2  UNL     1       3.160  18.005   5.398  1.00  0.00    -0.360 OA
ATOM     37  H2  UNL     1       2.360  18.328   5.002  1.00  0.00     0.217 HD
ENDBRANCH   6  36
TORSDOF 8
ENDMDL