MODEL 4
REMARK VINA RESULT: -6.992239398      1.090      1.357
REMARK  9 active torsions:
REMARK  status: ('A' for Active; 'I' for Inactive)
REMARK    1  A    between atoms: C2_2  and  O1_5
REMARK    2  A    between atoms: O1_5  and  C5_6
REMARK       I    between atoms: C5_6  and  N1_8
REMARK    3  A    between atoms: N1_8  and  C6_10
REMARK    4  A    between atoms: C6_10  and  C7_11
REMARK    5  A    between atoms: C7_11  and  N2_12
REMARK    6  A    between atoms: C11_16  and  C12_17
REMARK    7  A    between atoms: C11_16  and  C14_23
REMARK    8  A    between atoms: C12_17  and  C13_18
REMARK    9  A    between atoms: C13_18  and  N3_19
ROOT
HETATM    1  N2  UNL     1       5.764  20.062   3.285  1.00  0.00    -0.359 N
HETATM    2  C8  UNL     1       4.712  19.148   3.340  1.00  0.00     0.064 C
HETATM    3  C9  UNL     1       3.674  19.700   4.283  1.00  0.00     0.046 C
HETATM    4  C10 UNL     1       2.796  20.774   3.871  1.00  0.00     0.020 C
HETATM    5  C11 UNL     1       2.953  21.438   2.532  1.00  0.00    -0.007 C
HETATM    6  C20 UNL     1       4.309  21.380   1.966  1.00  0.00     0.059 C
HETATM    7  C21 UNL     1       5.412  21.381   3.013  1.00  0.00     0.065 C
ENDROOT
BRANCH   1   8
HETATM    8  C7  UNL     1       7.091  19.647   2.911  1.00  0.00     0.067 C
HETATM    9  C22 UNL     1       7.941  20.853   3.031  1.00  0.00     0.037 C
HETATM   10  C23 UNL     1       9.310  20.620   3.636  1.00  0.00     0.003 C
HETATM   11  C24 UNL     1       9.294  20.085   5.030  1.00  0.00     0.000 C
HETATM   12  C25 UNL     1       7.978  19.350   5.250  1.00  0.00     0.003 C
HETATM   13  C26 UNL     1       7.635  18.663   3.950  1.00  0.00     0.037 C
BRANCH   8  14
HETATM   14  C6  UNL     1       6.972  19.023   1.591  1.00  0.00     0.097 C
BRANCH  14  15
HETATM   15  N1  UNL     1       7.966  18.385   0.874  1.00  0.00    -0.314 N
HETATM   16  C5  UNL     1       9.040  18.862   0.126  1.00  0.00     0.365 C
HETATM   17  O2  UNL     1       9.310  20.102  -0.065  1.00  0.00    -0.238 OA
ATOM     18  H1  UNL     1       7.900  17.367   0.897  1.00  0.00     0.170 HD
BRANCH  16  19
HETATM   19  O1  UNL     1       9.955  18.016  -0.513  1.00  0.00    -0.294 OA
BRANCH  19  20
HETATM   20  C2  UNL     1      10.758  17.075   0.163  1.00  0.00     0.061 C
HETATM   21  C1  UNL     1      10.128  15.728  -0.039  1.00  0.00     0.046 C
HETATM   22  C3  UNL     1      10.993  17.392   1.613  1.00  0.00     0.046 C
HETATM   23  C4  UNL     1      12.099  17.102  -0.546  1.00  0.00     0.046 C
ENDBRANCH  19  20
ENDBRANCH  16  19
ENDBRANCH  14  15
ENDBRANCH   8  14
ENDBRANCH   1   8
BRANCH   5  24
HETATM   24  C12 UNL     1       2.024  20.684   1.597  1.00  0.00     0.042 C
BRANCH  24  25
HETATM   25  C13 UNL     1       2.680  20.152   0.364  1.00  0.00     0.230 C
BRANCH  25  26
HETATM   26  N3  UNL     1       2.188  20.912  -0.810  1.00  0.00    -0.079 N
ATOM     27  H33 UNL     1       2.939  21.390  -1.306  1.00  0.00     0.274 HD
ATOM     28  H32 UNL     1       1.882  20.301  -1.568  1.00  0.00     0.274 HD
ATOM     29  H31 UNL     1       1.453  21.551  -0.507  1.00  0.00     0.274 HD
ENDBRANCH  25  26
ENDBRANCH  24  25
ENDBRANCH   5  24
BRANCH   5  30
HETATM   30  C14 UNL     1       2.402  22.831   2.557  1.00  0.00    -0.049 A
HETATM   31  C15 UNL     1       1.571  23.351   3.478  1.00  0.00     0.011 A
HETATM   32  C16 UNL     1       1.137  24.677   3.387  1.00  0.00     0.043 A
HETATM   33  C17 UNL     1       1.551  25.481   2.353  1.00  0.00     0.116 A
HETATM   34  F1  UNL     1       1.119  26.790   2.269  1.00  0.00    -0.206 F
HETATM   35  C18 UNL     1       2.396  24.983   1.402  1.00  0.00     0.043 A
HETATM   36  C19 UNL     1       2.809  23.670   1.515  1.00  0.00     0.011 A
ENDBRANCH   5  30
TORSDOF 9
ENDMDL