MODEL 1
REMARK VINA RESULT: -6.817811286      0.000      0.000
REMARK  7 active torsions:
REMARK  status: ('A' for Active; 'I' for Inactive)
REMARK    1  A    between atoms: C2_2  and  C3_3
REMARK    2  A    between atoms: C8_8  and  C10_10
REMARK    3  A    between atoms: C10_10  and  C11_11
REMARK       I    between atoms: C11_11  and  N1_13
REMARK    4  A    between atoms: C14_16  and  C15_17
REMARK    5  A    between atoms: C20_26  and  O2_27
REMARK    6  A    between atoms: C21_29  and  C22_30
REMARK    7  A    between atoms: C22_30  and  C23_31
ROOT
HETATM    1  C3  UNL     1      -0.823  20.935   5.792  1.00  0.00    -0.076 C
HETATM    2  C4  UNL     1      -0.802  19.720   5.295  1.00  0.00    -0.022 C
HETATM    3  C5  UNL     1       0.377  19.111   4.691  1.00  0.00     0.040 C
HETATM    4  C6  UNL     1       1.496  20.025   4.317  1.00  0.00    -0.005 C
HETATM    5  C7  UNL     1       2.853  19.607   4.911  1.00  0.00     0.025 C
HETATM    6  C8  UNL     1       3.472  19.659   3.532  1.00  0.00    -0.008 C
HETATM    7  C9  UNL     1       4.280  20.914   3.266  1.00  0.00     0.018 C
HETATM    8  C20 UNL     1       2.070  19.686   2.978  1.00  0.00     0.136 C
HETATM    9  C21 UNL     1       1.176  21.478   4.498  1.00  0.00     0.012 C
HETATM   10  C27 UNL     1       0.413  21.745   5.756  1.00  0.00    -0.020 C
HETATM   11  C28 UNL     1       0.203  23.210   5.985  1.00  0.00     0.020 C
HETATM   12  C29 UNL     1       1.262  21.267   6.957  1.00  0.00     0.020 C
ENDROOT
BRANCH   6  13
HETATM   13  C10 UNL     1       4.246  18.453   3.129  1.00  0.00     0.114 C
BRANCH  13  14
HETATM   14  C11 UNL     1       5.723  18.654   3.294  1.00  0.00     0.220 C
HETATM   15  O1  UNL     1       6.149  18.907   4.440  1.00  0.00    -0.273 OA
HETATM   16  N1  UNL     1       6.637  18.569   2.218  1.00  0.00    -0.352 N
HETATM   17  C12 UNL     1       8.031  18.773   2.455  1.00  0.00     0.126 C
HETATM   18  C19 UNL     1       6.076  18.273   0.911  1.00  0.00     0.126 C
HETATM   19  C13 UNL     1       8.832  19.206   1.274  1.00  0.00     0.030 C
HETATM   20  C14 UNL     1       8.276  18.814  -0.052  1.00  0.00     0.041 C
HETATM   21  C18 UNL     1       6.785  19.061  -0.155  1.00  0.00     0.030 C
BRANCH  20  22
HETATM   22  C15 UNL     1       8.921  19.630  -1.112  1.00  0.00     0.045 A
HETATM   23  C16 UNL     1       9.730  19.176  -2.130  1.00  0.00     0.134 A
HETATM   24  N2  UNL     1      10.107  20.233  -2.871  1.00  0.00    -0.289 N
HETATM   25  C17 UNL     1      10.975  20.199  -4.059  1.00  0.00     0.174 C
HETATM   26  N3  UNL     1       9.562  21.317  -2.349  1.00  0.00    -0.021 NA
HETATM   27  N4  UNL     1       8.850  20.960  -1.294  1.00  0.00    -0.286 N
ATOM     28  H4  UNL     1       8.323  21.601  -0.703  1.00  0.00     0.184 HD
ENDBRANCH  20  22
ENDBRANCH  13  14
ENDBRANCH   6  13
BRANCH   8  29
HETATM   29  O2  UNL     1       1.653  18.488   2.402  1.00  0.00    -0.394 OA
ATOM     30  H2  UNL     1       2.079  17.696   2.709  1.00  0.00     0.210 HD
ENDBRANCH   8  29
BRANCH   9  31
HETATM   31  C22 UNL     1       0.681  22.188   3.291  1.00  0.00     0.034 C
BRANCH  31  32
HETATM   32  C23 UNL     1       1.494  23.288   2.780  1.00  0.00    -0.024 C
HETATM   33  C24 UNL     1       2.034  23.366   1.583  1.00  0.00    -0.091 C
HETATM   34  C25 UNL     1       2.848  24.598   1.249  1.00  0.00     0.042 C
HETATM   35  C26 UNL     1       1.890  22.334   0.521  1.00  0.00     0.042 C
ENDBRANCH  31  32
ENDBRANCH   9  31
BRANCH   1  36
HETATM   36  C2  UNL     1      -2.068  21.482   6.392  1.00  0.00     0.030 C
HETATM   37  C1  UNL     1      -3.129  21.680   5.310  1.00  0.00     0.010 C
ENDBRANCH   1  36
TORSDOF 7
ENDMDL