MODEL 3
REMARK VINA RESULT: -5.540959666      3.491      6.468
REMARK  5 active torsions:
REMARK  status: ('A' for Active; 'I' for Inactive)
REMARK    1  A    between atoms: C4_9  and  C5_10
REMARK    2  A    between atoms: C7_14  and  C8_15
REMARK    3  A    between atoms: C11_18  and  C12_19
REMARK    4  A    between atoms: C18_25  and  C19_26
REMARK       I    between atoms: C19_26  and  N3_28
REMARK    5  A    between atoms: N3_28  and  N4_30
ROOT
HETATM    1  C1  UNL     1       2.493  25.011   1.700  1.00  0.00     0.064 C
HETATM    2  C2  UNL     1       1.529  24.105   2.447  1.00  0.00     0.001 C
HETATM    3  N1  UNL     1       0.675  24.643   3.254  1.00  0.00    -0.340 N
ATOM      4  H1  UNL     1       0.683  25.655   3.374  1.00  0.00     0.167 HD
HETATM    5  C3  UNL     1      -0.278  23.871   3.981  1.00  0.00     0.172 C
HETATM    6  S1  UNL     1      -1.345  24.461   5.027  1.00  0.00    -0.041 SA
HETATM    7  N2  UNL     1      -0.207  22.468   3.717  1.00  0.00    -0.357 N
ATOM      8  H2  UNL     1      -0.400  21.773   4.438  1.00  0.00     0.162 HD
HETATM    9  C4  UNL     1       0.169  22.078   2.316  1.00  0.00     0.143 C
HETATM   10  C18 UNL     1       1.603  22.648   2.339  1.00  0.00     0.152 C
ENDROOT
BRANCH   9  11
HETATM   11  C5  UNL     1       0.206  20.633   2.202  1.00  0.00     0.019 A
HETATM   12  S2  UNL     1       0.585  19.669   3.531  1.00  0.00    -0.079 SA
HETATM   13  C6  UNL     1       0.469  18.131   2.811  1.00  0.00     0.086 A
HETATM   14 CL1  UNL     1       0.720  16.596   3.670  1.00  0.00    -0.075 Cl
HETATM   15  C7  UNL     1       0.121  18.397   1.508  1.00  0.00     0.006 A
HETATM   16  C11 UNL     1      -0.015  19.721   1.172  1.00  0.00    -0.006 A
BRANCH  15  17
HETATM   17  C8  UNL     1      -0.043  17.227   0.581  1.00  0.00    -0.074 C
HETATM   18  C9  UNL     1      -1.323  16.467   0.781  1.00  0.00     0.044 C
HETATM   19  C10 UNL     1       1.131  16.483   0.143  1.00  0.00     0.044 C
ENDBRANCH  15  17
BRANCH  16  20
HETATM   20  C12 UNL     1      -0.319  20.229  -0.195  1.00  0.00    -0.068 C
HETATM   21  C13 UNL     1      -1.828  20.129  -0.469  1.00  0.00     0.035 C
HETATM   22  C14 UNL     1      -2.244  21.188  -1.445  1.00  0.00     0.004 C
HETATM   23  C15 UNL     1      -1.094  21.695  -2.256  1.00  0.00     0.001 C
HETATM   24  C16 UNL     1      -0.051  20.688  -2.547  1.00  0.00     0.004 C
HETATM   25  C17 UNL     1       0.572  20.019  -1.302  1.00  0.00     0.035 C
ENDBRANCH  16  20
ENDBRANCH   9  11
BRANCH  10  26
HETATM   26  C19 UNL     1       2.461  22.110   1.267  1.00  0.00     0.248 C
HETATM   27  O1  UNL     1       2.329  22.430   0.087  1.00  0.00    -0.271 OA
HETATM   28  N3  UNL     1       3.468  21.194   1.642  1.00  0.00    -0.264 N
ATOM     29  H3  UNL     1       3.530  20.955   2.631  1.00  0.00     0.190 HD
BRANCH  28  30
HETATM   30  N4  UNL     1       4.388  20.582   0.787  1.00  0.00    -0.280 N
HETATM   31  C20 UNL     1       3.983  19.305   0.363  1.00  0.00     0.114 C
HETATM   32  C21 UNL     1       5.096  18.473  -0.196  1.00  0.00     0.214 C
HETATM   33  O2  UNL     1       6.258  18.662   0.586  1.00  0.00    -0.381 OA
HETATM   34  C22 UNL     1       6.688  19.962   0.321  1.00  0.00     0.214 C
HETATM   35  C23 UNL     1       5.725  20.950   0.929  1.00  0.00     0.114 C
ENDBRANCH  28  30
ENDBRANCH  10  26
TORSDOF 5
ENDMDL