MODEL 1
REMARK VINA RESULT: -6.888319875      0.000      0.000
REMARK  6 active torsions:
REMARK  status: ('A' for Active; 'I' for Inactive)
REMARK    1  A    between atoms: C2_2  and  C3_3
REMARK    2  A    between atoms: C2_2  and  C5_7
REMARK    3  A    between atoms: C3_3  and  C4_4
REMARK    4  A    between atoms: C12_16  and  O5_17
REMARK    5  A    between atoms: C20_26  and  O6_27
REMARK    6  A    between atoms: O6_27  and  C21_28
ROOT
HETATM    1  C5  UNL     1       2.478  21.068   1.793  1.00  0.00     0.145 C
HETATM    2  O3  UNL     1       2.564  21.412   3.186  1.00  0.00    -0.315 OA
HETATM    3  C6  UNL     1       2.817  20.227   3.801  1.00  0.00     0.264 C
HETATM    4  O4  UNL     1       2.326  19.779   4.869  1.00  0.00    -0.265 OA
HETATM    5  C7  UNL     1       3.833  19.529   2.934  1.00  0.00     0.101 C
HETATM    6  C8  UNL     1       5.020  19.379   3.766  1.00  0.00     0.011 C
HETATM    7  C9  UNL     1       5.733  20.622   4.208  1.00  0.00     0.007 C
HETATM    8  C10 UNL     1       6.907  21.002   3.381  1.00  0.00     0.008 C
HETATM    9  C11 UNL     1       7.104  20.121   2.201  1.00  0.00     0.023 C
HETATM   10  C12 UNL     1       6.190  20.348   1.068  1.00  0.00     0.123 C
HETATM   11  C13 UNL     1       4.952  21.126   1.330  1.00  0.00     0.044 C
HETATM   12  C14 UNL     1       3.772  20.284   1.672  1.00  0.00    -0.002 C
HETATM   13  C15 UNL     1       3.530  19.381   0.461  1.00  0.00     0.019 C
HETATM   14  C16 UNL     1       7.123  18.638   2.613  1.00  0.00    -0.028 C
HETATM   15  C17 UNL     1       7.300  17.850   1.339  1.00  0.00     0.016 C
HETATM   16  C18 UNL     1       8.421  18.384   3.404  1.00  0.00     0.013 C
HETATM   17  C19 UNL     1       7.968  17.201   4.231  1.00  0.00     0.034 C
HETATM   18  C20 UNL     1       6.672  17.785   4.773  1.00  0.00     0.131 C
HETATM   19  C27 UNL     1       5.982  18.235   3.461  1.00  0.00    -0.006 C
HETATM   20  C28 UNL     1       5.230  17.013   3.075  1.00  0.00     0.019 C
ENDROOT
BRANCH  18  21
HETATM   21  O6  UNL     1       5.944  16.869   5.477  1.00  0.00    -0.380 OA
BRANCH  21  22
HETATM   22  C21 UNL     1       5.765  17.086   6.811  1.00  0.00     0.122 C
HETATM   23  C22 UNL     1       4.342  16.823   7.200  1.00  0.00     0.035 C
HETATM   24  C23 UNL     1       4.197  15.434   7.777  1.00  0.00     0.040 C
HETATM   25  C24 UNL     1       4.939  15.345   9.114  1.00  0.00     0.170 C
HETATM   26  F1  UNL     1       4.989  14.034   9.523  1.00  0.00    -0.249 F
HETATM   27  C25 UNL     1       6.306  15.947   8.974  1.00  0.00     0.040 C
HETATM   28  C26 UNL     1       6.667  16.059   7.527  1.00  0.00     0.035 C
ENDBRANCH  21  22
ENDBRANCH  18  21
BRANCH  10  29
HETATM   29  O5  UNL     1       6.940  20.993   0.043  1.00  0.00    -0.395 OA
ATOM     30  H5  UNL     1       7.116  20.345  -0.628  1.00  0.00     0.210 HD
ENDBRANCH  10  29
BRANCH   1  31
HETATM   31  C2  UNL     1       2.277  22.246   0.951  1.00  0.00     0.022 C
HETATM   32  C1  UNL     1       1.407  21.999  -0.240  1.00  0.00     0.013 C
BRANCH  31  33
HETATM   33  C3  UNL     1       1.709  23.404   1.730  1.00  0.00     0.120 C
BRANCH  33  34
HETATM   34  C4  UNL     1       2.401  24.670   1.599  1.00  0.00     0.172 C
HETATM   35  O1  UNL     1       3.566  24.734   1.141  1.00  0.00    -0.648 OA
HETATM   36  O2  UNL     1       1.835  25.890   1.967  1.00  0.00    -0.648 OA
ENDBRANCH  33  34
ENDBRANCH  31  33
ENDBRANCH   1  31
TORSDOF 6
ENDMDL