MODEL 3
REMARK VINA RESULT: -6.231294130      4.700      7.518
REMARK  8 active torsions:
REMARK  status: ('A' for Active; 'I' for Inactive)
REMARK    1  A    between atoms: C2_2  and  C4_4
REMARK    2  A    between atoms: C4_4  and  C5_5
REMARK    3  A    between atoms: C6_6  and  C7_7
REMARK    4  A    between atoms: C7_7  and  O1_8
REMARK    5  A    between atoms: C7_7  and  C25_33
REMARK    6  A    between atoms: O1_8  and  C8_9
REMARK    7  A    between atoms: C13_15  and  O2_16
REMARK    8  A    between atoms: C17_22  and  O4_23
ROOT
HETATM    1  C8  UNL     1       8.307  19.394   0.496  1.00  0.00     0.163 C
HETATM    2  C9  UNL     1       9.497  18.676   1.040  1.00  0.00     0.050 C
HETATM    3  C10 UNL     1       9.907  17.369   0.402  1.00  0.00     0.000 C
HETATM    4  C11 UNL     1      10.862  16.804   1.517  1.00  0.00     0.021 C
HETATM    5  C12 UNL     1       8.817  16.423   0.377  1.00  0.00     0.030 C
HETATM    6 CL1  UNL     1       9.210  14.841  -0.344  1.00  0.00    -0.090 Cl
HETATM    7  C13 UNL     1       7.439  16.818  -0.040  1.00  0.00     0.197 C
HETATM    8  C14 UNL     1       7.358  17.775  -1.164  1.00  0.00     0.125 A
HETATM    9  C15 UNL     1       6.741  17.223  -2.409  1.00  0.00     0.052 C
HETATM   10  O3  UNL     1       6.516  18.985  -0.969  1.00  0.00    -0.355 OA
HETATM   11  C16 UNL     1       7.869  19.006  -0.838  1.00  0.00     0.147 A
HETATM   12  C17 UNL     1       8.782  19.679  -1.828  1.00  0.00     0.159 C
HETATM   13  C18 UNL     1       9.655  18.804  -2.626  1.00  0.00     0.052 C
HETATM   14  C19 UNL     1      10.681  17.956  -2.044  1.00  0.00     0.024 C
HETATM   15  C20 UNL     1      12.019  18.607  -2.527  1.00  0.00     0.024 C
HETATM   16  C21 UNL     1      10.752  16.643  -2.768  1.00  0.00     0.135 C
HETATM   17  O5  UNL     1      10.050  16.185  -3.632  1.00  0.00    -0.297 OA
HETATM   18  C22 UNL     1      11.937  15.993  -2.158  1.00  0.00     0.079 C
HETATM   19  C23 UNL     1      11.937  16.508  -0.759  1.00  0.00     0.014 C
HETATM   20  C24 UNL     1      10.867  17.608  -0.686  1.00  0.00     0.015 C
ENDROOT
BRANCH   1  21
HETATM   21  O1  UNL     1       7.367  19.509   1.529  1.00  0.00    -0.373 OA
BRANCH  21  22
HETATM   22  C7  UNL     1       7.839  19.145   2.782  1.00  0.00     0.152 C
BRANCH  22  23
HETATM   23  C6  UNL     1       6.789  18.202   3.350  1.00  0.00     0.001 C
HETATM   24  C5  UNL     1       7.021  16.984   3.727  1.00  0.00    -0.028 C
BRANCH  24  25
HETATM   25  C4  UNL     1       8.290  16.230   3.696  1.00  0.00     0.030 C
BRANCH  25  26
HETATM   26  C2  UNL     1       8.650  15.801   5.107  1.00  0.00    -0.019 C
HETATM   27  C1  UNL     1       9.648  14.655   5.029  1.00  0.00     0.010 C
HETATM   28  C3  UNL     1       7.438  15.339   5.866  1.00  0.00     0.010 C
ENDBRANCH  25  26
ENDBRANCH  24  25
ENDBRANCH  22  23
BRANCH  22  29
HETATM   29  C25 UNL     1       8.035  20.305   3.658  1.00  0.00    -0.022 C
HETATM   30  C26 UNL     1       9.339  21.009   3.421  1.00  0.00     0.017 C
HETATM   31  C27 UNL     1       8.011  19.955   5.139  1.00  0.00     0.017 C
HETATM   32  C28 UNL     1       6.882  21.283   3.404  1.00  0.00     0.017 C
ENDBRANCH  22  29
ENDBRANCH  21  22
ENDBRANCH   1  21
BRANCH  12  33
HETATM   33  O4  UNL     1       9.554  20.705  -1.291  1.00  0.00    -0.392 OA
ATOM     34  H4  UNL     1       9.808  21.374  -1.916  1.00  0.00     0.210 HD
ENDBRANCH  12  33
BRANCH   7  35
HETATM   35  O2  UNL     1       6.743  15.638  -0.341  1.00  0.00    -0.387 OA
ATOM     36  H2  UNL     1       5.817  15.822  -0.234  1.00  0.00     0.210 HD
ENDBRANCH   7  35
TORSDOF 8
ENDMDL