MODEL 3
REMARK VINA RESULT: -6.927834914      3.695      4.930
REMARK  8 active torsions:
REMARK  status: ('A' for Active; 'I' for Inactive)
REMARK    1  A    between atoms: C2_2  and  C3_3
REMARK    2  A    between atoms: C3_3  and  C4_4
REMARK    3  A    between atoms: C4_4  and  N1_5
REMARK       I    between atoms: C5_7  and  N2_8
REMARK       I    between atoms: C5_7  and  N3_21
REMARK    4  A    between atoms: N2_8  and  C6_10
REMARK    5  A    between atoms: N3_21  and  C16_23
REMARK    6  A    between atoms: C20_29  and  C21_30
REMARK       I    between atoms: N4_31  and  C22_33
REMARK    7  A    between atoms: C22_33  and  O4_35
REMARK    8  A    between atoms: O4_35  and  C23_36
ROOT
HETATM    1  N1  UNL     1       0.304  22.411   4.105  1.00  0.00    -0.227 N
ATOM      2  H1  UNL     1       0.125  22.351   5.108  1.00  0.00     0.177 HD
HETATM    3  C5  UNL     1       0.791  21.370   3.491  1.00  0.00     0.670 C
HETATM    4  N2  UNL     1       1.066  21.381   2.103  1.00  0.00    -0.219 N
ATOM      5  H2  UNL     1       1.721  22.079   1.748  1.00  0.00     0.178 HD
HETATM    6  N3  UNL     1       1.025  20.213   4.273  1.00  0.00    -0.212 N
ATOM      7  H3  UNL     1       0.282  19.517   4.330  1.00  0.00     0.178 HD
ENDROOT
BRANCH   1   8
HETATM    8  C4  UNL     1       0.012  23.640   3.420  1.00  0.00     0.138 C
BRANCH   8   9
HETATM    9  C3  UNL     1       0.805  24.819   3.877  1.00  0.00     0.020 C
BRANCH   9  10
HETATM   10  C2  UNL     1       1.314  25.694   2.753  1.00  0.00    -0.003 C
HETATM   11  C1  UNL     1       2.073  24.898   1.719  1.00  0.00     0.005 C
ENDBRANCH   9  10
ENDBRANCH   8   9
ENDBRANCH   1   8
BRANCH   4  12
HETATM   12  C6  UNL     1       0.473  20.460   1.161  1.00  0.00     0.133 C
HETATM   13  C7  UNL     1      -0.996  20.663   1.180  1.00  0.00     0.028 C
HETATM   14  C8  UNL     1      -1.774  19.825   0.192  1.00  0.00     0.002 C
HETATM   15  C9  UNL     1      -2.700  20.624  -0.639  1.00  0.00     0.000 C
HETATM   16  C10 UNL     1      -2.413  20.842  -2.062  1.00  0.00     0.000 C
HETATM   17  C11 UNL     1      -1.220  20.252  -2.696  1.00  0.00     0.000 C
HETATM   18  C12 UNL     1      -0.021  21.160  -2.813  1.00  0.00     0.000 C
HETATM   19  C13 UNL     1       0.131  22.193  -1.785  1.00  0.00     0.003 C
HETATM   20  C14 UNL     1       1.206  21.942  -0.747  1.00  0.00     0.039 C
HETATM   21  C15 UNL     1       1.169  20.582  -0.130  1.00  0.00     0.193 C
HETATM   22  F1  UNL     1       2.516  20.237   0.105  1.00  0.00    -0.247 F
ENDBRANCH   4  12
BRANCH   6  23
HETATM   23  C16 UNL     1       2.236  19.958   4.986  1.00  0.00     0.210 C
HETATM   24  C17 UNL     1       2.045  19.319   6.312  1.00  0.00     0.283 C
HETATM   25  O1  UNL     1       1.240  19.635   7.220  1.00  0.00    -0.263 OA
HETATM   26  O2  UNL     1       2.944  18.239   6.432  1.00  0.00    -0.314 OA
HETATM   27  C18 UNL     1       3.988  18.502   5.492  1.00  0.00     0.139 C
HETATM   28  C19 UNL     1       4.764  17.253   5.231  1.00  0.00     0.041 C
HETATM   29  C20 UNL     1       3.147  18.945   4.296  1.00  0.00     0.086 C
BRANCH  29  30
HETATM   30  C21 UNL     1       4.027  19.617   3.308  1.00  0.00     0.076 C
HETATM   31  N4  UNL     1       4.873  20.508   3.663  1.00  0.00    -0.316 N
HETATM   32  C22 UNL     1       5.728  21.167   2.741  1.00  0.00     0.365 C
ATOM     33  H4  UNL     1       4.936  20.755   4.651  1.00  0.00     0.170 HD
HETATM   34  O3  UNL     1       5.340  21.529   1.600  1.00  0.00    -0.238 OA
BRANCH  32  35
HETATM   35  O4  UNL     1       7.041  21.435   3.079  1.00  0.00    -0.294 OA
BRANCH  35  36
HETATM   36  C23 UNL     1       7.997  20.461   3.405  1.00  0.00     0.061 C
HETATM   37  C24 UNL     1       7.800  19.913   4.803  1.00  0.00     0.046 C
HETATM   38  C25 UNL     1       7.867  19.324   2.417  1.00  0.00     0.046 C
HETATM   39  C26 UNL     1       9.362  21.087   3.279  1.00  0.00     0.046 C
ENDBRANCH  35  36
ENDBRANCH  32  35
ENDBRANCH  29  30
ENDBRANCH   6  23
TORSDOF 8
ENDMDL