MODEL 5
REMARK VINA RESULT: -6.696463520      4.358     10.738
REMARK  9 active torsions:
REMARK  status: ('A' for Active; 'I' for Inactive)
REMARK    1  A    between atoms: O1_2  and  C2_3
REMARK    2  A    between atoms: C2_3  and  C3_5
REMARK    3  A    between atoms: C3_5  and  N1_6
REMARK    4  A    between atoms: C3_5  and  C4_10
REMARK    5  A    between atoms: C4_10  and  C5_11
REMARK    6  A    between atoms: C5_11  and  C6_12
REMARK    7  A    between atoms: C6_12  and  C8_14
REMARK    8  A    between atoms: C21_27  and  O3_28
REMARK    9  A    between atoms: C21_27  and  C22_30
ROOT
HETATM    1  C8  UNL     1       0.676  23.319   3.267  1.00  0.00    -0.007 C
HETATM    2  C9  UNL     1       0.993  22.609   4.602  1.00  0.00     0.006 C
HETATM    3  C10 UNL     1       1.481  21.184   4.353  1.00  0.00     0.010 C
HETATM    4  C11 UNL     1       2.876  21.366   3.817  1.00  0.00     0.019 C
HETATM    5  C12 UNL     1       2.748  22.083   2.524  1.00  0.00    -0.079 C
HETATM    6  C13 UNL     1       3.827  22.151   1.772  1.00  0.00    -0.023 C
HETATM    7  C14 UNL     1       5.111  21.558   2.167  1.00  0.00     0.033 C
HETATM    8  C15 UNL     1       5.141  20.766   3.413  1.00  0.00     0.006 C
HETATM    9  C16 UNL     1       3.741  20.185   3.742  1.00  0.00     0.002 C
HETATM   10  C17 UNL     1       3.389  19.158   2.691  1.00  0.00     0.033 C
HETATM   11  C18 UNL     1       4.524  18.212   2.479  1.00  0.00    -0.023 C
HETATM   12  C19 UNL     1       5.763  18.459   2.795  1.00  0.00    -0.072 C
HETATM   13  C20 UNL     1       6.881  17.498   2.581  1.00  0.00     0.077 C
HETATM   14  C21 UNL     1       7.664  17.241   3.832  1.00  0.00     0.090 C
HETATM   15  C27 UNL     1       7.592  18.277   4.882  1.00  0.00     0.044 C
HETATM   16  C28 UNL     1       6.509  19.268   4.866  1.00  0.00     0.017 C
HETATM   17  C29 UNL     1       6.198  19.737   3.431  1.00  0.00    -0.016 C
HETATM   18  C30 UNL     1       7.448  20.306   2.797  1.00  0.00     0.020 C
HETATM   19  C31 UNL     1       1.441  22.665   2.163  1.00  0.00     0.039 C
ENDROOT
BRANCH   1  20
HETATM   20  C6  UNL     1       0.901  24.790   3.425  1.00  0.00    -0.014 C
HETATM   21  C7  UNL     1       1.642  25.283   2.121  1.00  0.00     0.010 C
BRANCH  20  22
HETATM   22  C5  UNL     1      -0.263  25.709   3.455  1.00  0.00     0.007 C
BRANCH  22  23
HETATM   23  C4  UNL     1      -1.246  25.675   4.530  1.00  0.00     0.043 C
BRANCH  23  24
HETATM   24  C3  UNL     1      -0.927  25.880   5.954  1.00  0.00     0.282 C
BRANCH  24  25
HETATM   25  C2  UNL     1      -1.707  27.102   6.457  1.00  0.00     0.289 C
HETATM   26  O2  UNL     1      -1.357  27.597   7.541  1.00  0.00    -0.263 OA
BRANCH  25  27
HETATM   27  O1  UNL     1      -2.720  27.540   5.662  1.00  0.00    -0.325 OA
HETATM   28  C1  UNL     1      -2.886  28.903   5.378  1.00  0.00     0.213 C
ENDBRANCH  25  27
ENDBRANCH  24  25
BRANCH  24  29
HETATM   29  N1  UNL     1      -1.368  24.781   6.799  1.00  0.00    -0.066 N
ATOM     30  H13 UNL     1      -1.444  25.023   7.787  1.00  0.00     0.275 HD
ATOM     31  H12 UNL     1      -2.346  24.523   6.666  1.00  0.00     0.275 HD
ATOM     32  H11 UNL     1      -0.711  24.024   6.608  1.00  0.00     0.275 HD
ENDBRANCH  24  29
ENDBRANCH  23  24
ENDBRANCH  22  23
ENDBRANCH  20  22
ENDBRANCH   1  20
BRANCH  14  33
HETATM   33  O3  UNL     1       9.018  17.174   3.424  1.00  0.00    -0.385 OA
ATOM     34  H3  UNL     1       9.188  17.993   2.974  1.00  0.00     0.211 HD
ENDBRANCH  14  33
BRANCH  14  35
HETATM   35  C22 UNL     1       7.431  15.891   4.405  1.00  0.00    -0.008 A
HETATM   36  C23 UNL     1       6.387  15.060   4.136  1.00  0.00     0.016 A
HETATM   37  C24 UNL     1       6.230  13.797   4.695  1.00  0.00     0.062 A
HETATM   38  C25 UNL     1       7.205  13.377   5.580  1.00  0.00     0.188 A
HETATM   39  F1  UNL     1       7.053  12.140   6.126  1.00  0.00    -0.186 F
HETATM   40  N2  UNL     1       8.250  14.170   5.869  1.00  0.00    -0.342 N
HETATM   41  C26 UNL     1       8.368  15.404   5.300  1.00  0.00     0.100 A
ATOM     42  H2  UNL     1       8.964  13.846   6.522  1.00  0.00     0.167 HD
ENDBRANCH  14  35
TORSDOF 9
ENDMDL