MODEL 2
REMARK VINA RESULT: -6.527552688      2.284      7.979
REMARK  7 active torsions:
REMARK  status: ('A' for Active; 'I' for Inactive)
REMARK    1  A    between atoms: C4_4  and  C5_6
REMARK    2  A    between atoms: C5_6  and  C6_7
REMARK    3  A    between atoms: C16_20  and  C17_21
REMARK    4  A    between atoms: C17_21  and  C19_23
REMARK    5  A    between atoms: C19_23  and  C20_24
REMARK    6  A    between atoms: C20_24  and  O5_26
REMARK    7  A    between atoms: C29_35  and  O6_36
ROOT
HETATM    1  C1  UNL     1       0.619  23.474   2.591  1.00  0.00     0.017 C
HETATM    2  C2  UNL     1       1.405  22.450   2.886  1.00  0.00    -0.054 C
HETATM    3  C3  UNL     1       2.386  22.148   1.804  1.00  0.00     0.081 C
HETATM    4  C4  UNL     1       2.257  20.745   1.379  1.00  0.00     0.128 C
HETATM    5  F1  UNL     1       2.736  20.491   0.074  1.00  0.00    -0.241 F
HETATM    6  C7  UNL     1       3.031  19.769   2.251  1.00  0.00     0.024 C
HETATM    7  C8  UNL     1       2.398  18.418   1.819  1.00  0.00     0.024 C
HETATM    8  C9  UNL     1       2.706  19.889   3.698  1.00  0.00    -0.045 C
HETATM    9  C10 UNL     1       3.493  19.191   4.518  1.00  0.00    -0.018 C
HETATM   10  C11 UNL     1       4.642  18.334   4.064  1.00  0.00     0.033 C
HETATM   11  C12 UNL     1       5.327  19.152   3.047  1.00  0.00    -0.001 C
HETATM   12  C13 UNL     1       6.589  18.529   2.589  1.00  0.00     0.006 C
HETATM   13  C14 UNL     1       6.431  17.260   1.805  1.00  0.00     0.084 C
HETATM   14  C15 UNL     1       7.254  17.479   0.585  1.00  0.00     0.132 C
HETATM   15  O3  UNL     1       7.073  16.925  -0.474  1.00  0.00    -0.298 OA
HETATM   16  C16 UNL     1       8.270  18.480   0.997  1.00  0.00     0.068 C
HETATM   17  C22 UNL     1       7.393  19.489   1.685  1.00  0.00    -0.029 C
HETATM   18  C23 UNL     1       8.101  20.408   2.621  1.00  0.00     0.016 C
HETATM   19  C24 UNL     1       6.512  20.237   0.756  1.00  0.00     0.011 C
HETATM   20  C25 UNL     1       5.249  20.792   1.393  1.00  0.00     0.007 C
HETATM   21  C26 UNL     1       4.458  19.653   1.912  1.00  0.00     0.006 C
HETATM   22  C27 UNL     1       1.732  20.582   4.557  1.00  0.00    -0.044 C
HETATM   23  C28 UNL     1       0.647  19.618   5.088  1.00  0.00     0.047 C
HETATM   24  C29 UNL     1       1.136  21.852   4.193  1.00  0.00     0.176 C
ENDROOT
BRANCH  16  25
HETATM   25  C17 UNL     1       9.017  18.953  -0.181  1.00  0.00     0.003 C
HETATM   26  C18 UNL     1      10.252  18.060  -0.323  1.00  0.00     0.011 C
BRANCH  25  27
HETATM   27  C19 UNL     1       9.478  20.366  -0.175  1.00  0.00     0.116 C
BRANCH  27  28
HETATM   28  C20 UNL     1       9.362  20.928  -1.543  1.00  0.00     0.258 C
HETATM   29  O4  UNL     1       8.698  20.432  -2.481  1.00  0.00    -0.265 OA
BRANCH  28  30
HETATM   30  O5  UNL     1      10.040  22.123  -1.859  1.00  0.00    -0.326 OA
HETATM   31  C21 UNL     1      11.189  22.535  -1.139  1.00  0.00     0.213 C
ENDBRANCH  28  30
ENDBRANCH  27  28
ENDBRANCH  25  27
ENDBRANCH  16  25
BRANCH   4  32
HETATM   32  C5  UNL     1       0.795  20.401   1.240  1.00  0.00     0.158 C
BRANCH  32  33
HETATM   33  C6  UNL     1       0.274  20.592  -0.142  1.00  0.00     0.175 C
HETATM   34  O1  UNL     1      -0.020  21.730  -0.586  1.00  0.00    -0.648 OA
HETATM   35  O2  UNL     1       0.098  19.508  -0.978  1.00  0.00    -0.648 OA
ENDBRANCH  32  33
ENDBRANCH   4  32
BRANCH  24  36
HETATM   36  O6  UNL     1       1.395  22.897   5.125  1.00  0.00    -0.387 OA
ATOM     37  H6  UNL     1       1.452  22.458   5.966  1.00  0.00     0.210 HD
ENDBRANCH  24  36
TORSDOF 7
ENDMDL