MODEL 4
REMARK VINA RESULT: -6.049987823      2.930      4.663
REMARK  8 active torsions:
REMARK  status: ('A' for Active; 'I' for Inactive)
REMARK    1  A    between atoms: C2_2  and  O1_3
REMARK    2  A    between atoms: O1_3  and  C3_4
REMARK    3  A    between atoms: C3_4  and  C4_6
REMARK    4  A    between atoms: C13_15  and  O3_16
REMARK    5  A    between atoms: C15_20  and  O4_21
REMARK    6  A    between atoms: C17_24  and  C18_25
REMARK    7  A    between atoms: C18_25  and  C19_26
REMARK    8  A    between atoms: C19_26  and  N1_27
ROOT
HETATM    1  C4  UNL     1       6.238  19.038   0.422  1.00  0.00     0.094 C
HETATM    2  C5  UNL     1       5.235  18.113  -0.251  1.00  0.00     0.016 C
HETATM    3  C6  UNL     1       3.949  18.937   0.028  1.00  0.00     0.007 C
HETATM    4  C7  UNL     1       4.033  19.083   1.470  1.00  0.00    -0.001 C
HETATM    5  C8  UNL     1       3.264  20.071   2.231  1.00  0.00    -0.005 C
HETATM    6  C9  UNL     1       1.959  19.660   2.825  1.00  0.00     0.010 C
HETATM    7  C10 UNL     1       0.914  19.150   1.962  1.00  0.00     0.040 C
HETATM    8  C11 UNL     1       0.696  19.842   0.693  1.00  0.00    -0.046 A
HETATM    9  C12 UNL     1      -0.278  19.146  -0.055  1.00  0.00     0.045 A
HETATM   10  C13 UNL     1      -0.663  19.569  -1.275  1.00  0.00     0.086 A
HETATM   11  C14 UNL     1      -0.085  20.696  -1.780  1.00  0.00     0.077 A
HETATM   12 BR1  UNL     1      -0.644  21.278  -3.513  1.00  0.00    -0.045 Br
HETATM   13  C15 UNL     1       0.892  21.402  -1.043  1.00  0.00     0.093 A
HETATM   14  C16 UNL     1       1.292  20.965   0.223  1.00  0.00    -0.013 A
HETATM   15  C17 UNL     1       2.305  21.904   0.718  1.00  0.00     0.028 C
HETATM   16  C22 UNL     1       3.267  21.485   1.745  1.00  0.00    -0.002 C
HETATM   17  C23 UNL     1       4.711  21.809   1.389  1.00  0.00     0.006 C
HETATM   18  C24 UNL     1       5.684  20.871   2.035  1.00  0.00     0.011 C
HETATM   19  C25 UNL     1       5.527  19.424   1.665  1.00  0.00    -0.027 C
HETATM   20  C26 UNL     1       6.047  18.618   2.836  1.00  0.00     0.016 C
ENDROOT
BRANCH   1  21
HETATM   21  C3  UNL     1       7.540  18.413   0.618  1.00  0.00     0.263 C
HETATM   22  O2  UNL     1       7.572  17.137   0.679  1.00  0.00    -0.265 OA
BRANCH  21  23
HETATM   23  O1  UNL     1       8.739  19.066   0.744  1.00  0.00    -0.322 OA
BRANCH  23  24
HETATM   24  C2  UNL     1       9.447  19.005   1.956  1.00  0.00     0.174 C
HETATM   25  C1  UNL     1       9.216  20.296   2.707  1.00  0.00     0.034 C
ENDBRANCH  23  24
ENDBRANCH  21  23
ENDBRANCH   1  21
BRANCH  15  26
HETATM   26  C18 UNL     1       1.520  23.130   1.155  1.00  0.00     0.040 C
BRANCH  26  27
HETATM   27  C19 UNL     1       2.324  24.369   1.327  1.00  0.00     0.272 C
BRANCH  27  28
HETATM   28  N1  UNL     1       1.828  24.990   2.575  1.00  0.00     0.080 N
HETATM   29  C20 UNL     1       1.267  26.271   2.223  1.00  0.00     0.309 C
HETATM   30  C21 UNL     1       0.887  24.129   3.247  1.00  0.00     0.309 C
ENDBRANCH  27  28
ENDBRANCH  26  27
ENDBRANCH  15  26
BRANCH  13  31
HETATM   31  O4  UNL     1       1.373  22.511  -1.694  1.00  0.00    -0.359 OA
ATOM     32  H4  UNL     1       1.283  23.313  -1.193  1.00  0.00     0.217 HD
ENDBRANCH  13  31
BRANCH  10  33
HETATM   33  O3  UNL     1      -1.626  18.861  -1.986  1.00  0.00    -0.359 OA
ATOM     34  H3  UNL     1      -2.291  18.367  -1.524  1.00  0.00     0.217 HD
ENDBRANCH  10  33
TORSDOF 8
ENDMDL