MODEL 2
REMARK VINA RESULT: -6.803603247      1.110      1.837
REMARK  7 active torsions:
REMARK  status: ('A' for Active; 'I' for Inactive)
REMARK       I    between atoms: N1_2  and  C2_4
REMARK       I    between atoms: C2_4  and  N2_6
REMARK    1  A    between atoms: N2_6  and  C3_8
REMARK    2  A    between atoms: C3_8  and  C5_10
REMARK    3  A    between atoms: C7_14  and  N4_15
REMARK    4  A    between atoms: C13_21  and  N5_22
REMARK       I    between atoms: N5_22  and  C14_23
REMARK    5  A    between atoms: N5_22  and  C19_30
REMARK    6  A    between atoms: C14_23  and  O3_25
REMARK    7  A    between atoms: O3_25  and  C15_26
ROOT
HETATM    1  N4  UNL     1       2.056  22.125   2.856  1.00  0.00    -0.366 N
HETATM    2  C8  UNL     1       2.392  22.135   1.460  1.00  0.00     0.125 C
HETATM    3  C9  UNL     1       3.800  21.739   1.173  1.00  0.00     0.029 C
HETATM    4  C10 UNL     1       4.394  20.736   2.110  1.00  0.00    -0.035 C
HETATM    5  C11 UNL     1       5.432  21.300   3.025  1.00  0.00     0.012 C
HETATM    6  C12 UNL     1       6.345  20.156   3.315  1.00  0.00     0.026 C
HETATM    7  C13 UNL     1       6.169  19.119   2.269  1.00  0.00     0.090 C
HETATM    8  C22 UNL     1       5.190  19.728   1.303  1.00  0.00     0.035 C
HETATM    9  C23 UNL     1       3.280  20.038   2.859  1.00  0.00     0.029 C
HETATM   10  C24 UNL     1       2.536  21.038   3.679  1.00  0.00     0.125 C
ENDROOT
BRANCH   1  11
HETATM   11  C7  UNL     1       1.257  23.185   3.393  1.00  0.00     0.125 A
HETATM   12  N3  UNL     1       0.398  22.928   4.422  1.00  0.00    -0.350 N
HETATM   13  C6  UNL     1      -0.374  23.880   4.951  1.00  0.00     0.099 A
ATOM     14  H3  UNL     1       0.345  21.981   4.798  1.00  0.00     0.166 HD
HETATM   15  C5  UNL     1      -0.364  25.181   4.507  1.00  0.00    -0.019 A
HETATM   16  C26 UNL     1       0.497  25.463   3.468  1.00  0.00     0.038 A
HETATM   17  C25 UNL     1       1.289  24.476   2.927  1.00  0.00     0.078 A
HETATM   18 CL1  UNL     1       2.367  24.885   1.625  1.00  0.00    -0.080 Cl
BRANCH  15  19
HETATM   19  C3  UNL     1      -1.233  26.252   5.103  1.00  0.00     0.116 C
HETATM   20  C4  UNL     1      -2.543  26.283   4.383  1.00  0.00     0.037 C
BRANCH  19  21
HETATM   21  N2  UNL     1      -1.490  25.821   6.485  1.00  0.00    -0.335 N
HETATM   22  C2  UNL     1      -1.549  26.769   7.533  1.00  0.00     0.316 C
HETATM   23  N1  UNL     1      -1.796  26.339   8.855  1.00  0.00    -0.347 N
HETATM   24  O1  UNL     1      -1.386  27.972   7.290  1.00  0.00    -0.247 OA
HETATM   25  C1  UNL     1      -1.862  27.290   9.941  1.00  0.00     0.151 C
ATOM     26  H1  UNL     1      -1.928  25.346   9.046  1.00  0.00     0.163 HD
ATOM     27  H2  UNL     1      -1.625  24.831   6.689  1.00  0.00     0.165 HD
ENDBRANCH  19  21
ENDBRANCH  15  19
ENDBRANCH   1  11
BRANCH   7  28
HETATM   28  N5  UNL     1       7.406  18.686   1.671  1.00  0.00    -0.319 N
HETATM   29  C14 UNL     1       8.048  19.508   0.709  1.00  0.00     0.364 C
HETATM   30  O2  UNL     1       7.549  20.605   0.381  1.00  0.00    -0.238 OA
BRANCH  29  31
HETATM   31  O3  UNL     1       9.236  19.142   0.097  1.00  0.00    -0.294 OA
BRANCH  31  32
HETATM   32  C15 UNL     1       9.336  18.781  -1.270  1.00  0.00     0.061 C
HETATM   33  C16 UNL     1      10.423  17.752  -1.419  1.00  0.00     0.046 C
HETATM   34  C17 UNL     1       9.800  20.024  -2.028  1.00  0.00     0.046 C
HETATM   35  C18 UNL     1       8.029  18.293  -1.826  1.00  0.00     0.046 C
ENDBRANCH  31  32
ENDBRANCH  29  31
BRANCH  28  36
HETATM   36  C19 UNL     1       8.040  17.424   2.015  1.00  0.00     0.081 C
HETATM   37  C20 UNL     1       8.001  17.150   3.487  1.00  0.00     0.032 C
HETATM   38  C21 UNL     1       7.392  16.306   1.210  1.00  0.00     0.032 C
ENDBRANCH  28  36
ENDBRANCH   7  28
TORSDOF 7
ENDMDL