MODEL 4
REMARK VINA RESULT: -6.180566321      3.129      7.236
REMARK  6 active torsions:
REMARK  status: ('A' for Active; 'I' for Inactive)
REMARK    1  A    between atoms: C2_2  and  C3_3
REMARK    2  A    between atoms: N1_8  and  C8_9
REMARK    3  A    between atoms: C8_9  and  C9_10
REMARK    4  A    between atoms: C8_9  and  C23_32
REMARK    5  A    between atoms: N3_14  and  C11_16
REMARK    6  A    between atoms: C23_32  and  O2_33
ROOT
HETATM    1  C9  UNL     1       4.613  19.319   2.259  1.00  0.00     0.080 A
HETATM    2  N2  UNL     1       5.791  19.468   1.633  1.00  0.00    -0.189 N
ATOM      3  H2  UNL     1       5.755  19.877   0.700  1.00  0.00     0.184 HD
HETATM    4  C10 UNL     1       7.009  19.143   2.091  1.00  0.00     0.683 A
HETATM    5  N3  UNL     1       8.024  19.172   1.410  1.00  0.00    -0.192 N
ATOM      6  H3  UNL     1       8.769  18.879   2.044  1.00  0.00     0.184 HD
HETATM    7  N4  UNL     1       7.066  18.600   3.360  1.00  0.00    -0.191 N
ATOM      8  H4  UNL     1       7.964  18.337   3.767  1.00  0.00     0.184 HD
HETATM    9  C17 UNL     1       5.952  18.423   4.041  1.00  0.00     0.064 A
HETATM   10  C18 UNL     1       4.700  18.759   3.533  1.00  0.00     0.022 A
HETATM   11  C19 UNL     1       3.600  18.450   4.419  1.00  0.00     0.211 C
HETATM   12  O1  UNL     1       3.803  18.975   5.724  1.00  0.00    -0.382 OA
HETATM   13  C20 UNL     1       4.897  18.388   6.324  1.00  0.00     0.204 C
HETATM   14  C21 UNL     1       6.011  17.956   5.460  1.00  0.00    -0.032 C
HETATM   15  C22 UNL     1       6.451  16.528   5.619  1.00  0.00     0.048 C
ENDROOT
BRANCH   1  16
HETATM   16  C8  UNL     1       3.266  19.605   1.708  1.00  0.00     0.051 C
BRANCH  16  17
HETATM   17  N1  UNL     1       2.448  18.524   1.329  1.00  0.00    -0.274 NA
HETATM   18  C3  UNL     1       2.955  17.517   0.473  1.00  0.00     0.063 C
HETATM   19  C4  UNL     1       3.175  18.120  -0.908  1.00  0.00     0.022 C
HETATM   20  C5  UNL     1       1.890  18.912  -0.982  1.00  0.00     0.021 C
HETATM   21  C6  UNL     1       1.351  18.919   0.443  1.00  0.00     0.059 C
HETATM   22  C7  UNL     1       0.175  17.950   0.554  1.00  0.00     0.026 C
BRANCH  18  23
HETATM   23  C2  UNL     1       3.912  16.496   0.812  1.00  0.00     0.015 C
HETATM   24  C1  UNL     1       3.257  15.640   1.936  1.00  0.00     0.006 C
ENDBRANCH  18  23
ENDBRANCH  16  17
BRANCH  16  25
HETATM   25  C23 UNL     1       2.847  21.015   1.797  1.00  0.00     0.097 C
HETATM   26  C24 UNL     1       1.749  21.329   2.775  1.00  0.00     0.044 C
HETATM   27  C25 UNL     1       0.848  22.460   2.331  1.00  0.00     0.003 C
HETATM   28  C26 UNL     1       1.744  23.654   2.070  1.00  0.00     0.000 C
HETATM   29  C27 UNL     1       2.835  23.376   1.072  1.00  0.00     0.003 C
HETATM   30  C28 UNL     1       2.683  21.897   0.608  1.00  0.00     0.044 C
BRANCH  25  31
HETATM   31  O2  UNL     1       4.024  21.670   2.340  1.00  0.00    -0.384 OA
ATOM     32  H2  UNL     1       3.736  22.568   2.448  1.00  0.00     0.211 HD
ENDBRANCH  25  31
ENDBRANCH  16  25
ENDBRANCH   1  16
BRANCH   5  33
HETATM   33  C11 UNL     1       8.648  19.400   0.232  1.00  0.00     0.049 A
HETATM   34  C12 UNL     1       8.390  20.422  -0.655  1.00  0.00     0.032 A
HETATM   35  C13 UNL     1       9.068  20.548  -1.858  1.00  0.00     0.026 A
HETATM   36  C14 UNL     1      10.040  19.655  -2.228  1.00  0.00     0.034 A
HETATM   37 CL1  UNL     1      10.905  19.795  -3.753  1.00  0.00    -0.084 Cl
HETATM   38  C15 UNL     1      10.327  18.618  -1.367  1.00  0.00     0.026 A
HETATM   39  C16 UNL     1       9.670  18.488  -0.194  1.00  0.00     0.032 A
ENDBRANCH   5  33
TORSDOF 6
ENDMDL