MODEL 5
REMARK VINA RESULT: -6.597805056      1.092      1.746
REMARK  6 active torsions:
REMARK  status: ('A' for Active; 'I' for Inactive)
REMARK    1  A    between atoms: C2_2  and  N1_3
REMARK    2  A    between atoms: C6_7  and  C7_8
REMARK    3  A    between atoms: C8_11  and  C9_12
REMARK    4  A    between atoms: C12_15  and  C13_16
REMARK    5  A    between atoms: C13_16  and  N3_17
REMARK    6  A    between atoms: C24_30  and  N4_31
ROOT
HETATM    1  C7  UNL     1       0.154  21.925   3.054  1.00  0.00     0.118 A
HETATM    2  N2  UNL     1      -0.581  21.066   2.262  1.00  0.00    -0.339 N
ATOM      3  H2  UNL     1      -1.296  20.430   2.613  1.00  0.00     0.167 HD
HETATM    4  C8  UNL     1      -0.237  21.174   0.995  1.00  0.00     0.075 A
HETATM    5  C23 UNL     1       0.781  22.154   0.975  1.00  0.00     0.112 A
HETATM    6  C24 UNL     1       1.540  22.691  -0.026  1.00  0.00     0.129 A
HETATM    7  N5  UNL     1       2.490  23.641   0.223  1.00  0.00    -0.349 N
ATOM      8  H5  UNL     1       3.048  24.032  -0.536  1.00  0.00     0.167 HD
HETATM    9  C25 UNL     1       2.670  24.046   1.481  1.00  0.00     0.107 A
HETATM   10  C26 UNL     1       1.915  23.518   2.522  1.00  0.00     0.116 A
HETATM   11  N6  UNL     1       0.995  22.591   2.253  1.00  0.00    -0.301 N
ENDROOT
BRANCH   4  12
HETATM   12  C9  UNL     1      -0.702  20.544  -0.243  1.00  0.00    -0.007 A
HETATM   13  C10 UNL     1      -1.673  21.047  -1.059  1.00  0.00     0.014 A
HETATM   14  C11 UNL     1      -2.073  20.415  -2.229  1.00  0.00     0.011 A
HETATM   15  C12 UNL     1      -1.484  19.236  -2.601  1.00  0.00    -0.020 A
HETATM   16  C21 UNL     1      -0.493  18.727  -1.769  1.00  0.00     0.011 A
HETATM   17  C22 UNL     1      -0.105  19.338  -0.636  1.00  0.00     0.014 A
BRANCH  15  18
HETATM   18  C13 UNL     1      -1.902  18.465  -3.816  1.00  0.00     0.186 C
HETATM   19  C16 UNL     1      -3.205  19.024  -4.394  1.00  0.00     0.052 C
HETATM   20  C17 UNL     1      -3.365  18.338  -5.769  1.00  0.00     0.082 C
HETATM   21  C18 UNL     1      -3.430  16.858  -5.627  1.00  0.00     0.243 C
HETATM   22  F1  UNL     1      -4.730  16.489  -6.021  1.00  0.00    -0.206 F
HETATM   23  F2  UNL     1      -2.624  16.193  -6.567  1.00  0.00    -0.206 F
HETATM   24  C19 UNL     1      -3.247  16.369  -4.238  1.00  0.00     0.082 C
HETATM   25  C20 UNL     1      -2.162  17.056  -3.445  1.00  0.00     0.052 C
BRANCH  18  26
HETATM   26  N3  UNL     1      -0.916  18.698  -4.821  1.00  0.00     0.094 N
HETATM   27  C14 UNL     1       0.161  17.786  -4.923  1.00  0.00     0.310 C
HETATM   28  C15 UNL     1      -0.384  20.031  -4.748  1.00  0.00     0.310 C
ENDBRANCH  18  26
ENDBRANCH  15  18
ENDBRANCH   4  12
BRANCH   1  29
HETATM   29  C6  UNL     1      -0.136  21.995   4.474  1.00  0.00    -0.017 C
HETATM   30  C5  UNL     1       0.482  21.380   5.449  1.00  0.00    -0.009 C
HETATM   31  C4  UNL     1      -0.019  21.637   6.808  1.00  0.00     0.043 C
HETATM   32  C3  UNL     1       0.490  20.737   7.885  1.00  0.00     0.281 C
HETATM   33  C29 UNL     1      -1.478  21.214   6.820  1.00  0.00     0.023 C
HETATM   34  N1  UNL     1      -0.426  21.161   8.966  1.00  0.00     0.089 N
HETATM   35  C30 UNL     1      -1.731  21.306   8.303  1.00  0.00     0.277 C
HETATM   36  C28 UNL     1      -2.174  22.195   5.959  1.00  0.00     0.011 C
HETATM   37  C27 UNL     1      -1.282  22.867   4.952  1.00  0.00     0.042 C
BRANCH  34  38
HETATM   38  C2  UNL     1      -0.429  20.243  10.058  1.00  0.00     0.268 C
HETATM   39  C1  UNL     1       0.321  18.990   9.751  1.00  0.00     0.037 C
ENDBRANCH  34  38
ENDBRANCH   1  29
BRANCH   6  40
HETATM   40  N4  UNL     1       1.404  22.294  -1.239  1.00  0.00    -0.384 N
ATOM     41  H42 UNL     1       1.102  22.984  -1.927  1.00  0.00     0.157 HD
ATOM     42  H41 UNL     1       1.615  21.331  -1.500  1.00  0.00     0.157 HD
ENDBRANCH   6  40
TORSDOF 6
ENDMDL