MODEL 3
REMARK VINA RESULT: -6.722413809      1.132      2.046
REMARK  8 active torsions:
REMARK  status: ('A' for Active; 'I' for Inactive)
REMARK    1  A    between atoms: O1_2  and  C2_3
REMARK    2  A    between atoms: C2_3  and  C3_5
REMARK    3  A    between atoms: C8_10  and  O3_11
REMARK    4  A    between atoms: C8_10  and  C9_13
REMARK    5  A    between atoms: C10_14  and  C11_16
REMARK    6  A    between atoms: C11_16  and  C12_17
REMARK    7  A    between atoms: C21_27  and  O4_28
REMARK    8  A    between atoms: O4_28  and  C22_29
ROOT
HETATM    1  C9  UNL     1       1.372  21.542  -0.430  1.00  0.00     0.025 C
HETATM    2  C10 UNL     1       2.395  20.877   0.147  1.00  0.00    -0.012 C
HETATM    3 BR1  UNL     1       2.627  19.074  -0.417  1.00  0.00    -0.056 Br
ENDROOT
BRANCH   2   4
HETATM    4  C11 UNL     1       3.240  21.508   1.163  1.00  0.00     0.058 C
BRANCH   4   5
HETATM    5  C12 UNL     1       2.689  21.810   2.478  1.00  0.00     0.053 C
HETATM    6  C13 UNL     1       2.162  23.234   2.595  1.00  0.00    -0.042 A
HETATM    7  C14 UNL     1       2.551  24.187   1.696  1.00  0.00     0.008 A
HETATM    8  C18 UNL     1       1.307  23.573   3.591  1.00  0.00    -0.013 A
HETATM    9  C15 UNL     1       2.080  25.508   1.792  1.00  0.00     0.004 A
HETATM   10  C16 UNL     1       1.222  25.869   2.782  1.00  0.00     0.043 A
HETATM   11  C17 UNL     1       0.841  24.885   3.682  1.00  0.00     0.123 A
HETATM   12  F1  UNL     1      -0.014  25.251   4.667  1.00  0.00    -0.206 F
HETATM   13  C19 UNL     1       0.812  22.628   4.604  1.00  0.00     0.045 C
HETATM   14  C20 UNL     1       1.681  21.404   4.634  1.00  0.00     0.038 C
HETATM   15  C21 UNL     1       1.702  20.901   3.125  1.00  0.00     0.141 C
BRANCH  15  16
HETATM   16  O4  UNL     1       0.381  21.082   2.743  1.00  0.00    -0.316 OA
BRANCH  16  17
HETATM   17  C22 UNL     1      -0.508  20.095   2.447  1.00  0.00     0.255 C
HETATM   18  C23 UNL     1      -0.128  18.647   2.362  1.00  0.00     0.126 C
HETATM   19  O5  UNL     1      -1.711  20.351   2.229  1.00  0.00    -0.266 OA
ENDBRANCH  16  17
ENDBRANCH  15  16
ENDBRANCH   4   5
ENDBRANCH   2   4
BRANCH   1  20
HETATM   20  C8  UNL     1       0.475  20.957  -1.426  1.00  0.00     0.077 C
HETATM   21  C7  UNL     1      -0.825  21.767  -1.470  1.00  0.00     0.047 C
HETATM   22  C5  UNL     1      -1.592  21.247  -2.669  1.00  0.00     0.003 C
HETATM   23  C3  UNL     1      -2.032  19.840  -2.328  1.00  0.00     0.051 C
HETATM   24  C6  UNL     1      -2.742  22.128  -3.040  1.00  0.00     0.011 C
HETATM   25  C4  UNL     1      -2.800  19.853  -1.039  1.00  0.00     0.027 C
HETATM   26  C25 UNL     1      -0.815  18.972  -2.134  1.00  0.00     0.003 C
HETATM   27  C24 UNL     1       0.141  19.514  -1.132  1.00  0.00     0.047 C
HETATM   28  C26 UNL     1      -0.124  18.613  -3.417  1.00  0.00     0.011 C
BRANCH  23  29
HETATM   29  C2  UNL     1      -2.880  19.354  -3.408  1.00  0.00     0.267 C
HETATM   30  O2  UNL     1      -4.040  18.945  -3.151  1.00  0.00    -0.264 OA
BRANCH  29  31
HETATM   31  O1  UNL     1      -2.499  19.304  -4.747  1.00  0.00    -0.326 OA
HETATM   32  C1  UNL     1      -3.094  18.411  -5.661  1.00  0.00     0.213 C
ENDBRANCH  29  31
ENDBRANCH  23  29
BRANCH  20  33
HETATM   33  O3  UNL     1       1.008  21.058  -2.701  1.00  0.00    -0.386 OA
ATOM     34  H3  UNL     1       1.385  20.206  -2.881  1.00  0.00     0.211 HD
ENDBRANCH  20  33
ENDBRANCH   1  20
TORSDOF 8
ENDMDL