MODEL 2
REMARK VINA RESULT: -6.350496011      3.405      6.098
REMARK  7 active torsions:
REMARK  status: ('A' for Active; 'I' for Inactive)
REMARK    1  A    between atoms: C2_2  and  C3_3
REMARK    2  A    between atoms: C12_13  and  O2_14
REMARK    3  A    between atoms: O2_14  and  C13_15
REMARK    4  A    between atoms: C13_15  and  C14_17
REMARK    5  A    between atoms: C17_21  and  C18_22
REMARK    6  A    between atoms: C18_22  and  C19_23
REMARK    7  A    between atoms: C27_33  and  O5_34
ROOT
HETATM    1  C3  UNL     1      -0.801  18.555  -2.487  1.00  0.00     0.101 C
HETATM    2  C4  UNL     1       0.250  17.509  -2.979  1.00  0.00     0.053 C
HETATM    3  O1  UNL     1      -0.121  19.569  -1.989  1.00  0.00    -0.360 OA
HETATM    4  C5  UNL     1      -0.469  20.322  -0.891  1.00  0.00     0.094 C
HETATM    5  C6  UNL     1      -1.046  21.600  -1.556  1.00  0.00     0.050 C
HETATM    6  C7  UNL     1       0.824  20.734  -0.249  1.00  0.00     0.036 C
HETATM    7  C8  UNL     1       1.863  19.671  -0.578  1.00  0.00     0.036 C
HETATM    8  C9  UNL     1       3.162  19.813   0.025  1.00  0.00    -0.023 C
HETATM    9  C10 UNL     1       3.448  20.718   0.944  1.00  0.00    -0.072 C
HETATM   10  C11 UNL     1       4.819  20.732   1.461  1.00  0.00     0.067 C
HETATM   11  C12 UNL     1       4.952  21.150   2.911  1.00  0.00     0.136 C
HETATM   12  C15 UNL     1       3.553  20.863   3.498  1.00  0.00     0.034 C
HETATM   13  C16 UNL     1       2.574  21.821   2.874  1.00  0.00     0.017 C
HETATM   14  C17 UNL     1       2.396  21.623   1.361  1.00  0.00    -0.008 C
HETATM   15  C20 UNL     1       0.958  21.090   1.144  1.00  0.00    -0.024 C
HETATM   16  C21 UNL     1       0.116  22.128   1.777  1.00  0.00     0.017 C
HETATM   17  C22 UNL     1       0.759  19.829   2.015  1.00  0.00     0.037 C
HETATM   18  C23 UNL     1      -0.735  19.545   2.192  1.00  0.00     0.169 C
HETATM   19  O4  UNL     1      -1.405  20.173   1.234  1.00  0.00    -0.377 OA
HETATM   20  C24 UNL     1      -1.505  19.698  -0.013  1.00  0.00     0.091 C
HETATM   21  C25 UNL     1      -2.931  20.092  -0.446  1.00  0.00     0.049 C
HETATM   22  C26 UNL     1      -1.500  18.178  -0.114  1.00  0.00     0.075 C
HETATM   23  C27 UNL     1      -1.694  17.763  -1.569  1.00  0.00     0.159 C
ENDROOT
BRANCH  11  24
HETATM   24  O2  UNL     1       5.794  20.233   3.640  1.00  0.00    -0.315 OA
BRANCH  24  25
HETATM   25  C13 UNL     1       7.144  20.149   3.451  1.00  0.00     0.273 C
HETATM   26  O3  UNL     1       7.781  21.223   3.275  1.00  0.00    -0.264 OA
BRANCH  25  27
HETATM   27  C14 UNL     1       7.801  18.822   3.459  1.00  0.00     0.225 C
HETATM   28 CL1  UNL     1       7.727  18.110   5.065  1.00  0.00    -0.120 Cl
ENDBRANCH  25  27
ENDBRANCH  24  25
ENDBRANCH  11  24
BRANCH  14  29
HETATM   29  C18 UNL     1       2.514  22.916   0.634  1.00  0.00     0.030 C
BRANCH  29  30
HETATM   30  C19 UNL     1       3.282  24.025   1.294  1.00  0.00     0.116 C
HETATM   31 CL2  UNL     1       2.012  25.230   1.775  1.00  0.00    -0.130 Cl
ENDBRANCH  29  30
ENDBRANCH  14  29
BRANCH   1  32
HETATM   32  C2  UNL     1      -1.440  18.847  -3.803  1.00  0.00     0.003 C
HETATM   33  C1  UNL     1      -0.906  19.569  -4.767  1.00  0.00     0.010 C
ENDBRANCH   1  32
BRANCH  23  34
HETATM   34  O5  UNL     1      -3.051  17.842  -1.923  1.00  0.00    -0.392 OA
ATOM     35  H5  UNL     1      -3.359  17.068  -2.379  1.00  0.00     0.210 HD
ENDBRANCH  23  34
TORSDOF 7
ENDMDL