MODEL 2
REMARK VINA RESULT: -5.936414468      4.457      7.855
REMARK  7 active torsions:
REMARK  status: ('A' for Active; 'I' for Inactive)
REMARK    1  A    between atoms: O1_2  and  C2_3
REMARK    2  A    between atoms: C17_25  and  N4_26
REMARK    3  A    between atoms: N4_26  and  C18_28
REMARK    4  A    between atoms: C21_31  and  C22_32
REMARK    5  A    between atoms: C23_33  and  C24_34
REMARK    6  A    between atoms: C24_34  and  O2_37
REMARK    7  A    between atoms: C27_39  and  C28_40
ROOT
HETATM    1  C2  UNL     1       4.711  19.207   3.843  1.00  0.00     0.149 A
HETATM    2  N1  UNL     1       5.577  20.221   3.871  1.00  0.00    -0.346 N
ATOM      3  H1  UNL     1       6.254  20.279   4.631  1.00  0.00     0.167 HD
HETATM    4  C3  UNL     1       5.574  21.169   2.917  1.00  0.00     0.091 A
HETATM    5  C4  UNL     1       4.692  21.152   1.872  1.00  0.00     0.030 A
HETATM    6  C5  UNL     1       3.782  20.092   1.834  1.00  0.00    -0.011 A
HETATM    7  C6  UNL     1       2.904  20.049   0.694  1.00  0.00     0.011 A
HETATM    8  C7  UNL     1       1.842  20.929   0.551  1.00  0.00     0.012 A
HETATM    9  C8  UNL     1       1.491  21.943   1.523  1.00  0.00     0.019 A
HETATM   10  C9  UNL     1       0.759  21.606   2.631  1.00  0.00     0.017 A
HETATM   11  C10 UNL     1       0.403  22.524   3.597  1.00  0.00     0.027 A
HETATM   12  C11 UNL     1       0.775  23.841   3.484  1.00  0.00     0.086 A
HETATM   13  C12 UNL     1       0.435  24.830   4.447  1.00  0.00     0.102 C
HETATM   14  N2  UNL     1       0.172  25.623   5.240  1.00  0.00    -0.191 NA
HETATM   15  C13 UNL     1       1.509  24.211   2.385  1.00  0.00     0.176 A
HETATM   16  F1  UNL     1       1.904  25.505   2.232  1.00  0.00    -0.201 F
HETATM   17  C14 UNL     1       1.856  23.271   1.427  1.00  0.00     0.167 A
HETATM   18  F2  UNL     1       2.580  23.731   0.361  1.00  0.00    -0.202 F
HETATM   19  C15 UNL     1       1.109  20.784  -0.630  1.00  0.00     0.019 A
HETATM   20  C16 UNL     1      -0.053  21.700  -0.857  1.00  0.00     0.069 C
HETATM   21  N3  UNL     1       1.401  19.863  -1.567  1.00  0.00    -0.344 N
ATOM     22  H3  UNL     1       0.831  19.802  -2.410  1.00  0.00     0.167 HD
HETATM   23  C17 UNL     1       2.437  19.023  -1.403  1.00  0.00     0.121 A
HETATM   24  C21 UNL     1       3.221  19.089  -0.272  1.00  0.00     0.073 A
HETATM   25  C27 UNL     1       3.755  19.110   2.786  1.00  0.00     0.008 A
ENDROOT
BRANCH  24  26
HETATM   26  C22 UNL     1       4.353  18.209  -0.167  1.00  0.00    -0.059 C
HETATM   27  C23 UNL     1       5.319  17.484  -0.060  1.00  0.00    -0.063 C
BRANCH  27  28
HETATM   28  C24 UNL     1       6.510  16.612   0.097  1.00  0.00     0.114 C
HETATM   29  C25 UNL     1       6.165  15.199  -0.348  1.00  0.00     0.060 C
HETATM   30  C26 UNL     1       6.927  16.672   1.523  1.00  0.00     0.060 C
BRANCH  28  31
HETATM   31  O2  UNL     1       7.562  17.064  -0.699  1.00  0.00    -0.378 OA
ATOM     32  H2  UNL     1       8.084  17.708  -0.234  1.00  0.00     0.211 HD
ENDBRANCH  28  31
ENDBRANCH  27  28
ENDBRANCH  24  26
BRANCH  25  33
HETATM   33  C28 UNL     1       2.908  17.911   2.895  1.00  0.00     0.024 A
HETATM   34  C29 UNL     1       1.649  17.599   2.271  1.00  0.00     0.010 A
HETATM   35  C30 UNL     1       1.616  18.001   3.705  1.00  0.00     0.010 A
ENDBRANCH  25  33
BRANCH  23  36
HETATM   36  N4  UNL     1       2.737  18.121  -2.284  1.00  0.00    -0.371 N
ATOM     37  H4  UNL     1       3.531  18.295  -2.900  1.00  0.00     0.161 HD
BRANCH  36  38
HETATM   38  C18 UNL     1       2.011  16.886  -2.441  1.00  0.00     0.075 C
HETATM   39  C19 UNL     1       1.072  16.956  -3.607  1.00  0.00     0.031 C
HETATM   40  C20 UNL     1       3.016  15.774  -2.738  1.00  0.00     0.031 C
ENDBRANCH  36  38
ENDBRANCH  23  36
BRANCH   1  41
HETATM   41  O1  UNL     1       4.711  18.212   4.835  1.00  0.00    -0.340 OA
HETATM   42  C1  UNL     1       4.606  18.625   6.173  1.00  0.00     0.211 C
ENDBRANCH   1  41
TORSDOF 7
ENDMDL