MODEL 2
REMARK VINA RESULT: -7.576539996      1.111      1.930
REMARK  7 active torsions:
REMARK  status: ('A' for Active; 'I' for Inactive)
REMARK    1  A    between atoms: C2_2  and  C3_3
REMARK    2  A    between atoms: C3_3  and  C4_4
REMARK    3  A    between atoms: C4_4  and  N1_5
REMARK    4  A    between atoms: N1_5  and  C5_7
REMARK    5  A    between atoms: C6_10  and  N3_11
REMARK    6  A    between atoms: N3_11  and  C7_13
REMARK    7  A    between atoms: C10_16  and  N4_17
ROOT
HETATM    1  C5  UNL     1       2.482  19.127  -0.953  1.00  0.00     0.680 A
HETATM    2  N2  UNL     1       2.517  20.354  -0.416  1.00  0.00    -0.176 N
ATOM      3  H2  UNL     1       1.830  21.031  -0.747  1.00  0.00     0.186 HD
HETATM    4  C6  UNL     1       3.385  20.765   0.523  1.00  0.00     0.131 A
HETATM    5  C15 UNL     1       4.358  19.870   1.018  1.00  0.00     0.054 A
HETATM    6  C16 UNL     1       4.307  18.624   0.460  1.00  0.00     0.106 A
HETATM    7  N5  UNL     1       3.399  18.270  -0.492  1.00  0.00    -0.184 N
ATOM      8  H5  UNL     1       3.419  17.321  -0.864  1.00  0.00     0.185 HD
HETATM    9  S1  UNL     1       5.573  17.780   1.237  1.00  0.00    -0.070 SA
HETATM   10  C17 UNL     1       6.142  19.030   2.257  1.00  0.00     0.020 A
HETATM   11  C18 UNL     1       7.180  19.097   3.207  1.00  0.00     0.043 A
HETATM   12  C19 UNL     1       7.418  20.253   3.894  1.00  0.00     0.035 A
HETATM   13 CL1  UNL     1       8.701  20.293   5.051  1.00  0.00    -0.084 Cl
HETATM   14  C20 UNL     1       6.600  21.311   3.603  1.00  0.00     0.025 A
HETATM   15  C21 UNL     1       5.594  21.253   2.686  1.00  0.00     0.015 A
HETATM   16  C22 UNL     1       5.318  20.076   1.956  1.00  0.00    -0.002 A
ENDROOT
BRANCH   1  17
HETATM   17  N1  UNL     1       1.609  18.857  -1.839  1.00  0.00    -0.225 N
ATOM     18  H1  UNL     1       1.942  18.319  -2.639  1.00  0.00     0.177 HD
BRANCH  17  19
HETATM   19  C4  UNL     1       0.234  19.205  -1.863  1.00  0.00     0.148 C
BRANCH  19  20
HETATM   20  C3  UNL     1      -0.203  19.927  -3.106  1.00  0.00    -0.012 C
HETATM   21  C23 UNL     1       1.047  20.440  -3.837  1.00  0.00     0.050 C
HETATM   22  C24 UNL     1       0.294  20.152  -5.124  1.00  0.00     0.179 C
HETATM   23  F1  UNL     1       1.079  19.584  -6.093  1.00  0.00    -0.249 F
HETATM   24  C25 UNL     1      -0.507  19.123  -4.314  1.00  0.00    -0.007 C
HETATM   25  C26 UNL     1       0.159  17.789  -4.435  1.00  0.00     0.018 C
HETATM   26  C27 UNL     1      -1.937  19.058  -4.763  1.00  0.00     0.018 C
BRANCH  20  27
HETATM   27  C2  UNL     1      -1.131  21.089  -2.885  1.00  0.00     0.007 C
HETATM   28  C1  UNL     1      -1.665  21.159  -1.476  1.00  0.00     0.006 C
ENDBRANCH  20  27
ENDBRANCH  19  20
ENDBRANCH  17  19
ENDBRANCH   1  17
BRANCH   4  29
HETATM   29  N3  UNL     1       3.288  21.982   0.936  1.00  0.00    -0.370 N
ATOM     30  H3  UNL     1       4.004  22.277   1.600  1.00  0.00     0.161 HD
BRANCH  29  31
HETATM   31  C7  UNL     1       2.331  22.961   0.600  1.00  0.00     0.083 C
HETATM   32  C8  UNL     1       0.911  22.538   0.911  1.00  0.00     0.027 C
HETATM   33  C9  UNL     1       0.620  22.456   2.380  1.00  0.00     0.038 C
HETATM   34  C10 UNL     1       1.379  23.484   3.182  1.00  0.00     0.222 C
HETATM   35  C13 UNL     1       1.598  24.673   2.273  1.00  0.00     0.038 C
HETATM   36  C14 UNL     1       2.676  24.273   1.285  1.00  0.00     0.027 C
BRANCH  34  37
HETATM   37  N4  UNL     1       0.727  23.849   4.411  1.00  0.00     0.084 N
HETATM   38  C11 UNL     1      -0.322  22.938   4.762  1.00  0.00     0.309 C
HETATM   39  C12 UNL     1       0.261  25.197   4.465  1.00  0.00     0.309 C
ENDBRANCH  34  37
ENDBRANCH  29  31
ENDBRANCH   4  29
TORSDOF 7
ENDMDL