MODEL 1
REMARK VINA RESULT: -6.937419776      0.000      0.000
REMARK  7 active torsions:
REMARK  status: ('A' for Active; 'I' for Inactive)
REMARK    1  A    between atoms: C3_3  and  C4_5
REMARK    2  A    between atoms: C7_8  and  N1_9
REMARK    3  A    between atoms: C11_16  and  N3_17
REMARK    4  A    between atoms: N3_17  and  C12_19
REMARK    5  A    between atoms: C12_19  and  C13_20
REMARK    6  A    between atoms: C13_20  and  N4_21
REMARK    7  A    between atoms: C18_26  and  N5_27
ROOT
HETATM    1  C4  UNL     1       2.482  22.155   2.898  1.00  0.00     0.073 C
HETATM    2  C5  UNL     1       3.092  20.786   3.059  1.00  0.00    -0.018 A
HETATM    3  C6  UNL     1       2.220  19.722   3.149  1.00  0.00     0.061 A
HETATM    4  C7  UNL     1       2.756  18.449   3.316  1.00  0.00     0.115 A
HETATM    5  N2  UNL     1       4.080  18.292   3.384  1.00  0.00    -0.341 N
ATOM      6  H2  UNL     1       4.452  17.351   3.506  1.00  0.00     0.167 HD
HETATM    7  C9  UNL     1       4.948  19.320   3.298  1.00  0.00     0.046 A
HETATM    8  C10 UNL     1       6.310  19.117   3.373  1.00  0.00     0.059 A
HETATM    9  C11 UNL     1       7.221  20.143   3.288  1.00  0.00     0.030 A
HETATM   10  C22 UNL     1       6.713  21.401   3.121  1.00  0.00     0.030 A
HETATM   11  C23 UNL     1       5.349  21.658   3.041  1.00  0.00     0.016 A
HETATM   12  C24 UNL     1       4.457  20.612   3.130  1.00  0.00    -0.001 A
HETATM   13  C25 UNL     1       0.778  19.821   3.077  1.00  0.00     0.164 C
HETATM   14  O1  UNL     1       0.019  18.823   3.099  1.00  0.00    -0.292 OA
HETATM   15  C26 UNL     1       0.189  21.179   2.975  1.00  0.00     0.093 C
HETATM   16  C27 UNL     1       1.154  22.139   3.581  1.00  0.00    -0.028 C
HETATM   17  C28 UNL     1       1.397  21.746   5.044  1.00  0.00     0.016 C
HETATM   18  C29 UNL     1       0.506  23.507   3.629  1.00  0.00     0.016 C
ENDROOT
BRANCH   9  19
HETATM   19  N3  UNL     1       8.625  19.857   3.396  1.00  0.00    -0.388 N
ATOM     20  H3  UNL     1       9.132  20.202   4.211  1.00  0.00     0.159 HD
BRANCH  19  21
HETATM   21  C12 UNL     1       9.335  19.119   2.421  1.00  0.00     0.150 C
BRANCH  21  22
HETATM   22  C13 UNL     1       9.273  19.536   1.007  1.00  0.00     0.292 C
BRANCH  22  23
HETATM   23  N4  UNL     1       9.628  18.651  -0.020  1.00  0.00     0.092 N
HETATM   24  C14 UNL     1       9.899  17.307   0.348  1.00  0.00     0.272 C
HETATM   25  C15 UNL     1      11.001  16.684  -0.508  1.00  0.00     0.030 C
HETATM   26  C16 UNL     1      11.426  17.596  -1.628  1.00  0.00     0.004 C
HETATM   27  C17 UNL     1      10.389  17.669  -2.725  1.00  0.00     0.037 C
HETATM   28  C18 UNL     1       9.569  18.916  -2.479  1.00  0.00     0.250 C
HETATM   29  C21 UNL     1       8.801  18.741  -1.206  1.00  0.00     0.308 C
BRANCH  28  30
HETATM   30  N5  UNL     1      10.380  20.094  -2.524  1.00  0.00     0.086 N
HETATM   31  C19 UNL     1       9.647  21.259  -2.129  1.00  0.00     0.310 C
HETATM   32  C20 UNL     1      10.884  20.280  -3.865  1.00  0.00     0.310 C
ENDBRANCH  28  30
ENDBRANCH  22  23
ENDBRANCH  21  22
ENDBRANCH  19  21
ENDBRANCH   9  19
BRANCH   4  33
HETATM   33  N1  UNL     1       1.991  17.431   3.405  1.00  0.00    -0.380 N
HETATM   34  C8  UNL     1       2.413  16.177   2.827  1.00  0.00     0.147 C
ATOM     35  H1  UNL     1       1.091  17.502   3.880  1.00  0.00     0.160 HD
ENDBRANCH   4  33
BRANCH   1  36
HETATM   36  C3  UNL     1       2.451  22.450   1.447  1.00  0.00     0.017 C
HETATM   37  C2  UNL     1       2.523  23.660   0.910  1.00  0.00    -0.011 C
HETATM   38  C1  UNL     1       2.651  24.940   1.621  1.00  0.00     0.037 C
HETATM   39 CL1  UNL     1       2.298  21.099   0.280  1.00  0.00    -0.088 Cl
ENDBRANCH   1  36
TORSDOF 7
ENDMDL