MODEL 4
REMARK VINA RESULT: -6.502191971      2.137      2.363
REMARK  6 active torsions:
REMARK  status: ('A' for Active; 'I' for Inactive)
REMARK    1  A    between atoms: N1_5  and  C5_6
REMARK    2  A    between atoms: C7_10  and  C8_11
REMARK       I    between atoms: C8_11  and  N3_13
REMARK    3  A    between atoms: N3_13  and  C9_15
REMARK    4  A    between atoms: C17_24  and  C18_25
REMARK    5  A    between atoms: C18_25  and  C19_26
REMARK    6  A    between atoms: C26_33  and  O2_34
ROOT
HETATM    1  C5  UNL     1      -1.036  22.848   6.823  1.00  0.00     0.128 A
HETATM    2  N2  UNL     1      -0.986  24.052   6.242  1.00  0.00    -0.340 N
ATOM      3  H2  UNL     1      -1.547  24.805   6.641  1.00  0.00     0.167 HD
HETATM    4  C6  UNL     1      -0.233  24.324   5.155  1.00  0.00     0.063 A
HETATM    5  C7  UNL     1      -0.282  25.601   4.688  1.00  0.00     0.059 A
HETATM    6  C15 UNL     1       0.492  25.904   3.580  1.00  0.00     0.020 A
HETATM    7  C16 UNL     1       1.277  24.936   2.982  1.00  0.00     0.009 A
HETATM    8  C17 UNL     1       1.345  23.636   3.433  1.00  0.00    -0.042 A
HETATM    9  C25 UNL     1       0.563  23.352   4.548  1.00  0.00     0.033 A
HETATM   10  C26 UNL     1       0.518  22.114   5.138  1.00  0.00     0.104 A
HETATM   11  C27 UNL     1      -0.273  21.858   6.266  1.00  0.00     0.112 A
HETATM   12 CL1  UNL     1      -0.266  20.265   6.948  1.00  0.00    -0.077 Cl
ENDROOT
BRANCH   5  13
HETATM   13  C8  UNL     1      -1.119  26.597   5.337  1.00  0.00     0.254 C
HETATM   14  O1  UNL     1      -0.939  26.837   6.552  1.00  0.00    -0.268 OA
HETATM   15  N3  UNL     1      -2.105  27.277   4.622  1.00  0.00    -0.352 N
ATOM     16  H3  UNL     1      -2.217  27.051   3.634  1.00  0.00     0.163 HD
BRANCH  15  17
HETATM   17  C9  UNL     1      -2.981  28.283   5.188  1.00  0.00     0.087 C
HETATM   18  C10 UNL     1      -4.301  28.303   4.459  1.00  0.00     0.044 C
HETATM   19  C11 UNL     1      -5.211  29.315   5.054  1.00  0.00     0.118 C
HETATM   20  N4  UNL     1      -4.575  30.375   5.753  1.00  0.00    -0.416 N
HETATM   21  C12 UNL     1      -5.420  31.437   6.164  1.00  0.00     0.143 C
HETATM   22  C13 UNL     1      -3.291  30.766   5.273  1.00  0.00     0.118 C
HETATM   23  C14 UNL     1      -2.353  29.647   4.996  1.00  0.00     0.044 C
ENDBRANCH  15  17
ENDBRANCH   5  13
BRANCH   1  24
HETATM   24  N1  UNL     1      -1.882  22.661   7.986  1.00  0.00    -0.366 N
HETATM   25  C4  UNL     1      -3.293  22.482   7.777  1.00  0.00     0.125 C
HETATM   26  C3  UNL     1      -3.838  21.453   8.718  1.00  0.00     0.024 C
HETATM   27  C2  UNL     1      -3.485  21.754  10.158  1.00  0.00    -0.015 C
HETATM   28  C1  UNL     1      -3.976  20.588  10.996  1.00  0.00     0.010 C
HETATM   29  C29 UNL     1      -1.981  21.844  10.332  1.00  0.00     0.024 C
HETATM   30  C28 UNL     1      -1.328  22.682   9.301  1.00  0.00     0.125 C
ENDBRANCH   1  24
BRANCH   8  31
HETATM   31  C18 UNL     1       2.159  22.587   2.825  1.00  0.00     0.044 C
BRANCH  31  32
HETATM   32  C19 UNL     1       2.305  22.747   1.314  1.00  0.00    -0.007 C
HETATM   33  C20 UNL     1       1.206  22.123   0.529  1.00  0.00     0.005 C
HETATM   34  C21 UNL     1       1.761  20.952  -0.250  1.00  0.00     0.001 C
HETATM   35  C22 UNL     1       3.023  20.604   0.462  1.00  0.00     0.005 C
HETATM   36  C23 UNL     1       3.547  21.958   0.881  1.00  0.00    -0.014 C
HETATM   37  C24 UNL     1       4.520  21.780   1.993  1.00  0.00     0.010 C
ENDBRANCH  31  32
ENDBRANCH   8  31
BRANCH  10  38
HETATM   38  O2  UNL     1       1.248  21.084   4.646  1.00  0.00    -0.358 OA
ATOM     39  H2  UNL     1       1.601  21.114   3.764  1.00  0.00     0.217 HD
ENDBRANCH  10  38
TORSDOF 6
ENDMDL