MODEL 5
REMARK VINA RESULT: -7.264306372      6.544      9.619
REMARK  5 active torsions:
REMARK  status: ('A' for Active; 'I' for Inactive)
REMARK    1  A    between atoms: C2_2  and  C3_3
REMARK    2  A    between atoms: N1_7  and  C7_8
REMARK       I    between atoms: N2_11  and  C10_12
REMARK    3  A    between atoms: C10_12  and  C11_14
REMARK    4  A    between atoms: C15_18  and  N3_19
REMARK    5  A    between atoms: C18_23  and  C19_24
ROOT
HETATM    1  C11 UNL     1       0.667  21.079   1.925  1.00  0.00     0.080 C
HETATM    2  C12 UNL     1       2.023  20.687   2.373  1.00  0.00     0.014 C
HETATM    3  C13 UNL     1       2.688  21.577   3.356  1.00  0.00     0.003 C
HETATM    4  C14 UNL     1       1.742  22.191   4.366  1.00  0.00     0.027 C
HETATM    5  C15 UNL     1       0.739  22.981   3.552  1.00  0.00     0.108 C
HETATM    6  C24 UNL     1      -0.110  21.947   2.852  1.00  0.00     0.041 C
ENDROOT
BRANCH   5   7
HETATM    7  N3  UNL     1      -0.140  23.796   4.357  1.00  0.00    -0.296 N
HETATM    8  C16 UNL     1      -1.060  23.254   5.211  1.00  0.00     0.137 A
HETATM    9  C17 UNL     1      -1.758  24.251   5.861  1.00  0.00     0.080 A
HETATM   10 CL1  UNL     1      -3.043  24.084   7.053  1.00  0.00    -0.080 Cl
HETATM   11  C18 UNL     1      -1.215  25.437   5.359  1.00  0.00     0.083 A
HETATM   12  N6  UNL     1      -0.255  25.090   4.469  1.00  0.00    -0.296 N
ATOM     13  H6  UNL     1       0.309  25.761   3.948  1.00  0.00     0.187 HD
BRANCH  11  14
HETATM   14  C19 UNL     1      -1.636  26.770   5.750  1.00  0.00     0.011 A
HETATM   15  C20 UNL     1      -1.369  27.223   7.019  1.00  0.00     0.103 A
HETATM   16  N4  UNL     1      -1.753  28.455   7.405  1.00  0.00    -0.350 N
HETATM   17  C21 UNL     1      -2.413  29.302   6.582  1.00  0.00     0.120 A
ATOM     18  H4  UNL     1      -1.539  28.761   8.354  1.00  0.00     0.166 HD
HETATM   19  N5  UNL     1      -2.773  30.488   6.998  1.00  0.00    -0.384 N
HETATM   20  C22 UNL     1      -2.691  28.870   5.305  1.00  0.00     0.078 A
ATOM     21  H52 UNL     1      -2.567  30.808   7.945  1.00  0.00     0.157 HD
ATOM     22  H51 UNL     1      -3.270  31.127   6.377  1.00  0.00     0.157 HD
HETATM   23 CL2  UNL     1      -3.546  29.951   4.226  1.00  0.00    -0.080 Cl
HETATM   24  C23 UNL     1      -2.307  27.615   4.887  1.00  0.00     0.043 A
ENDBRANCH  11  14
ENDBRANCH   5   7
BRANCH   1  25
HETATM   25  C10 UNL     1       0.643  21.676   0.574  1.00  0.00     0.224 C
HETATM   26  N2  UNL     1      -0.090  21.146  -0.512  1.00  0.00    -0.352 N
HETATM   27  C9  UNL     1      -0.927  19.977  -0.447  1.00  0.00     0.127 C
HETATM   28  C25 UNL     1      -0.015  21.829  -1.821  1.00  0.00     0.127 C
HETATM   29  C8  UNL     1      -0.845  19.154  -1.739  1.00  0.00     0.045 C
HETATM   30  C7  UNL     1      -1.172  19.937  -2.932  1.00  0.00     0.082 C
HETATM   31  C26 UNL     1      -1.334  21.413  -2.494  1.00  0.00     0.045 C
HETATM   32  O1  UNL     1       1.319  22.730   0.368  1.00  0.00    -0.273 OA
BRANCH  30  33
HETATM   33  N1  UNL     1      -2.145  19.628  -3.845  1.00  0.00    -0.404 N
HETATM   34  C3  UNL     1      -2.102  18.815  -4.943  1.00  0.00     0.079 C
HETATM   35  C4  UNL     1      -3.600  18.553  -5.293  1.00  0.00     0.026 C
HETATM   36  C5  UNL     1      -4.276  18.839  -3.992  1.00  0.00     0.021 C
HETATM   37  C6  UNL     1      -3.481  20.039  -3.501  1.00  0.00     0.118 C
BRANCH  34  38
HETATM   38  C2  UNL     1      -1.420  17.506  -5.013  1.00  0.00     0.020 C
HETATM   39  C1  UNL     1       0.058  17.532  -5.022  1.00  0.00     0.007 C
ENDBRANCH  34  38
ENDBRANCH  30  33
ENDBRANCH   1  25
TORSDOF 5
ENDMDL