MODEL 2
REMARK VINA RESULT: -8.156828640      0.421      1.470
REMARK  6 active torsions:
REMARK  status: ('A' for Active; 'I' for Inactive)
REMARK    1  A    between atoms: C7_7  and  C8_8
REMARK    2  A    between atoms: C9_11  and  N2_12
REMARK    3  A    between atoms: N2_12  and  C10_14
REMARK    4  A    between atoms: C10_14  and  C11_15
REMARK    5  A    between atoms: C10_14  and  C15_23
REMARK    6  A    between atoms: C11_15  and  C12_16
ROOT
HETATM    1  C8  UNL     1       1.272  21.182   1.271  1.00  0.00     0.070 A
HETATM    2  N1  UNL     1       0.207  21.094   0.425  1.00  0.00    -0.190 N
ATOM      3  H1  UNL     1      -0.606  21.683   0.605  1.00  0.00     0.184 HD
HETATM    4  C9  UNL     1       0.177  20.282  -0.617  1.00  0.00     0.681 A
HETATM    5  N5  UNL     1       1.237  19.512  -0.863  1.00  0.00    -0.182 N
HETATM    6  C19 UNL     1       1.260  18.597  -1.995  1.00  0.00     0.176 C
HETATM    7  C20 UNL     1       2.320  19.573  -0.045  1.00  0.00     0.130 A
HETATM    8  C21 UNL     1       2.400  20.398   1.060  1.00  0.00     0.031 A
HETATM    9  C22 UNL     1       3.665  20.150   1.735  1.00  0.00     0.065 C
HETATM   10  C23 UNL     1       3.599  19.167   2.898  1.00  0.00     0.042 C
HETATM   11  C24 UNL     1       5.061  18.770   3.193  1.00  0.00     0.082 C
HETATM   12  C25 UNL     1       5.841  19.963   3.652  1.00  0.00     0.243 C
HETATM   13  F1  UNL     1       7.085  19.964   3.055  1.00  0.00    -0.206 F
HETATM   14  F2  UNL     1       6.093  19.888   5.034  1.00  0.00    -0.206 F
HETATM   15  C26 UNL     1       5.091  21.239   3.445  1.00  0.00     0.082 C
HETATM   16  C27 UNL     1       4.478  21.358   2.075  1.00  0.00     0.042 C
HETATM   17  N6  UNL     1       4.458  19.410   0.737  1.00  0.00    -0.342 N
ATOM     18  H6  UNL     1       5.467  19.272   0.772  1.00  0.00     0.164 HD
HETATM   19  C28 UNL     1       3.615  18.931  -0.260  1.00  0.00     0.270 C
HETATM   20  O1  UNL     1       3.956  18.098  -1.158  1.00  0.00    -0.266 OA
ENDROOT
BRANCH   4  21
HETATM   21  N2  UNL     1      -0.842  20.230  -1.381  1.00  0.00    -0.221 N
ATOM     22  H2  UNL     1      -0.970  19.366  -1.908  1.00  0.00     0.178 HD
BRANCH  21  23
HETATM   23  C10 UNL     1      -1.823  21.244  -1.579  1.00  0.00     0.109 C
BRANCH  23  24
HETATM   24  C11 UNL     1      -1.548  22.121  -2.774  1.00  0.00     0.084 C
BRANCH  24  25
HETATM   25  C12 UNL     1      -0.477  21.611  -3.644  1.00  0.00     0.027 A
HETATM   26  C13 UNL     1       0.800  22.104  -3.754  1.00  0.00     0.114 A
HETATM   27  N3  UNL     1       1.463  21.344  -4.667  1.00  0.00    -0.360 N
HETATM   28  C14 UNL     1       0.622  20.392  -5.123  1.00  0.00     0.180 A
ATOM     29  H3  UNL     1       2.433  21.472  -4.957  1.00  0.00     0.166 HD
HETATM   30  N4  UNL     1      -0.543  20.571  -4.495  1.00  0.00    -0.355 N
ATOM     31  H4  UNL     1      -1.372  19.995  -4.640  1.00  0.00     0.166 HD
ENDBRANCH  24  25
ENDBRANCH  23  24
BRANCH  23  32
HETATM   32  C15 UNL     1      -3.211  20.664  -1.572  1.00  0.00     0.009 C
HETATM   33  C16 UNL     1      -3.654  20.074  -0.260  1.00  0.00     0.007 C
HETATM   34  C17 UNL     1      -4.151  18.832  -1.003  1.00  0.00     0.001 C
HETATM   35  C18 UNL     1      -3.222  19.237  -2.134  1.00  0.00     0.007 C
ENDBRANCH  23  32
ENDBRANCH  21  23
ENDBRANCH   4  21
BRANCH   1  36
HETATM   36  C7  UNL     1       1.193  22.166   2.291  1.00  0.00    -0.007 A
HETATM   37  C6  UNL     1       0.934  21.940   3.589  1.00  0.00     0.020 A
HETATM   38  C4  UNL     1       0.907  22.957   4.509  1.00  0.00    -0.061 A
HETATM   39  C3  UNL     1       1.150  24.238   4.082  1.00  0.00     0.013 A
HETATM   40  C5  UNL     1       0.622  22.724   5.960  1.00  0.00     0.048 C
HETATM   41  C2  UNL     1       1.421  24.546   2.763  1.00  0.00    -0.061 A
HETATM   42  C1  UNL     1       1.681  25.949   2.328  1.00  0.00     0.048 C
HETATM   43  C29 UNL     1       1.437  23.491   1.885  1.00  0.00     0.020 A
ENDBRANCH   1  36
TORSDOF 6
ENDMDL