MODEL 4
REMARK VINA RESULT: -6.335144957      1.331      2.254
REMARK  8 active torsions:
REMARK  status: ('A' for Active; 'I' for Inactive)
REMARK    1  A    between atoms: C2_2  and  C3_3
REMARK    2  A    between atoms: C3_3  and  O1_4
REMARK    3  A    between atoms: O1_4  and  C4_5
REMARK    4  A    between atoms: C6_9  and  N2_10
REMARK    5  A    between atoms: N2_10  and  C7_12
REMARK    6  A    between atoms: C13_22  and  N4_23
REMARK    7  A    between atoms: N4_23  and  C14_25
REMARK    8  A    between atoms: C15_26  and  C16_27
ROOT
HETATM    1  C4  UNL     1       3.307  18.267  -0.755  1.00  0.00     0.129 A
HETATM    2  C5  UNL     1       4.329  18.605   0.094  1.00  0.00     0.146 A
HETATM    3  N1  UNL     1       4.150  19.414   1.163  1.00  0.00    -0.199 N
ATOM      4  H1  UNL     1       4.942  19.637   1.767  1.00  0.00     0.183 HD
HETATM    5  C6  UNL     1       2.940  19.923   1.434  1.00  0.00     0.684 A
HETATM    6  N3  UNL     1       1.934  19.598   0.609  1.00  0.00    -0.174 N
ATOM      7  H3  UNL     1       1.013  19.985   0.815  1.00  0.00     0.186 HD
HETATM    8  C13 UNL     1       2.044  18.809  -0.458  1.00  0.00     0.156 A
ENDROOT
BRANCH   8   9
HETATM    9  N4  UNL     1       1.035  18.534  -1.209  1.00  0.00    -0.346 N
ATOM     10  H4  UNL     1       0.289  17.995  -0.769  1.00  0.00     0.167 HD
BRANCH   9  11
HETATM   11  C14 UNL     1       0.825  18.882  -2.570  1.00  0.00     0.001 C
HETATM   12  C15 UNL     1       0.648  20.280  -2.924  1.00  0.00     0.039 C
HETATM   13  C20 UNL     1       0.016  20.383  -4.318  1.00  0.00     0.011 C
HETATM   14  C21 UNL     1       0.660  19.277  -5.149  1.00  0.00     0.002 C
HETATM   15  C22 UNL     1      -0.088  18.016  -4.746  1.00  0.00     0.015 C
HETATM   16  C23 UNL     1      -0.124  17.882  -3.263  1.00  0.00    -0.009 C
HETATM   17  C24 UNL     1      -1.481  17.800  -2.703  1.00  0.00     0.021 C
HETATM   18  C25 UNL     1       0.516  16.506  -2.962  1.00  0.00     0.021 C
BRANCH  12  19
HETATM   19  C16 UNL     1      -0.001  21.285  -2.089  1.00  0.00    -0.043 C
HETATM   20  C17 UNL     1       0.864  22.257  -1.345  1.00  0.00     0.015 C
HETATM   21  C18 UNL     1      -0.865  22.187  -3.005  1.00  0.00     0.015 C
HETATM   22  C19 UNL     1      -1.025  20.789  -1.092  1.00  0.00     0.015 C
ENDBRANCH  12  19
ENDBRANCH   9  11
ENDBRANCH   8   9
BRANCH   1  23
HETATM   23  O1  UNL     1       3.398  17.487  -1.813  1.00  0.00    -0.341 OA
BRANCH  23  24
HETATM   24  C3  UNL     1       4.092  17.313  -2.922  1.00  0.00     0.244 C
BRANCH  24  25
HETATM   25  C2  UNL     1       5.392  16.550  -2.919  1.00  0.00     0.187 C
HETATM   26  C1  UNL     1       5.486  15.390  -1.995  1.00  0.00     0.081 C
HETATM   27  O2  UNL     1       6.512  17.417  -2.838  1.00  0.00    -0.329 OA
HETATM   28  C26 UNL     1       6.558  17.438  -4.233  1.00  0.00     0.345 C
HETATM   29  O3  UNL     1       5.849  16.239  -4.192  1.00  0.00    -0.329 OA
ENDBRANCH  24  25
ENDBRANCH  23  24
ENDBRANCH   1  23
BRANCH   5  30
HETATM   30  N2  UNL     1       2.724  20.690   2.431  1.00  0.00    -0.190 N
ATOM     31  H2  UNL     1       2.757  20.279   3.364  1.00  0.00     0.184 HD
BRANCH  30  32
HETATM   32  C7  UNL     1       2.443  22.063   2.329  1.00  0.00     0.071 A
HETATM   33  C8  UNL     1       3.084  22.861   1.404  1.00  0.00     0.033 A
HETATM   34  C9  UNL     1       2.773  24.206   1.343  1.00  0.00     0.026 A
HETATM   35  C10 UNL     1       1.826  24.765   2.197  1.00  0.00     0.035 A
HETATM   36 CL1  UNL     1       1.418  26.473   2.133  1.00  0.00    -0.084 Cl
HETATM   37  C11 UNL     1       1.186  23.964   3.121  1.00  0.00     0.050 A
HETATM   38  C12 UNL     1       1.502  22.612   3.179  1.00  0.00     0.062 A
HETATM   39 CL2  UNL     1       0.704  21.588   4.340  1.00  0.00    -0.082 Cl
ENDBRANCH  30  32
ENDBRANCH   5  30
TORSDOF 8
ENDMDL