MODEL 3
REMARK VINA RESULT: -6.903008393      2.094      2.614
REMARK  7 active torsions:
REMARK  status: ('A' for Active; 'I' for Inactive)
REMARK    1  A    between atoms: C2_2  and  C5_5
REMARK    2  A    between atoms: C5_5  and  C6_6
REMARK    3  A    between atoms: C5_5  and  C22_32
REMARK       I    between atoms: C6_6  and  N1_8
REMARK    4  A    between atoms: N1_8  and  C7_10
REMARK    5  A    between atoms: C7_10  and  C9_12
REMARK    6  A    between atoms: C7_10  and  C15_25
REMARK    7  A    between atoms: N5_19  and  C10_20
ROOT
HETATM    1  C7  UNL     1       0.690  18.560   0.367  1.00  0.00     0.096 C
HETATM    2  C8  UNL     1      -0.633  18.812   0.940  1.00  0.00     0.047 C
ENDROOT
BRANCH   1   3
HETATM    3  N1  UNL     1       1.607  19.536   0.992  1.00  0.00    -0.341 N
HETATM    4  C6  UNL     1       2.961  19.704   0.740  1.00  0.00     0.250 C
HETATM    5  O1  UNL     1       3.543  18.981  -0.101  1.00  0.00    -0.268 OA
ATOM      6  H1  UNL     1       1.197  20.158   1.689  1.00  0.00     0.164 HD
BRANCH   4   7
HETATM    7  C5  UNL     1       3.809  20.715   1.413  1.00  0.00     0.027 C
BRANCH   7   8
HETATM    8  C2  UNL     1       4.761  20.210   2.424  1.00  0.00    -0.018 C
HETATM    9  C1  UNL     1       5.545  21.226   3.203  1.00  0.00     0.019 C
HETATM   10  C3  UNL     1       4.113  19.279   3.435  1.00  0.00     0.019 C
HETATM   11  C4  UNL     1       5.816  19.321   1.723  1.00  0.00     0.019 C
ENDBRANCH   7   8
BRANCH   7  12
HETATM   12  C22 UNL     1       3.061  21.936   1.782  1.00  0.00    -0.021 A
HETATM   13  C23 UNL     1       3.263  23.132   1.107  1.00  0.00     0.013 A
HETATM   14  C24 UNL     1       2.574  24.262   1.423  1.00  0.00     0.010 A
HETATM   15  C25 UNL     1       1.633  24.280   2.435  1.00  0.00    -0.029 A
HETATM   16  C26 UNL     1       1.424  23.101   3.109  1.00  0.00     0.036 A
HETATM   17  C29 UNL     1       0.752  25.370   2.974  1.00  0.00     0.082 C
HETATM   18  C27 UNL     1       2.124  21.952   2.790  1.00  0.00     0.042 A
HETATM   19  N6  UNL     1       0.413  23.341   4.119  1.00  0.00    -0.372 N
HETATM   20  C28 UNL     1      -0.119  24.671   3.975  1.00  0.00     0.183 C
ATOM     21  H6  UNL     1       0.121  22.666   4.827  1.00  0.00     0.161 HD
HETATM   22 CL1  UNL     1      -0.009  25.475   5.579  1.00  0.00    -0.102 Cl
ENDBRANCH   7  12
ENDBRANCH   4   7
ENDBRANCH   1   3
BRANCH   1  23
HETATM   23  C9  UNL     1       0.878  18.790  -1.082  1.00  0.00     0.144 A
HETATM   24  N2  UNL     1       1.477  17.854  -1.844  1.00  0.00    -0.270 N
HETATM   25  N3  UNL     1       1.524  18.248  -3.085  1.00  0.00    -0.227 N
ATOM     26  H2  UNL     1       1.842  16.966  -1.499  1.00  0.00     0.190 HD
HETATM   27  N4  UNL     1       0.956  19.431  -3.112  1.00  0.00    -0.224 N
ATOM     28  H3  UNL     1       1.922  17.740  -3.875  1.00  0.00     0.210 HD
HETATM   29  N5  UNL     1       0.549  19.782  -1.876  1.00  0.00    -0.256 N
ATOM     30  H4  UNL     1       0.838  20.003  -3.949  1.00  0.00     0.210 HD
BRANCH  29  31
HETATM   31  C10 UNL     1      -0.109  21.038  -1.643  1.00  0.00     0.111 C
HETATM   32  C11 UNL     1      -1.590  20.990  -1.952  1.00  0.00     0.027 C
HETATM   33  C12 UNL     1      -1.869  21.974  -3.041  1.00  0.00     0.002 C
HETATM   34  C13 UNL     1      -0.559  22.127  -3.785  1.00  0.00     0.002 C
HETATM   35  C14 UNL     1       0.434  22.044  -2.675  1.00  0.00     0.027 C
ENDBRANCH  29  31
ENDBRANCH   1  23
BRANCH   1  36
HETATM   36  C15 UNL     1       1.226  17.163   0.625  1.00  0.00     0.038 A
HETATM   37  C16 UNL     1       1.593  16.538   1.864  1.00  0.00    -0.033 A
HETATM   38  C17 UNL     1       1.231  16.860   3.247  1.00  0.00     0.016 C
HETATM   39  C18 UNL     1       2.910  15.712   1.829  1.00  0.00     0.016 C
HETATM   40  C19 UNL     1       0.446  15.987   0.995  1.00  0.00    -0.033 A
HETATM   41  C20 UNL     1      -0.924  15.902   1.530  1.00  0.00     0.016 C
HETATM   42  C21 UNL     1       0.818  14.624   0.324  1.00  0.00     0.016 C
ENDBRANCH   1  36
TORSDOF 7
ENDMDL