MODEL 4
REMARK VINA RESULT: -7.464569953      3.996      9.780
REMARK  10 active torsions:
REMARK  status: ('A' for Active; 'I' for Inactive)
REMARK    1  A    between atoms: C2_2  and  C3_3
REMARK    2  A    between atoms: C2_2  and  C12_15
REMARK    3  A    between atoms: C3_3  and  C4_4
REMARK    4  A    between atoms: C4_4  and  N1_5
REMARK    5  A    between atoms: C15_18  and  N2_19
REMARK    6  A    between atoms: N2_19  and  C16_21
REMARK    7  A    between atoms: C16_21  and  O3_22
REMARK    8  A    between atoms: C16_21  and  C17_24
REMARK    9  A    between atoms: C20_29  and  C21_30
REMARK   10  A    between atoms: C26_39  and  C27_40
ROOT
HETATM    1  N2  UNL     1       2.668  19.947   3.386  1.00  0.00    -0.336 N
ATOM      2  H2  UNL     1       2.194  19.104   3.709  1.00  0.00     0.168 HD
ENDROOT
BRANCH   1   3
HETATM    3  C15 UNL     1       4.100  20.050   3.488  1.00  0.00     0.034 A
HETATM    4  C14 UNL     1       4.777  19.147   4.294  1.00  0.00     0.030 A
HETATM    5  C13 UNL     1       6.142  19.236   4.455  1.00  0.00     0.010 A
HETATM    6  C12 UNL     1       6.868  20.239   3.806  1.00  0.00    -0.054 A
HETATM    7  C29 UNL     1       6.175  21.106   3.017  1.00  0.00     0.010 A
HETATM    8  C28 UNL     1       4.787  21.024   2.848  1.00  0.00     0.030 A
BRANCH   6   9
HETATM    9  C2  UNL     1       8.323  20.328   4.073  1.00  0.00     0.019 C
HETATM   10  C1  UNL     1       8.635  19.230   5.090  1.00  0.00     0.015 C
BRANCH   9  11
HETATM   11  C3  UNL     1       9.102  20.130   2.804  1.00  0.00     0.053 C
BRANCH  11  12
HETATM   12  C4  UNL     1       9.364  18.708   2.478  1.00  0.00     0.063 C
BRANCH  12  13
HETATM   13  N1  UNL     1       9.231  18.295   1.145  1.00  0.00    -0.373 N
HETATM   14  C5  UNL     1       9.968  17.198   0.673  1.00  0.00     0.068 C
HETATM   15  C6  UNL     1      10.934  17.539  -0.448  1.00  0.00     0.113 C
HETATM   16  C7  UNL     1      10.218  18.354  -1.481  1.00  0.00     0.169 C
HETATM   17  C8  UNL     1       9.767  19.645  -0.825  1.00  0.00     0.089 C
HETATM   18  O1  UNL     1      10.984  18.594  -2.614  1.00  0.00    -0.353 OA
HETATM   19  O2  UNL     1       9.055  17.707  -1.949  1.00  0.00    -0.353 OA
HETATM   20  C9  UNL     1       8.733  19.233   0.212  1.00  0.00     0.132 C
HETATM   21  C10 UNL     1      10.009  19.086  -3.501  1.00  0.00     0.197 C
HETATM   22  C11 UNL     1       8.692  18.493  -3.046  1.00  0.00     0.197 C
ENDBRANCH  12  13
ENDBRANCH  11  12
ENDBRANCH   9  11
ENDBRANCH   6   9
ENDBRANCH   1   3
BRANCH   1  23
HETATM   23  C16 UNL     1       1.933  20.988   2.852  1.00  0.00     0.153 C
BRANCH  23  24
HETATM   24  O3  UNL     1       1.396  21.792   3.740  1.00  0.00    -0.345 OA
ATOM     25  H3  UNL     1       0.449  21.854   3.697  1.00  0.00     0.219 HD
ENDBRANCH  23  24
BRANCH  23  26
HETATM   26  C17 UNL     1       1.633  21.348   1.489  1.00  0.00     0.045 A
HETATM   27  C18 UNL     1       0.930  20.376   0.714  1.00  0.00     0.051 A
HETATM   28  C19 UNL     1       0.702  20.577  -0.614  1.00  0.00     0.079 A
HETATM   29  N3  UNL     1       0.084  19.822  -1.529  1.00  0.00    -0.342 N
HETATM   30  C25 UNL     1       1.150  21.728  -1.227  1.00  0.00     0.134 A
HETATM   31  C20 UNL     1       0.117  20.447  -2.730  1.00  0.00     0.091 A
ATOM     32  H3  UNL     1      -0.345  18.915  -1.351  1.00  0.00     0.167 HD
HETATM   33  N4  UNL     1       0.766  21.600  -2.523  1.00  0.00    -0.330 N
ATOM     34  H4  UNL     1       0.949  22.294  -3.248  1.00  0.00     0.168 HD
HETATM   35  N5  UNL     1       1.809  22.651  -0.509  1.00  0.00    -0.339 N
HETATM   36  C26 UNL     1       2.042  22.452   0.844  1.00  0.00     0.090 A
ATOM     37  H5  UNL     1       2.140  23.503  -0.960  1.00  0.00     0.167 HD
BRANCH  31  38
HETATM   38  C21 UNL     1      -0.468  19.899  -4.004  1.00  0.00     0.007 C
HETATM   39  C22 UNL     1      -1.967  20.195  -3.937  1.00  0.00     0.022 C
HETATM   40  C23 UNL     1       0.179  20.589  -5.171  1.00  0.00     0.022 C
HETATM   41  C24 UNL     1      -0.303  18.414  -4.011  1.00  0.00     0.022 C
ENDBRANCH  31  38
BRANCH  36  42
HETATM   42  C27 UNL     1       2.683  23.586   1.569  1.00  0.00     0.404 C
HETATM   43  F1  UNL     1       1.642  24.431   1.996  1.00  0.00    -0.207 F
HETATM   44  F2  UNL     1       3.399  24.387   0.656  1.00  0.00    -0.207 F
ENDBRANCH  36  42
ENDBRANCH  23  26
ENDBRANCH   1  23
TORSDOF 10
ENDMDL