MODEL 5
REMARK VINA RESULT: -6.752006277      1.953      2.472
REMARK  7 active torsions:
REMARK  status: ('A' for Active; 'I' for Inactive)
REMARK    1  A    between atoms: O1_2  and  C2_3
REMARK    2  A    between atoms: C6_9  and  C7_10
REMARK    3  A    between atoms: C10_13  and  C11_14
REMARK    4  A    between atoms: C16_24  and  C17_25
REMARK    5  A    between atoms: C20_28  and  N3_29
REMARK    6  A    between atoms: C23_32  and  O3_33
REMARK    7  A    between atoms: O3_33  and  C24_34
ROOT
HETATM    1  C2  UNL     1       6.369  17.568   5.716  1.00  0.00     0.082 A
HETATM    2  C3  UNL     1       5.301  17.912   6.547  1.00  0.00     0.082 A
HETATM    3  C4  UNL     1       4.223  18.539   6.029  1.00  0.00     0.153 A
HETATM    4  F1  UNL     1       3.176  18.886   6.815  1.00  0.00    -0.203 F
HETATM    5  C5  UNL     1       4.201  18.819   4.697  1.00  0.00     0.126 A
HETATM    6  O2  UNL     1       3.270  19.408   3.965  1.00  0.00    -0.306 OA
HETATM    7  C6  UNL     1       3.617  19.483   2.724  1.00  0.00     0.087 A
HETATM    8  C14 UNL     1       4.881  18.894   2.636  1.00  0.00     0.053 A
HETATM    9  C15 UNL     1       5.252  18.477   3.887  1.00  0.00     0.017 A
HETATM   10  C16 UNL     1       6.401  17.828   4.367  1.00  0.00     0.013 A
ENDROOT
BRANCH  10  11
HETATM   11  C17 UNL     1       7.512  17.396   3.529  1.00  0.00    -0.066 C
HETATM   12  C18 UNL     1       7.403  16.133   2.766  1.00  0.00     0.037 C
HETATM   13  C19 UNL     1       7.973  16.044   1.389  1.00  0.00     0.030 C
HETATM   14  C20 UNL     1       8.851  17.165   0.940  1.00  0.00     0.088 C
HETATM   15  C27 UNL     1       9.514  17.816   2.137  1.00  0.00     0.030 C
HETATM   16  C28 UNL     1       8.345  18.477   2.930  1.00  0.00     0.037 C
BRANCH  14  17
HETATM   17  N3  UNL     1       9.731  16.856  -0.116  1.00  0.00    -0.369 N
HETATM   18  C21 UNL     1       9.201  16.784  -1.410  1.00  0.00     0.066 C
HETATM   19  C22 UNL     1       9.772  17.684  -2.449  1.00  0.00     0.077 C
HETATM   20  C23 UNL     1      11.271  17.770  -2.428  1.00  0.00     0.140 C
HETATM   21  C25 UNL     1      11.898  17.144  -1.230  1.00  0.00     0.077 C
HETATM   22  C26 UNL     1      11.081  17.233   0.028  1.00  0.00     0.066 C
BRANCH  20  23
HETATM   23  O3  UNL     1      11.675  19.131  -2.477  1.00  0.00    -0.323 OA
BRANCH  23  24
HETATM   24  C24 UNL     1      10.853  20.089  -3.039  1.00  0.00     0.223 C
HETATM   25  N4  UNL     1      10.654  20.243  -4.420  1.00  0.00    -0.063 NA
HETATM   26  S1  UNL     1      10.065  21.103  -2.007  1.00  0.00    -0.037 SA
ENDBRANCH  23  24
ENDBRANCH  20  23
ENDBRANCH  14  17
ENDBRANCH  10  11
BRANCH   1  27
HETATM   27  O1  UNL     1       7.405  16.943   6.331  1.00  0.00    -0.355 OA
HETATM   28  C1  UNL     1       7.368  16.214   7.514  1.00  0.00     0.210 C
ENDBRANCH   1  27
BRANCH   7  29
HETATM   29  C7  UNL     1       2.861  20.063   1.605  1.00  0.00     0.001 A
HETATM   30  C8  UNL     1       2.304  19.279   0.631  1.00  0.00     0.015 A
HETATM   31  C9  UNL     1       1.592  19.789  -0.428  1.00  0.00     0.019 A
HETATM   32  C10 UNL     1       1.396  21.169  -0.563  1.00  0.00     0.043 A
HETATM   33  C12 UNL     1       1.951  21.953   0.408  1.00  0.00     0.130 A
HETATM   34  F2  UNL     1       1.811  23.304   0.354  1.00  0.00    -0.205 F
HETATM   35  C13 UNL     1       2.680  21.415   1.489  1.00  0.00     0.057 A
BRANCH  32  36
HETATM   36  C11 UNL     1       0.638  21.672  -1.696  1.00  0.00     0.123 C
HETATM   37  N1  UNL     1       1.034  22.361  -2.677  1.00  0.00    -0.387 N
ATOM     38  H12 UNL     1       2.029  22.582  -2.653  1.00  0.00     0.157 HD
ATOM     39  H11 UNL     1       0.502  22.714  -3.473  1.00  0.00     0.157 HD
HETATM   40  N2  UNL     1      -0.794  21.353  -1.731  1.00  0.00    -0.082 NA
ENDBRANCH  32  36
ENDBRANCH   7  29
TORSDOF 7
ENDMDL