MODEL 5
REMARK VINA RESULT: -7.625861678      1.837      3.807
REMARK  6 active torsions:
REMARK  status: ('A' for Active; 'I' for Inactive)
REMARK    1  A    between atoms: N1_2  and  C3_4
REMARK    2  A    between atoms: C5_6  and  O1_7
REMARK    3  A    between atoms: O1_7  and  C6_8
REMARK    4  A    between atoms: C12_15  and  C13_16
REMARK    5  A    between atoms: C16_22  and  C17_23
REMARK    6  A    between atoms: C18_24  and  C19_25
ROOT
HETATM    1  C13 UNL     1       2.826  18.724   4.630  1.00  0.00     0.059 A
HETATM    2  C14 UNL     1       1.906  17.864   4.089  1.00  0.00     0.121 A
HETATM    3  N2  UNL     1       0.657  18.302   3.741  1.00  0.00    -0.330 N
ATOM      4  H2  UNL     1      -0.008  17.640   3.342  1.00  0.00     0.168 HD
HETATM    5  C15 UNL     1       0.287  19.580   3.913  1.00  0.00     0.273 A
HETATM    6  O3  UNL     1      -0.875  19.952   3.581  1.00  0.00    -0.266 OA
HETATM    7  C16 UNL     1       1.213  20.443   4.456  1.00  0.00     0.115 A
HETATM    8  N5  UNL     1       2.437  20.006   4.796  1.00  0.00    -0.349 N
ATOM      9  H5  UNL     1       3.100  20.670   5.195  1.00  0.00     0.166 HD
ENDROOT
BRANCH   7  10
HETATM   10  C17 UNL     1       0.852  21.838   4.659  1.00  0.00     0.038 A
HETATM   11  C18 UNL     1       0.193  22.321   5.788  1.00  0.00     0.073 A
HETATM   12  N4  UNL     1       0.057  23.641   5.575  1.00  0.00    -0.353 N
HETATM   13  C24 UNL     1       0.590  23.996   4.392  1.00  0.00     0.047 A
ATOM     14  H4  UNL     1      -0.390  24.288   6.224  1.00  0.00     0.166 HD
HETATM   15  C25 UNL     1       0.694  25.228   3.738  1.00  0.00     0.075 A
HETATM   16  C29 UNL     1       1.107  22.874   3.777  1.00  0.00     0.009 A
HETATM   17  C26 UNL     1       1.300  25.316   2.505  1.00  0.00     0.157 A
HETATM   18  F1  UNL     1       1.374  26.529   1.917  1.00  0.00    -0.203 F
HETATM   19  C27 UNL     1       1.817  24.196   1.892  1.00  0.00     0.155 A
HETATM   20  F2  UNL     1       2.411  24.292   0.682  1.00  0.00    -0.203 F
HETATM   21  C28 UNL     1       1.720  22.965   2.533  1.00  0.00     0.060 A
BRANCH  11  22
HETATM   22  C19 UNL     1      -0.241  21.531   6.938  1.00  0.00     0.059 A
HETATM   23  C20 UNL     1       0.695  21.173   7.907  1.00  0.00     0.032 A
HETATM   24  C21 UNL     1       0.375  20.439   9.006  1.00  0.00     0.004 A
HETATM   25  C22 UNL     1      -0.933  20.032   9.168  1.00  0.00     0.017 A
HETATM   26  C23 UNL     1      -1.853  20.400   8.189  1.00  0.00     0.088 A
HETATM   27  N3  UNL     1      -1.508  21.127   7.110  1.00  0.00    -0.364 N
ATOM     28  H3  UNL     1      -2.215  21.373   6.418  1.00  0.00     0.165 HD
ENDBRANCH  11  22
ENDBRANCH   7  10
BRANCH   1  29
HETATM   29  C12 UNL     1       4.186  18.339   5.032  1.00  0.00    -0.003 A
HETATM   30  C11 UNL     1       5.279  18.757   4.304  1.00  0.00     0.050 A
HETATM   31  C5  UNL     1       6.590  18.409   4.657  1.00  0.00     0.072 A
HETATM   32  C4  UNL     1       6.818  17.625   5.763  1.00  0.00     0.066 A
HETATM   33  C3  UNL     1       5.735  17.201   6.501  1.00  0.00     0.033 A
HETATM   34  C30 UNL     1       4.430  17.557   6.134  1.00  0.00     0.043 A
BRANCH  31  35
HETATM   35  O1  UNL     1       7.634  18.855   3.893  1.00  0.00    -0.346 OA
BRANCH  35  36
HETATM   36  C6  UNL     1       7.704  19.037   2.524  1.00  0.00     0.133 C
HETATM   37  C7  UNL     1       7.955  17.690   1.846  1.00  0.00     0.058 C
HETATM   38  C8  UNL     1       9.395  17.517   1.449  1.00  0.00     0.170 C
HETATM   39  O2  UNL     1       9.724  18.405   0.429  1.00  0.00    -0.391 OA
HETATM   40  C9  UNL     1       9.197  19.663   0.668  1.00  0.00     0.170 C
HETATM   41  C10 UNL     1       8.910  19.902   2.127  1.00  0.00     0.058 C
ENDBRANCH  35  36
ENDBRANCH  31  35
BRANCH  33  42
HETATM   42  N1  UNL     1       5.962  16.390   7.645  1.00  0.00    -0.389 N
HETATM   43  C1  UNL     1       7.282  16.006   8.088  1.00  0.00     0.149 C
HETATM   44  C2  UNL     1       4.833  15.918   8.411  1.00  0.00     0.149 C
ENDBRANCH  33  42
ENDBRANCH   1  29
TORSDOF 6
ENDMDL