MODEL 1
REMARK VINA RESULT: -8.641528117      0.000      0.000
REMARK  6 active torsions:
REMARK  status: ('A' for Active; 'I' for Inactive)
REMARK       I    between atoms: N1_5  and  C5_6
REMARK    1  A    between atoms: C5_6  and  C6_8
REMARK    2  A    between atoms: C8_14  and  S1_15
REMARK    3  A    between atoms: S1_15  and  S2_16
REMARK    4  A    between atoms: S2_16  and  C9_17
REMARK    5  A    between atoms: C10_20  and  C11_21
REMARK    6  A    between atoms: C17_30  and  C18_31
ROOT
HETATM    1  C9  UNL     1       1.638  20.558   2.478  1.00  0.00     0.110 A
HETATM    2  N4  UNL     1       2.583  19.573   2.686  1.00  0.00    -0.338 N
ATOM      3  H4  UNL     1       2.407  18.571   2.612  1.00  0.00     0.168 HD
HETATM    4  C10 UNL     1       3.752  20.119   2.995  1.00  0.00     0.086 A
HETATM    5  N6  UNL     1       3.612  21.445   3.000  1.00  0.00    -0.343 N
ATOM      6  H6  UNL     1       4.340  22.130   3.203  1.00  0.00     0.167 HD
HETATM    7  C17 UNL     1       2.288  21.720   2.677  1.00  0.00     0.081 A
ENDROOT
BRANCH   1   8
HETATM    8  S2  UNL     1      -0.039  20.234   2.061  1.00  0.00    -0.030 SA
BRANCH   8   9
HETATM    9  S1  UNL     1      -0.338  19.578   0.106  1.00  0.00    -0.030 SA
BRANCH   9  10
HETATM   10  C8  UNL     1       0.223  20.795  -1.046  1.00  0.00     0.112 A
HETATM   11  C6  UNL     1      -0.491  21.210  -2.148  1.00  0.00     0.084 A
HETATM   12  C7  UNL     1       0.291  22.153  -2.783  1.00  0.00     0.127 A
HETATM   13  N2  UNL     1       1.431  22.302  -2.091  1.00  0.00    -0.310 N
HETATM   14  N3  UNL     1       1.378  21.472  -1.039  1.00  0.00    -0.293 N
ATOM     15  H2  UNL     1       2.200  22.932  -2.324  1.00  0.00     0.186 HD
ATOM     16  H3  UNL     1       2.111  21.372  -0.335  1.00  0.00     0.187 HD
BRANCH  11  17
HETATM   17  C5  UNL     1      -1.821  20.776  -2.609  1.00  0.00     0.258 C
HETATM   18  N1  UNL     1      -1.942  19.685  -3.507  1.00  0.00    -0.348 N
HETATM   19  C4  UNL     1      -0.784  18.974  -3.994  1.00  0.00     0.126 C
HETATM   20  C24 UNL     1      -3.248  19.272  -3.939  1.00  0.00     0.126 C
HETATM   21  C3  UNL     1      -0.880  18.616  -5.435  1.00  0.00     0.024 C
HETATM   22  C2  UNL     1      -2.207  18.082  -5.879  1.00  0.00    -0.015 C
HETATM   23  C1  UNL     1      -2.447  16.652  -5.430  1.00  0.00     0.010 C
HETATM   24  C25 UNL     1      -3.360  18.929  -5.388  1.00  0.00     0.024 C
HETATM   25  O1  UNL     1      -2.860  21.358  -2.217  1.00  0.00    -0.267 OA
ENDBRANCH  11  17
ENDBRANCH   9  10
ENDBRANCH   8   9
ENDBRANCH   1   8
BRANCH   7  26
HETATM   26  C18 UNL     1       1.795  23.087   2.623  1.00  0.00     0.035 A
HETATM   27  C19 UNL     1       0.912  23.557   3.563  1.00  0.00     0.059 A
HETATM   28  C20 UNL     1       0.490  24.893   3.545  1.00  0.00     0.117 A
HETATM   29  F1  UNL     1      -0.381  25.361   4.472  1.00  0.00    -0.206 F
HETATM   30  C21 UNL     1       0.942  25.775   2.588  1.00  0.00     0.045 A
HETATM   31  C22 UNL     1       1.827  25.297   1.645  1.00  0.00     0.046 A
HETATM   32  C23 UNL     1       2.232  23.988   1.676  1.00  0.00     0.129 A
HETATM   33  F2  UNL     1       3.110  23.553   0.724  1.00  0.00    -0.205 F
ENDBRANCH   7  26
BRANCH   4  34
HETATM   34  C11 UNL     1       5.028  19.370   3.296  1.00  0.00     0.056 C
HETATM   35  C12 UNL     1       6.174  20.300   3.492  1.00  0.00     0.032 C
HETATM   36  C13 UNL     1       7.157  19.741   4.452  1.00  0.00     0.117 C
HETATM   37  N5  UNL     1       7.284  18.333   4.518  1.00  0.00    -0.417 N
HETATM   38  C14 UNL     1       8.235  17.728   3.655  1.00  0.00     0.143 C
HETATM   39  C15 UNL     1       6.041  17.624   4.679  1.00  0.00     0.117 C
HETATM   40  C16 UNL     1       4.845  18.538   4.519  1.00  0.00     0.032 C
ENDBRANCH   4  34
TORSDOF 6
ENDMDL