MODEL 2
REMARK VINA RESULT: -6.518274410      3.307      4.564
REMARK  7 active torsions:
REMARK  status: ('A' for Active; 'I' for Inactive)
REMARK    1  A    between atoms: N1_2  and  C2_4
REMARK    2  A    between atoms: C3_5  and  C4_6
REMARK    3  A    between atoms: N2_10  and  S1_11
REMARK    4  A    between atoms: S1_11  and  C8_14
REMARK    5  A    between atoms: C13_21  and  O3_22
REMARK    6  A    between atoms: O3_22  and  C14_23
REMARK    7  A    between atoms: C14_23  and  C17_26
ROOT
HETATM    1  S1  UNL     1       5.378  20.461   3.108  1.00  0.00     0.277 S
HETATM    2  O1  UNL     1       5.057  19.717   4.418  1.00  0.00    -0.199 OA
HETATM    3  O2  UNL     1       6.424  21.519   3.495  1.00  0.00    -0.199 OA
ENDROOT
BRANCH   1   4
HETATM    4  N2  UNL     1       4.024  21.170   2.498  1.00  0.00    -0.295 N
HETATM    5  C4  UNL     1       2.781  21.258   3.192  1.00  0.00     0.148 C
HETATM    6  C5  UNL     1       2.021  20.182   2.348  1.00  0.00     0.034 C
HETATM    7  C6  UNL     1       2.561  20.247   0.972  1.00  0.00     0.023 C
HETATM    8  C7  UNL     1       3.857  20.970   1.110  1.00  0.00     0.136 C
BRANCH   5   9
HETATM    9  C3  UNL     1       2.184  22.595   2.823  1.00  0.00     0.061 A
HETATM   10  C2  UNL     1       1.163  23.130   3.520  1.00  0.00     0.076 A
HETATM   11  C24 UNL     1       0.739  24.441   3.200  1.00  0.00     0.085 A
HETATM   12  C23 UNL     1       1.369  25.116   2.199  1.00  0.00     0.073 A
HETATM   13 CL2  UNL     1      -0.584  25.114   4.133  1.00  0.00    -0.080 Cl
HETATM   14  C22 UNL     1       2.422  24.552   1.479  1.00  0.00     0.114 A
HETATM   15 CL1  UNL     1       0.862  26.737   1.789  1.00  0.00    -0.081 Cl
HETATM   16  N5  UNL     1       2.785  23.317   1.820  1.00  0.00    -0.364 N
ATOM     17  H5  UNL     1       3.552  22.881   1.308  1.00  0.00     0.165 HD
BRANCH  10  18
HETATM   18  N1  UNL     1       0.426  22.439   4.495  1.00  0.00    -0.391 N
HETATM   19  C1  UNL     1       0.738  22.469   5.891  1.00  0.00     0.146 C
ATOM     20  H1  UNL     1      -0.376  21.885   4.192  1.00  0.00     0.159 HD
ENDBRANCH  10  18
ENDBRANCH   5   9
ENDBRANCH   1   4
BRANCH   1  21
HETATM   21  C8  UNL     1       6.148  19.268   2.098  1.00  0.00     0.150 A
HETATM   22  C9  UNL     1       6.302  17.922   2.469  1.00  0.00     0.057 A
HETATM   23  C10 UNL     1       6.958  17.225   1.487  1.00  0.00    -0.001 A
HETATM   24  C11 UNL     1       7.340  15.901   1.340  1.00  0.00     0.031 A
HETATM   25  C21 UNL     1       7.216  18.158   0.489  1.00  0.00     0.095 A
HETATM   26  C12 UNL     1       7.984  15.460   0.212  1.00  0.00     0.091 A
HETATM   27  N3  UNL     1       8.221  16.377  -0.734  1.00  0.00    -0.345 N
HETATM   28  C13 UNL     1       7.860  17.690  -0.625  1.00  0.00     0.171 A
ATOM     29  H3  UNL     1       8.698  16.078  -1.585  1.00  0.00     0.167 HD
HETATM   30  N4  UNL     1       6.710  19.362   0.905  1.00  0.00    -0.341 N
ATOM     31  H4  UNL     1       6.760  20.223   0.361  1.00  0.00     0.167 HD
BRANCH  28  32
HETATM   32  O3  UNL     1       8.166  18.520  -1.673  1.00  0.00    -0.323 OA
BRANCH  32  33
HETATM   33  C14 UNL     1       9.448  19.195  -1.733  1.00  0.00     0.069 C
HETATM   34  C15 UNL     1       9.176  20.676  -1.656  1.00  0.00     0.047 C
HETATM   35  C16 UNL     1      10.208  18.854  -0.459  1.00  0.00     0.047 C
BRANCH  33  36
HETATM   36  C17 UNL     1      10.114  18.744  -2.988  1.00  0.00    -0.020 C
HETATM   37  C18 UNL     1      11.194  17.718  -2.732  1.00  0.00     0.017 C
HETATM   38  C19 UNL     1      10.749  19.873  -3.783  1.00  0.00     0.017 C
HETATM   39  C20 UNL     1       9.122  18.093  -3.938  1.00  0.00     0.017 C
ENDBRANCH  33  36
ENDBRANCH  32  33
ENDBRANCH  28  32
ENDBRANCH   1  21
TORSDOF 7
ENDMDL