MODEL 2
REMARK VINA RESULT: -7.515488523      5.528      7.130
REMARK  6 active torsions:
REMARK  status: ('A' for Active; 'I' for Inactive)
REMARK    1  A    between atoms: O1_2  and  C2_3
REMARK    2  A    between atoms: C5_6  and  N1_7
REMARK       I    between atoms: N1_7  and  C6_9
REMARK    3  A    between atoms: C6_9  and  C7_11
REMARK    4  A    between atoms: C10_14  and  O3_15
REMARK    5  A    between atoms: O3_15  and  C11_16
REMARK    6  A    between atoms: C21_30  and  C22_31
ROOT
HETATM    1  C2  UNL     1       8.005  19.693   3.715  1.00  0.00     0.077 A
HETATM    2  C3  UNL     1       7.211  20.795   3.951  1.00  0.00     0.039 A
HETATM    3  C4  UNL     1       5.973  20.907   3.283  1.00  0.00     0.032 A
HETATM    4  C5  UNL     1       5.565  19.938   2.411  1.00  0.00     0.035 A
HETATM    5  C20 UNL     1       6.384  18.808   2.173  1.00  0.00     0.042 A
HETATM    6  C21 UNL     1       7.583  18.716   2.831  1.00  0.00     0.005 A
ENDROOT
BRANCH   4   7
HETATM    7  N1  UNL     1       4.337  20.051   1.721  1.00  0.00    -0.323 N
HETATM    8  C6  UNL     1       3.791  21.162   1.083  1.00  0.00     0.257 C
HETATM    9  O2  UNL     1       4.373  22.266   1.040  1.00  0.00    -0.267 OA
ATOM     10  H1  UNL     1       3.772  19.202   1.686  1.00  0.00     0.169 HD
BRANCH   8  11
HETATM   11  C7  UNL     1       2.469  21.051   0.425  1.00  0.00     0.047 A
HETATM   12  C8  UNL     1       1.983  22.016  -0.407  1.00  0.00     0.022 A
HETATM   13  C9  UNL     1       0.742  21.919  -1.033  1.00  0.00     0.057 A
HETATM   14  C10 UNL     1      -0.004  20.790  -0.781  1.00  0.00     0.142 A
HETATM   15  N2  UNL     1       0.490  19.823   0.058  1.00  0.00    -0.346 N
HETATM   16  C19 UNL     1       1.692  19.938   0.651  1.00  0.00     0.107 A
ATOM     17  H2  UNL     1      -0.072  18.990   0.236  1.00  0.00     0.167 HD
BRANCH  14  18
HETATM   18  O3  UNL     1      -1.250  20.589  -1.348  1.00  0.00    -0.330 OA
BRANCH  18  19
HETATM   19  C11 UNL     1      -1.521  20.380  -2.701  1.00  0.00     0.134 C
HETATM   20  C12 UNL     1      -3.045  20.368  -2.866  1.00  0.00     0.036 C
HETATM   21  C13 UNL     1      -3.458  20.053  -4.265  1.00  0.00     0.049 C
HETATM   22  C14 UNL     1      -2.838  18.752  -4.719  1.00  0.00     0.135 C
HETATM   23  C15 UNL     1      -3.174  18.544  -6.193  1.00  0.00     0.055 C
HETATM   24  F1  UNL     1      -3.254  17.698  -3.943  1.00  0.00    -0.240 F
HETATM   25  C16 UNL     1      -1.331  18.886  -4.622  1.00  0.00     0.137 C
HETATM   26  C17 UNL     1      -0.738  17.623  -5.211  1.00  0.00     0.055 C
HETATM   27  F2  UNL     1      -0.947  20.000  -5.335  1.00  0.00    -0.240 F
HETATM   28  C18 UNL     1      -0.970  19.037  -3.163  1.00  0.00     0.079 C
ENDBRANCH  18  19
ENDBRANCH  14  18
ENDBRANCH   8  11
ENDBRANCH   4   7
BRANCH   6  29
HETATM   29  C22 UNL     1       8.473  17.557   2.573  1.00  0.00     0.058 C
HETATM   30  C23 UNL     1       8.404  16.603   3.782  1.00  0.00     0.044 C
HETATM   31  C24 UNL     1       8.123  16.758   1.359  1.00  0.00     0.037 C
HETATM   32  C25 UNL     1       8.961  17.196   0.148  1.00  0.00     0.024 C
HETATM   33  C26 UNL     1      10.357  16.695   0.446  1.00  0.00     0.060 C
HETATM   34  C27 UNL     1      10.575  15.217   0.252  1.00  0.00     0.187 C
HETATM   35  C28 UNL     1      11.340  16.832  -0.687  1.00  0.00     0.187 C
HETATM   36  C29 UNL     1      10.777  17.239   1.747  1.00  0.00     0.084 C
HETATM   37  O4  UNL     1      11.797  15.542  -0.358  1.00  0.00    -0.389 OA
HETATM   38  N3  UNL     1      11.984  17.044   2.165  1.00  0.00    -0.388 N
HETATM   39  N4  UNL     1       9.868  17.984   2.540  1.00  0.00    -0.366 N
ATOM     40  H32 UNL     1      12.638  16.509   1.595  1.00  0.00     0.157 HD
ATOM     41  H31 UNL     1      12.276  17.422   3.067  1.00  0.00     0.157 HD
ATOM     42  H4  UNL     1      10.179  18.796   3.073  1.00  0.00     0.162 HD
ENDBRANCH   6  29
BRANCH   1  43
HETATM   43  O1  UNL     1       9.230  19.524   4.342  1.00  0.00    -0.355 OA
HETATM   44  C1  UNL     1       9.387  20.044   5.648  1.00  0.00     0.210 C
ENDBRANCH   1  43
TORSDOF 6
ENDMDL