MODEL 3
REMARK VINA RESULT: -6.011275284      5.944     10.224
REMARK  7 active torsions:
REMARK  status: ('A' for Active; 'I' for Inactive)
REMARK    1  A    between atoms: N1_2  and  C2_3
REMARK    2  A    between atoms: N1_2  and  C10_12
REMARK    3  A    between atoms: C2_3  and  C3_4
REMARK    4  A    between atoms: C3_4  and  N2_5
REMARK    5  A    between atoms: C13_15  and  C14_16
REMARK    6  A    between atoms: N4_22  and  C17_24
REMARK    7  A    between atoms: C20_27  and  O1_28
ROOT
HETATM    1  C14 UNL     1       1.424  22.098   3.795  1.00  0.00     0.062 A
HETATM    2  N3  UNL     1       0.710  21.505   4.776  1.00  0.00    -0.324 N
ATOM      3  H3  UNL     1       0.808  20.553   5.128  1.00  0.00     0.174 HD
HETATM    4  S1  UNL     1      -0.358  22.665   5.281  1.00  0.00    -0.010 SA
HETATM    5  C15 UNL     1       0.089  23.942   4.238  1.00  0.00     0.079 A
HETATM    6  C16 UNL     1      -0.364  25.248   4.040  1.00  0.00     0.121 A
HETATM    7  N4  UNL     1      -1.283  25.731   4.724  1.00  0.00    -0.370 N
ATOM      8  H4  UNL     1      -1.461  26.689   4.424  1.00  0.00     0.161 HD
HETATM    9  N5  UNL     1       0.200  26.045   3.075  1.00  0.00    -0.350 N
ATOM     10  H5  UNL     1      -0.113  27.002   2.915  1.00  0.00     0.166 HD
HETATM   11  C23 UNL     1       1.169  25.501   2.368  1.00  0.00     0.114 A
HETATM   12  C24 UNL     1       1.663  24.215   2.515  1.00  0.00     0.063 A
HETATM   13 CL1  UNL     1       2.902  23.750   1.397  1.00  0.00    -0.082 Cl
HETATM   14  C25 UNL     1       1.107  23.378   3.499  1.00  0.00     0.037 A
ENDROOT
BRANCH   1  15
HETATM   15  C13 UNL     1       2.460  21.216   3.178  1.00  0.00    -0.006 A
HETATM   16  C12 UNL     1       3.701  21.160   3.815  1.00  0.00     0.016 A
HETATM   17  C11 UNL     1       4.723  20.429   3.253  1.00  0.00     0.032 A
HETATM   18  C10 UNL     1       4.564  19.738   2.064  1.00  0.00     0.051 A
HETATM   19  C27 UNL     1       3.336  19.804   1.453  1.00  0.00     0.061 A
HETATM   20  C26 UNL     1       2.305  20.541   2.017  1.00  0.00     0.040 A
HETATM   21 CL2  UNL     1       3.066  18.944  -0.046  1.00  0.00    -0.082 Cl
BRANCH  18  22
HETATM   22  N1  UNL     1       5.688  19.027   1.576  1.00  0.00    -0.381 N
HETATM   23  C1  UNL     1       5.521  17.620   1.293  1.00  0.00     0.150 C
BRANCH  22  24
HETATM   24  C2  UNL     1       6.927  19.754   1.415  1.00  0.00     0.153 C
BRANCH  24  25
HETATM   25  C3  UNL     1       8.050  19.287   2.298  1.00  0.00     0.043 C
HETATM   26  C6  UNL     1       8.465  20.531   3.107  1.00  0.00     0.032 C
HETATM   27  C7  UNL     1       9.004  20.042   4.409  1.00  0.00     0.002 C
HETATM   28  C8  UNL     1       8.164  18.843   4.695  1.00  0.00     0.002 C
HETATM   29  C9  UNL     1       7.530  18.406   3.399  1.00  0.00     0.032 C
BRANCH  25  30
HETATM   30  N2  UNL     1       9.107  18.762   1.548  1.00  0.00    -0.410 N
HETATM   31  C4  UNL     1       9.215  17.341   1.552  1.00  0.00     0.143 C
HETATM   32  C5  UNL     1       9.336  19.282   0.252  1.00  0.00     0.143 C
ENDBRANCH  25  30
ENDBRANCH  24  25
ENDBRANCH  22  24
ENDBRANCH  18  22
ENDBRANCH   1  15
BRANCH   7  33
HETATM   33  C17 UNL     1      -2.146  25.403   5.754  1.00  0.00     0.083 C
HETATM   34  C18 UNL     1      -1.712  25.988   7.098  1.00  0.00     0.028 C
HETATM   35  C19 UNL     1      -1.893  27.466   7.162  1.00  0.00     0.034 C
HETATM   36  C20 UNL     1      -2.237  28.122   5.867  1.00  0.00     0.118 C
HETATM   37  C21 UNL     1      -3.294  27.434   5.067  1.00  0.00     0.034 C
HETATM   38  C22 UNL     1      -3.537  26.005   5.491  1.00  0.00     0.028 C
BRANCH  36  39
HETATM   39  O1  UNL     1      -2.733  29.409   6.178  1.00  0.00    -0.396 OA
ATOM     40  H1  UNL     1      -2.417  29.997   5.501  1.00  0.00     0.210 HD
ENDBRANCH  36  39
ENDBRANCH   7  33
TORSDOF 7
ENDMDL