MODEL 2
REMARK VINA RESULT: -7.497327137      1.600      2.098
REMARK  7 active torsions:
REMARK  status: ('A' for Active; 'I' for Inactive)
REMARK    1  A    between atoms: C2_2  and  C3_3
REMARK    2  A    between atoms: C2_2  and  C17_28
REMARK       I    between atoms: C3_3  and  N1_5
REMARK    3  A    between atoms: N1_5  and  C4_7
REMARK    4  A    between atoms: C7_10  and  N2_11
REMARK    5  A    between atoms: C10_16  and  S1_17
REMARK    6  A    between atoms: C20_31  and  N5_32
REMARK    7  A    between atoms: C24_36  and  N6_37
ROOT
HETATM    1  C3  UNL     1       3.986  21.241   1.536  1.00  0.00     0.248 C
HETATM    2  O1  UNL     1       3.657  20.445   0.598  1.00  0.00    -0.268 OA
HETATM    3  N1  UNL     1       5.160  21.183   2.257  1.00  0.00    -0.336 N
ATOM      4  H1  UNL     1       5.243  21.866   3.009  1.00  0.00     0.164 HD
ENDROOT
BRANCH   3   5
HETATM    5  C4  UNL     1       6.278  20.305   2.103  1.00  0.00     0.182 C
HETATM    6  C5  UNL     1       6.061  18.968   2.802  1.00  0.00     0.049 C
HETATM    7  C6  UNL     1       6.328  19.105   4.285  1.00  0.00     0.034 C
HETATM    8  C7  UNL     1       7.848  19.269   4.386  1.00  0.00     0.144 C
HETATM    9  C16 UNL     1       8.383  20.133   3.306  1.00  0.00     0.290 C
HETATM   10  F1  UNL     1       9.257  21.054   3.943  1.00  0.00    -0.225 F
HETATM   11  N4  UNL     1       7.485  20.898   2.513  1.00  0.00    -0.371 N
ATOM     12  H4  UNL     1       7.712  21.856   2.247  1.00  0.00     0.158 HD
BRANCH   8  13
HETATM   13  N2  UNL     1       8.399  17.918   4.300  1.00  0.00    -0.332 N
HETATM   14  C8  UNL     1       9.124  17.339   3.345  1.00  0.00     0.184 A
HETATM   15  N3  UNL     1       9.382  16.034   3.665  1.00  0.00    -0.349 N
HETATM   16  C9  UNL     1       8.813  15.770   4.843  1.00  0.00     0.077 A
ATOM     17  H3  UNL     1       9.917  15.375   3.099  1.00  0.00     0.166 HD
HETATM   18  C10 UNL     1       8.739  14.607   5.615  1.00  0.00     0.030 A
HETATM   19  C15 UNL     1       8.201  16.945   5.243  1.00  0.00     0.065 A
HETATM   20  C12 UNL     1       8.038  14.683   6.782  1.00  0.00     0.044 A
HETATM   21  C13 UNL     1       7.419  15.818   7.223  1.00  0.00     0.037 A
HETATM   22 CL1  UNL     1       6.505  15.926   8.702  1.00  0.00    -0.084 Cl
HETATM   23  C14 UNL     1       7.506  16.972   6.431  1.00  0.00     0.056 A
BRANCH  18  24
HETATM   24  S1  UNL     1       9.527  13.127   5.026  1.00  0.00    -0.132 SA
HETATM   25  C11 UNL     1      11.338  13.288   5.103  1.00  0.00     0.095 C
ENDBRANCH  18  24
ENDBRANCH   8  13
ENDBRANCH   3   5
BRANCH   1  26
HETATM   26  C2  UNL     1       2.949  22.274   1.795  1.00  0.00     0.004 C
HETATM   27  C1  UNL     1       2.822  23.269   0.951  1.00  0.00     0.025 C
BRANCH  26  28
HETATM   28  C17 UNL     1       2.154  22.202   3.019  1.00  0.00     0.023 C
HETATM   29  C18 UNL     1       1.415  20.924   3.227  1.00  0.00     0.011 C
HETATM   30  C19 UNL     1       0.196  21.019   4.074  1.00  0.00     0.026 C
HETATM   31  C20 UNL     1      -0.141  22.278   4.748  1.00  0.00     0.083 C
HETATM   32  C26 UNL     1       0.612  23.505   4.342  1.00  0.00     0.026 C
HETATM   33  C27 UNL     1       1.087  23.333   2.924  1.00  0.00     0.011 C
BRANCH  31  34
HETATM   34  N5  UNL     1      -0.187  22.108   6.171  1.00  0.00    -0.387 N
HETATM   35  C21 UNL     1       0.815  21.372   6.800  1.00  0.00     0.058 C
HETATM   36  C22 UNL     1       0.445  21.083   8.233  1.00  0.00     0.046 C
HETATM   37  C23 UNL     1      -0.130  22.304   8.874  1.00  0.00     0.039 C
HETATM   38  C24 UNL     1      -1.386  22.795   8.182  1.00  0.00     0.201 C
HETATM   39  C25 UNL     1      -1.457  22.247   6.769  1.00  0.00     0.155 C
BRANCH  38  40
HETATM   40  N6  UNL     1      -1.469  24.237   8.119  1.00  0.00    -0.073 N
ATOM     41  H63 UNL     1      -0.576  24.641   7.835  1.00  0.00     0.274 HD
ATOM     42  H62 UNL     1      -2.044  24.535   7.332  1.00  0.00     0.274 HD
ATOM     43  H61 UNL     1      -1.797  24.655   8.989  1.00  0.00     0.274 HD
ENDBRANCH  38  40
ENDBRANCH  31  34
ENDBRANCH  26  28
ENDBRANCH   1  26
TORSDOF 7
ENDMDL