MODEL 5
REMARK VINA RESULT: -6.542348355      4.704      8.588
REMARK  8 active torsions:
REMARK  status: ('A' for Active; 'I' for Inactive)
REMARK    1  A    between atoms: O1_2  and  C2_3
REMARK    2  A    between atoms: C6_11  and  N3_12
REMARK    3  A    between atoms: N3_12  and  C7_14
REMARK    4  A    between atoms: C9_16  and  N4_17
REMARK    5  A    between atoms: C14_27  and  O2_28
REMARK    6  A    between atoms: O2_28  and  C15_29
REMARK    7  A    between atoms: C15_29  and  C16_30
REMARK    8  A    between atoms: C16_30  and  C17_31
ROOT
HETATM    1  C2  UNL     1       3.316  17.938   0.645  1.00  0.00     0.103 A
HETATM    2  C3  UNL     1       2.484  18.348  -0.342  1.00  0.00     0.070 A
HETATM    3  C4  UNL     1       2.176  19.680  -0.477  1.00  0.00     0.050 A
HETATM    4  N1  UNL     1       1.355  20.103  -1.444  1.00  0.00    -0.351 N
ATOM      5  H1  UNL     1       0.945  19.436  -2.099  1.00  0.00     0.166 HD
HETATM    6  C5  UNL     1       1.070  21.421  -1.549  1.00  0.00     0.182 A
HETATM    7  N2  UNL     1       1.618  22.289  -0.675  1.00  0.00    -0.338 N
ATOM      8  H2  UNL     1       1.395  23.281  -0.761  1.00  0.00     0.168 HD
HETATM    9  C6  UNL     1       2.454  21.890   0.316  1.00  0.00     0.120 A
HETATM   10  C12 UNL     1       2.744  20.566   0.426  1.00  0.00     0.038 A
HETATM   11  C13 UNL     1       3.602  20.149   1.445  1.00  0.00     0.057 A
HETATM   12  C14 UNL     1       3.903  18.823   1.572  1.00  0.00     0.103 A
ENDROOT
BRANCH   9  13
HETATM   13  N3  UNL     1       2.977  22.728   1.145  1.00  0.00    -0.328 N
ATOM     14  H3  UNL     1       3.983  22.894   1.172  1.00  0.00     0.169 HD
BRANCH  13  15
HETATM   15  C7  UNL     1       2.080  23.414   2.025  1.00  0.00     0.108 A
HETATM   16  C8  UNL     1       1.414  22.731   3.022  1.00  0.00     0.080 A
HETATM   17  C9  UNL     1       0.542  23.362   3.893  1.00  0.00     0.065 A
HETATM   18  C10 UNL     1       0.345  24.727   3.742  1.00  0.00     0.053 A
HETATM   19 BR1  UNL     1      -0.842  25.666   4.909  1.00  0.00    -0.047 Br
HETATM   20  C11 UNL     1       1.015  25.390   2.745  1.00  0.00     0.111 A
HETATM   21  N5  UNL     1       1.839  24.732   1.939  1.00  0.00    -0.351 N
ATOM     22  H5  UNL     1       2.318  25.260   1.209  1.00  0.00     0.166 HD
BRANCH  17  23
HETATM   23  N4  UNL     1      -0.117  22.622   4.899  1.00  0.00    -0.297 N
HETATM   24 CL1  UNL     1       0.772  22.177   6.323  1.00  0.00     0.011 Cl
ATOM     25  H4  UNL     1      -1.095  22.353   4.791  1.00  0.00     0.180 HD
ENDBRANCH  17  23
ENDBRANCH  13  15
ENDBRANCH   9  13
BRANCH  12  26
HETATM   26  O2  UNL     1       4.723  18.320   2.535  1.00  0.00    -0.348 OA
BRANCH  26  27
HETATM   27  C15 UNL     1       4.343  17.872   3.783  1.00  0.00     0.178 C
BRANCH  27  28
HETATM   28  C16 UNL     1       5.114  18.524   4.861  1.00  0.00     0.062 C
BRANCH  28  29
HETATM   29  C17 UNL     1       6.478  19.021   4.463  1.00  0.00     0.224 C
HETATM   30  C18 UNL     1       6.558  20.543   4.458  1.00  0.00     0.036 C
HETATM   31  C19 UNL     1       7.226  21.065   3.229  1.00  0.00     0.002 C
HETATM   32  C20 UNL     1       8.655  20.696   3.053  1.00  0.00     0.002 C
HETATM   33  C21 UNL     1       9.063  19.376   3.617  1.00  0.00     0.030 C
HETATM   34  C22 UNL     1       8.778  19.220   5.082  1.00  0.00     0.272 C
HETATM   35  N6  UNL     1       7.567  18.434   5.195  1.00  0.00     0.088 N
HETATM   36  C23 UNL     1       7.817  17.064   4.913  1.00  0.00     0.310 C
ENDBRANCH  28  29
ENDBRANCH  27  28
ENDBRANCH  26  27
ENDBRANCH  12  26
BRANCH   1  37
HETATM   37  O1  UNL     1       3.661  16.584   0.821  1.00  0.00    -0.353 OA
HETATM   38  C1  UNL     1       4.421  15.963  -0.190  1.00  0.00     0.210 C
ENDBRANCH   1  37
TORSDOF 8
ENDMDL