MODEL 3
REMARK VINA RESULT: -7.916243569      7.852     11.924
REMARK  6 active torsions:
REMARK  status: ('A' for Active; 'I' for Inactive)
REMARK    1  A    between atoms: C2_2  and  C3_3
REMARK    2  A    between atoms: C5_9  and  C6_10
REMARK       I    between atoms: C6_10  and  N2_12
REMARK    3  A    between atoms: N2_12  and  C7_14
REMARK    4  A    between atoms: C8_16  and  C9_17
REMARK    5  A    between atoms: C15_23  and  C17_25
REMARK       I    between atoms: C17_25  and  N3_27
REMARK    6  A    between atoms: C22_32  and  C23_33
ROOT
HETATM    1  C7  UNL     1       8.234  20.597   0.970  1.00  0.00     0.084 A
HETATM    2  S1  UNL     1       9.179  20.442   2.371  1.00  0.00    -0.075 SA
HETATM    3  C8  UNL     1       7.934  20.197   3.503  1.00  0.00    -0.005 A
HETATM    4  C12 UNL     1       6.802  20.245   2.737  1.00  0.00    -0.035 A
HETATM    5  C13 UNL     1       6.940  20.452   1.413  1.00  0.00    -0.016 A
HETATM    6  C14 UNL     1       5.757  20.526   0.470  1.00  0.00     0.061 C
HETATM    7  C15 UNL     1       4.430  20.302   1.104  1.00  0.00     0.042 C
HETATM    8  C16 UNL     1       3.531  19.633   0.083  1.00  0.00     0.026 C
HETATM    9  C24 UNL     1       4.660  19.290   2.213  1.00  0.00     0.024 C
HETATM   10  C25 UNL     1       5.394  20.074   3.285  1.00  0.00     0.041 C
ENDROOT
BRANCH   1  11
HETATM   11  N2  UNL     1       8.743  20.827  -0.367  1.00  0.00    -0.316 N
HETATM   12  C6  UNL     1       9.357  19.791  -1.084  1.00  0.00     0.263 C
HETATM   13  O2  UNL     1       9.417  18.665  -0.448  1.00  0.00    -0.267 OA
ATOM     14  H2  UNL     1       8.655  21.751  -0.790  1.00  0.00     0.169 HD
BRANCH  12  15
HETATM   15  C5  UNL     1       9.925  19.779  -2.400  1.00  0.00     0.121 A
HETATM   16  C3  UNL     1       9.743  18.873  -3.417  1.00  0.00     0.053 A
HETATM   17  N1  UNL     1      10.511  19.366  -4.451  1.00  0.00    -0.261 N
HETATM   18  O1  UNL     1      11.092  20.450  -4.096  1.00  0.00    -0.206 OA
ATOM     19  H1  UNL     1      10.603  18.928  -5.368  1.00  0.00     0.194 HD
HETATM   20  C4  UNL     1      10.802  20.782  -2.874  1.00  0.00     0.267 A
HETATM   21  F1  UNL     1      11.261  21.878  -2.210  1.00  0.00    -0.175 F
BRANCH  16  22
HETATM   22  C2  UNL     1       8.956  17.621  -3.510  1.00  0.00     0.056 C
HETATM   23  C1  UNL     1       8.636  17.315  -4.972  1.00  0.00     0.011 C
ENDBRANCH  16  22
ENDBRANCH  12  15
ENDBRANCH   1  11
BRANCH   3  24
HETATM   24  C9  UNL     1       8.039  19.979   4.998  1.00  0.00     0.018 C
HETATM   25  C10 UNL     1       7.985  18.477   5.189  1.00  0.00     0.015 C
HETATM   26  C11 UNL     1       9.368  20.453   5.525  1.00  0.00     0.015 C
ENDBRANCH   3  24
BRANCH   7  27
HETATM   27  C17 UNL     1       3.832  21.560   1.625  1.00  0.00     0.229 C
HETATM   28  O3  UNL     1       4.511  22.611   1.326  1.00  0.00    -0.272 OA
HETATM   29  N3  UNL     1       2.654  21.692   2.376  1.00  0.00    -0.337 N
HETATM   30  C18 UNL     1       1.764  20.652   2.808  1.00  0.00     0.127 C
HETATM   31  C22 UNL     1       2.252  23.041   2.796  1.00  0.00     0.188 C
HETATM   32  C19 UNL     1       0.348  21.044   2.389  1.00  0.00     0.020 C
HETATM   33  C20 UNL     1      -0.076  22.218   3.199  1.00  0.00     0.004 C
HETATM   34  C21 UNL     1       1.113  22.930   3.812  1.00  0.00     0.036 C
BRANCH  31  35
HETATM   35  C23 UNL     1       1.901  23.932   1.707  1.00  0.00     0.196 C
HETATM   36  O4  UNL     1       1.895  25.174   1.841  1.00  0.00    -0.646 OA
HETATM   37  O5  UNL     1       1.558  23.407   0.474  1.00  0.00    -0.646 OA
ENDBRANCH  31  35
ENDBRANCH   7  27
TORSDOF 6
ENDMDL