MODEL 3
REMARK VINA RESULT: -7.344414453      4.040      5.400
REMARK  7 active torsions:
REMARK  status: ('A' for Active; 'I' for Inactive)
REMARK    1  A    between atoms: C2_2  and  C3_3
REMARK    2  A    between atoms: C2_2  and  C8_9
REMARK    3  A    between atoms: C3_3  and  C4_4
REMARK    4  A    between atoms: C4_4  and  C5_5
REMARK    5  A    between atoms: C5_5  and  N1_6
REMARK    6  A    between atoms: C21_22  and  C22_23
REMARK    7  A    between atoms: C28_36  and  O3_37
ROOT
HETATM    1  C8  UNL     1      -1.075  21.649   5.535  1.00  0.00    -0.006 C
HETATM    2  C9  UNL     1      -0.158  20.753   6.335  1.00  0.00     0.006 C
HETATM    3  C10 UNL     1       1.155  20.723   5.637  1.00  0.00     0.006 C
HETATM    4  C11 UNL     1       1.005  21.723   4.479  1.00  0.00    -0.005 C
HETATM    5  C12 UNL     1      -0.480  21.695   4.147  1.00  0.00    -0.006 C
HETATM    6  C13 UNL     1      -0.836  20.509   3.322  1.00  0.00     0.006 C
HETATM    7  C14 UNL     1      -0.096  20.504   2.008  1.00  0.00     0.013 C
HETATM    8  C15 UNL     1       1.133  21.337   1.979  1.00  0.00    -0.008 C
HETATM    9  C16 UNL     1       0.768  22.739   1.598  1.00  0.00     0.019 C
HETATM   10  C17 UNL     1       1.782  21.218   3.345  1.00  0.00     0.002 C
HETATM   11  C18 UNL     1       3.152  21.814   3.163  1.00  0.00     0.021 C
HETATM   12  C19 UNL     1       3.561  21.191   1.841  1.00  0.00     0.020 C
HETATM   13  C20 UNL     1       4.330  22.247   1.073  1.00  0.00     0.021 C
HETATM   14  C21 UNL     1       4.362  19.932   2.029  1.00  0.00     0.178 C
HETATM   15  O1  UNL     1       4.614  19.422   0.709  1.00  0.00    -0.310 OA
HETATM   16  C26 UNL     1       3.433  19.007   0.059  1.00  0.00     0.262 C
HETATM   17  O2  UNL     1       3.440  18.381  -1.024  1.00  0.00    -0.265 OA
HETATM   18  C27 UNL     1       2.172  19.380   0.779  1.00  0.00     0.150 C
HETATM   19  C28 UNL     1       2.263  20.822   1.124  1.00  0.00     0.084 C
ENDROOT
BRANCH  14  20
HETATM   20  C22 UNL     1       5.591  20.087   2.817  1.00  0.00     0.003 A
HETATM   21  C23 UNL     1       6.699  20.755   2.358  1.00  0.00     0.101 A
HETATM   22  N2  UNL     1       7.775  20.832   3.157  1.00  0.00    -0.342 N
HETATM   23  C24 UNL     1       7.850  20.298   4.386  1.00  0.00     0.178 A
ATOM     24  H2  UNL     1       8.593  21.330   2.806  1.00  0.00     0.167 HD
HETATM   25 CL1  UNL     1       9.307  20.437   5.385  1.00  0.00    -0.045 Cl
HETATM   26  N3  UNL     1       6.771  19.644   4.839  1.00  0.00    -0.342 N
HETATM   27  C25 UNL     1       5.669  19.538   4.080  1.00  0.00     0.101 A
ATOM     28  H3  UNL     1       6.787  19.223   5.768  1.00  0.00     0.167 HD
ENDBRANCH  14  20
BRANCH  19  29
HETATM   29  O3  UNL     1       2.240  21.537  -0.074  1.00  0.00    -0.388 OA
ATOM     30  H3  UNL     1       3.049  21.346  -0.534  1.00  0.00     0.210 HD
ENDBRANCH  19  29
BRANCH   1  31
HETATM   31  C2  UNL     1      -2.476  21.154   5.604  1.00  0.00    -0.014 C
HETATM   32  C1  UNL     1      -3.463  22.311   5.693  1.00  0.00     0.010 C
BRANCH  31  33
HETATM   33  C3  UNL     1      -2.561  20.305   6.878  1.00  0.00     0.006 C
BRANCH  33  34
HETATM   34  C4  UNL     1      -3.713  19.319   6.808  1.00  0.00     0.030 C
BRANCH  34  35
HETATM   35  C5  UNL     1      -4.233  19.224   8.241  1.00  0.00     0.271 C
BRANCH  35  36
HETATM   36  N1  UNL     1      -4.367  17.876   8.705  1.00  0.00     0.080 N
HETATM   37  C6  UNL     1      -3.592  16.921   7.959  1.00  0.00     0.309 C
HETATM   38  C7  UNL     1      -4.026  17.750  10.102  1.00  0.00     0.309 C
ENDBRANCH  35  36
ENDBRANCH  34  35
ENDBRANCH  33  34
ENDBRANCH  31  33
ENDBRANCH   1  31
TORSDOF 7
ENDMDL