MODEL 2
REMARK VINA RESULT: -7.775942357      3.463      9.101
REMARK  9 active torsions:
REMARK  status: ('A' for Active; 'I' for Inactive)
REMARK    1  A    between atoms: C3_5  and  C4_6
REMARK    2  A    between atoms: N2_16  and  C13_17
REMARK    3  A    between atoms: C14_20  and  N4_21
REMARK    4  A    between atoms: N4_21  and  C15_23
REMARK    5  A    between atoms: C15_23  and  N5_25
REMARK    6  A    between atoms: N5_25  and  C16_27
REMARK    7  A    between atoms: C16_27  and  C18_29
REMARK    8  A    between atoms: C18_29  and  C19_30
REMARK    9  A    between atoms: C19_30  and  C20_31
ROOT
HETATM    1  C13 UNL     1      -1.553  26.226   5.591  1.00  0.00     0.707 A
HETATM    2  N3  UNL     1      -1.862  24.948   5.828  1.00  0.00    -0.174 N
ATOM      3  H3  UNL     1      -2.561  24.752   6.543  1.00  0.00     0.186 HD
HETATM    4  C14 UNL     1      -1.316  23.909   5.190  1.00  0.00     0.126 A
HETATM    5  C23 UNL     1      -0.362  24.182   4.216  1.00  0.00     0.092 A
HETATM    6  C24 UNL     1      -0.056  25.508   3.986  1.00  0.00     0.123 A
HETATM    7 CL1  UNL     1       1.141  25.889   2.767  1.00  0.00    -0.064 Cl
HETATM    8  N6  UNL     1      -0.638  26.513   4.658  1.00  0.00    -0.179 N
ATOM      9  H6  UNL     1      -0.386  27.481   4.461  1.00  0.00     0.185 HD
ENDROOT
BRANCH   1  10
HETATM   10  N2  UNL     1      -2.223  27.245   6.357  1.00  0.00    -0.072 N
HETATM   11  C3  UNL     1      -2.787  28.342   5.824  1.00  0.00     0.127 A
HETATM   12  N1  UNL     1      -3.301  29.038   6.846  1.00  0.00    -0.333 N
HETATM   13  C2  UNL     1      -3.064  28.387   7.995  1.00  0.00     0.094 A
ATOM     14  H1  UNL     1      -3.797  29.926   6.764  1.00  0.00     0.168 HD
HETATM   15  C1  UNL     1      -3.456  28.793   9.386  1.00  0.00     0.090 C
HETATM   16  N7  UNL     1      -2.393  27.277   7.666  1.00  0.00    -0.267 N
ATOM     17  H7  UNL     1      -2.065  26.568   8.322  1.00  0.00     0.189 HD
BRANCH  11  18
HETATM   18  C4  UNL     1      -2.812  28.681   4.367  1.00  0.00     0.061 C
HETATM   19  C5  UNL     1      -2.469  30.138   4.213  1.00  0.00     0.038 C
HETATM   20  C6  UNL     1      -3.576  31.067   4.576  1.00  0.00     0.169 C
HETATM   21  O1  UNL     1      -4.833  30.526   4.539  1.00  0.00    -0.380 OA
HETATM   22  C7  UNL     1      -5.028  29.561   3.591  1.00  0.00     0.061 C
HETATM   23  C8  UNL     1      -4.899  30.182   2.225  1.00  0.00     0.038 C
HETATM   24  C11 UNL     1      -6.471  29.106   3.643  1.00  0.00     0.038 C
HETATM   25  C12 UNL     1      -4.159  28.345   3.767  1.00  0.00     0.050 C
HETATM   26  C9  UNL     1      -6.280  30.672   1.842  1.00  0.00     0.003 C
HETATM   27  C10 UNL     1      -7.207  30.232   2.963  1.00  0.00     0.003 C
ENDBRANCH  11  18
ENDBRANCH   1  10
BRANCH   4  28
HETATM   28  N4  UNL     1      -1.618  22.672   5.421  1.00  0.00    -0.319 N
ATOM     29  H4  UNL     1      -2.583  22.369   5.546  1.00  0.00     0.169 HD
BRANCH  28  30
HETATM   30  C15 UNL     1      -0.521  21.750   5.491  1.00  0.00     0.173 C
HETATM   31  S1  UNL     1       0.616  21.929   6.687  1.00  0.00    -0.041 SA
BRANCH  30  32
HETATM   32  N5  UNL     1      -0.344  20.688   4.599  1.00  0.00    -0.363 N
ATOM     33  H5  UNL     1       0.295  19.930   4.839  1.00  0.00     0.162 HD
BRANCH  32  34
HETATM   34  C16 UNL     1      -1.058  20.654   3.338  1.00  0.00     0.079 C
HETATM   35  C17 UNL     1      -2.222  19.743   3.337  1.00  0.00     0.032 C
BRANCH  34  36
HETATM   36  C18 UNL     1      -0.136  20.623   2.166  1.00  0.00     0.025 C
BRANCH  36  37
HETATM   37  C19 UNL     1       0.374  21.906   1.649  1.00  0.00     0.006 C
BRANCH  37  38
HETATM   38  C20 UNL     1       1.847  22.031   1.435  1.00  0.00    -0.023 C
HETATM   39  C21 UNL     1       2.255  23.203   0.583  1.00  0.00     0.009 C
HETATM   40  C22 UNL     1       2.442  22.246   2.852  1.00  0.00     0.009 C
ENDBRANCH  37  38
ENDBRANCH  36  37
ENDBRANCH  34  36
ENDBRANCH  32  34
ENDBRANCH  30  32
ENDBRANCH  28  30
ENDBRANCH   4  28
TORSDOF 9
ENDMDL