MODEL 2
REMARK VINA RESULT: -8.078802389      4.242      9.776
REMARK  7 active torsions:
REMARK  status: ('A' for Active; 'I' for Inactive)
REMARK    1  A    between atoms: C2_2  and  O1_3
REMARK    2  A    between atoms: O1_3  and  C3_4
REMARK       I    between atoms: C3_4  and  N1_6
REMARK    3  A    between atoms: N2_9  and  C6_10
REMARK    4  A    between atoms: C6_10  and  C9_13
REMARK    5  A    between atoms: C12_16  and  N3_17
REMARK    6  A    between atoms: C17_25  and  N5_26
REMARK       I    between atoms: N5_26  and  C18_28
REMARK       I    between atoms: C18_28  and  N6_30
REMARK    7  A    between atoms: N6_30  and  C19_32
ROOT
HETATM    1  C9  UNL     1       0.739  22.146   2.501  1.00  0.00     0.013 C
HETATM    2  C10 UNL     1       0.759  23.469   3.254  1.00  0.00     0.009 C
HETATM    3  C11 UNL     1      -0.150  23.334   4.458  1.00  0.00     0.026 C
HETATM    4  C12 UNL     1       0.219  22.187   5.333  1.00  0.00     0.091 C
HETATM    5  C24 UNL     1       1.302  21.298   4.804  1.00  0.00     0.026 C
HETATM    6  C25 UNL     1       1.265  21.015   3.351  1.00  0.00     0.009 C
ENDROOT
BRANCH   4   7
HETATM    7  N3  UNL     1      -0.982  21.443   5.669  1.00  0.00    -0.336 N
HETATM    8  C13 UNL     1      -2.160  21.425   5.049  1.00  0.00     0.184 A
HETATM    9  N4  UNL     1      -3.023  20.603   5.670  1.00  0.00    -0.350 N
HETATM   10  C14 UNL     1      -2.382  20.080   6.713  1.00  0.00     0.063 A
ATOM     11  H4  UNL     1      -3.987  20.416   5.393  1.00  0.00     0.166 HD
HETATM   12  C15 UNL     1      -2.728  19.187   7.707  1.00  0.00     0.076 A
HETATM   13  C23 UNL     1      -1.119  20.588   6.728  1.00  0.00     0.065 A
HETATM   14  C16 UNL     1      -1.844  18.815   8.682  1.00  0.00     0.145 A
HETATM   15  F1  UNL     1      -2.221  17.928   9.653  1.00  0.00    -0.204 F
HETATM   16  C17 UNL     1      -0.532  19.331   8.715  1.00  0.00     0.077 A
HETATM   17  C22 UNL     1      -0.219  20.213   7.716  1.00  0.00     0.064 A
BRANCH  16  18
HETATM   18  N5  UNL     1       0.340  18.902   9.743  1.00  0.00    -0.306 N
HETATM   19  C18 UNL     1       1.198  17.819   9.731  1.00  0.00     0.321 C
HETATM   20  O3  UNL     1       1.318  17.049   8.751  1.00  0.00    -0.247 OA
HETATM   21  N6  UNL     1       2.003  17.546  10.896  1.00  0.00    -0.339 N
ATOM     22  H6  UNL     1       1.926  18.155  11.710  1.00  0.00     0.164 HD
ATOM     23  H5  UNL     1       0.334  19.460  10.597  1.00  0.00     0.171 HD
BRANCH  21  24
HETATM   24  C19 UNL     1       2.917  16.426  10.933  1.00  0.00     0.078 C
HETATM   25  C20 UNL     1       2.255  15.255  11.659  1.00  0.00     0.032 C
HETATM   26  C21 UNL     1       4.189  16.740  11.665  1.00  0.00     0.032 C
ENDBRANCH  21  24
ENDBRANCH  16  18
ENDBRANCH   4   7
BRANCH   1  27
HETATM   27  C6  UNL     1       1.401  22.234   1.150  1.00  0.00     0.028 C
HETATM   28  C7  UNL     1       1.955  23.646   1.031  1.00  0.00     0.038 C
HETATM   29  C8  UNL     1       2.612  21.325   1.206  1.00  0.00     0.038 C
BRANCH  27  30
HETATM   30  N2  UNL     1       0.564  22.026   0.046  1.00  0.00    -0.381 N
HETATM   31  C5  UNL     1      -0.150  20.831  -0.125  1.00  0.00     0.079 C
HETATM   32  C4  UNL     1       0.209  20.046  -1.366  1.00  0.00     0.172 C
HETATM   33  N1  UNL     1       0.030  20.873  -2.528  1.00  0.00    -0.322 N
HETATM   34  C3  UNL     1      -0.227  20.304  -3.827  1.00  0.00     0.367 C
HETATM   35  C27 UNL     1       0.119  22.309  -2.345  1.00  0.00     0.148 C
HETATM   36  O2  UNL     1      -0.383  21.040  -4.829  1.00  0.00    -0.238 OA
HETATM   37  C26 UNL     1       1.102  22.517  -1.183  1.00  0.00     0.143 C
BRANCH  34  38
HETATM   38  O1  UNL     1      -0.307  18.935  -3.999  1.00  0.00    -0.275 OA
BRANCH  38  39
HETATM   39  C2  UNL     1      -0.061  18.292  -5.187  1.00  0.00     0.137 C
HETATM   40  C1  UNL     1       0.020  16.978  -5.235  1.00  0.00     0.038 C
ENDBRANCH  38  39
ENDBRANCH  34  38
ENDBRANCH  27  30
ENDBRANCH   1  27
TORSDOF 7
ENDMDL