MODEL 1
REMARK VINA RESULT: -7.211408944      0.000      0.000
REMARK  9 active torsions:
REMARK  status: ('A' for Active; 'I' for Inactive)
REMARK    1  A    between atoms: C3_3  and  C5_5
REMARK    2  A    between atoms: C5_5  and  O2_7
REMARK    3  A    between atoms: O2_7  and  C6_8
REMARK    4  A    between atoms: C6_8  and  C7_9
REMARK    5  A    between atoms: C17_20  and  C19_22
REMARK    6  A    between atoms: C19_22  and  O4_23
REMARK    7  A    between atoms: C19_22  and  C20_25
REMARK    8  A    between atoms: C21_26  and  C22_27
REMARK    9  A    between atoms: C22_27  and  O5_30
ROOT
HETATM    1  C7  UNL     1      -1.512  21.440   5.249  1.00  0.00    -0.042 C
HETATM    2  C8  UNL     1      -1.293  22.735   5.254  1.00  0.00    -0.013 C
HETATM    3  C9  UNL     1      -0.448  23.824   4.900  1.00  0.00     0.027 C
HETATM    4  C10 UNL     1      -1.210  25.154   5.298  1.00  0.00     0.018 C
HETATM    5  C11 UNL     1       0.203  24.212   3.676  1.00  0.00    -0.019 C
HETATM    6  C12 UNL     1       1.439  23.632   3.154  1.00  0.00    -0.007 C
HETATM    7  C13 UNL     1       1.978  22.440   3.314  1.00  0.00    -0.016 C
HETATM    8  C14 UNL     1       1.388  21.361   4.123  1.00  0.00     0.082 C
HETATM    9  C15 UNL     1       2.272  20.271   4.596  1.00  0.00     0.130 C
HETATM   10  C16 UNL     1       3.275  19.693   3.667  1.00  0.00     0.040 C
HETATM   11  O3  UNL     1       1.480  19.230   5.059  1.00  0.00    -0.371 OA
HETATM   12  C17 UNL     1       0.271  19.662   5.678  1.00  0.00     0.104 C
HETATM   13  C18 UNL     1      -0.257  18.247   6.065  1.00  0.00     0.050 C
HETATM   14  C25 UNL     1      -0.642  20.297   4.729  1.00  0.00     0.081 C
HETATM   15  C26 UNL     1      -1.654  19.345   4.082  1.00  0.00     0.195 C
HETATM   16  O6  UNL     1      -1.205  18.441   3.135  1.00  0.00    -0.362 OA
HETATM   17  C27 UNL     1      -0.120  18.650   2.315  1.00  0.00     0.134 C
HETATM   18  C28 UNL     1       0.516  19.747   2.517  1.00  0.00     0.042 C
HETATM   19  C29 UNL     1       0.166  20.747   3.532  1.00  0.00     0.149 C
HETATM   20  F1  UNL     1      -0.712  21.505   2.828  1.00  0.00    -0.236 F
ENDROOT
BRANCH  12  21
HETATM   21  C19 UNL     1       0.661  20.190   6.997  1.00  0.00     0.176 C
BRANCH  21  22
HETATM   22  O4  UNL     1      -0.113  21.060   7.683  1.00  0.00    -0.389 OA
ATOM     23  H4  UNL     1      -0.297  20.954   8.609  1.00  0.00     0.210 HD
ENDBRANCH  21  22
BRANCH  21  24
HETATM   24  C20 UNL     1       0.748  19.072   8.051  1.00  0.00     0.006 C
HETATM   25  C21 UNL     1       0.494  19.249   9.311  1.00  0.00     0.008 C
BRANCH  25  26
HETATM   26  C22 UNL     1       0.598  18.128  10.262  1.00  0.00     0.068 C
HETATM   27  C23 UNL     1      -0.090  18.415  11.575  1.00  0.00     0.050 C
HETATM   28  C24 UNL     1      -0.060  16.914   9.631  1.00  0.00     0.050 C
BRANCH  26  29
HETATM   29  O5  UNL     1       1.928  17.811  10.565  1.00  0.00    -0.387 OA
ATOM     30  H5  UNL     1       2.442  17.635   9.786  1.00  0.00     0.211 HD
ENDBRANCH  26  29
ENDBRANCH  25  26
ENDBRANCH  21  24
ENDBRANCH  12  21
BRANCH   1  31
HETATM   31  C6  UNL     1      -2.769  20.874   5.868  1.00  0.00     0.214 C
BRANCH  31  32
HETATM   32  O2  UNL     1      -2.744  20.459   7.181  1.00  0.00    -0.313 OA
BRANCH  32  33
HETATM   33  C5  UNL     1      -3.673  19.792   7.924  1.00  0.00     0.288 C
HETATM   34  O1  UNL     1      -4.695  20.454   8.307  1.00  0.00    -0.260 OA
BRANCH  33  35
HETATM   35  C3  UNL     1      -3.564  18.385   8.301  1.00  0.00     0.009 C
HETATM   36  C2  UNL     1      -3.364  17.465   7.387  1.00  0.00    -0.018 C
HETATM   37  C1  UNL     1      -3.256  16.044   7.780  1.00  0.00     0.036 C
HETATM   38  C4  UNL     1      -3.680  17.977   9.722  1.00  0.00     0.054 C
ENDBRANCH  33  35
ENDBRANCH  32  33
ENDBRANCH  31  32
ENDBRANCH   1  31
TORSDOF 9
ENDMDL