MODEL 2
REMARK VINA RESULT: -7.377546702      2.237      2.939
REMARK  7 active torsions:
REMARK  status: ('A' for Active; 'I' for Inactive)
REMARK    1  A    between atoms: O1_2  and  C2_3
REMARK    2  A    between atoms: C5_6  and  O2_7
REMARK    3  A    between atoms: O2_7  and  C6_8
REMARK    4  A    between atoms: C6_8  and  C7_9
REMARK    5  A    between atoms: C7_9  and  N1_10
REMARK    6  A    between atoms: C10_13  and  N2_14
REMARK    7  A    between atoms: C15_20  and  N3_21
ROOT
HETATM    1  N1  UNL     1       4.595  20.358   2.850  1.00  0.00     0.095 N
HETATM    2  C8  UNL     1       4.433  21.124   1.679  1.00  0.00     0.275 C
HETATM    3  C9  UNL     1       5.564  21.324   0.774  1.00  0.00     0.056 C
HETATM    4  C10 UNL     1       6.764  20.461   0.916  1.00  0.00     0.100 C
HETATM    5  C18 UNL     1       6.695  19.419   2.002  1.00  0.00     0.042 C
HETATM    6  C19 UNL     1       8.120  19.165   2.519  1.00  0.00     0.009 C
HETATM    7  C20 UNL     1       8.114  18.882   4.008  1.00  0.00     0.001 C
HETATM    8  C21 UNL     1       7.729  20.135   4.772  1.00  0.00     0.002 C
HETATM    9  C22 UNL     1       6.684  20.932   4.016  1.00  0.00     0.036 C
HETATM   10  C23 UNL     1       5.900  19.913   3.174  1.00  0.00     0.229 C
ENDROOT
BRANCH   4  11
HETATM   11  N2  UNL     1       7.259  19.900  -0.331  1.00  0.00    -0.321 N
HETATM   12  C11 UNL     1       6.651  18.995  -1.086  1.00  0.00     0.090 A
HETATM   13 BR1  UNL     1       4.960  18.182  -0.739  1.00  0.00    -0.030 Br
HETATM   14  C12 UNL     1       7.410  18.681  -2.210  1.00  0.00    -0.010 A
HETATM   15  C13 UNL     1       7.030  17.709  -3.265  1.00  0.00     0.052 C
HETATM   16  C14 UNL     1       8.548  19.453  -2.115  1.00  0.00     0.060 A
HETATM   17  C15 UNL     1       9.652  19.553  -2.950  1.00  0.00     0.114 A
HETATM   18  C17 UNL     1       8.419  20.175  -0.968  1.00  0.00     0.124 A
HETATM   19  N4  UNL     1      10.630  20.418  -2.577  1.00  0.00    -0.338 N
HETATM   20  C16 UNL     1      10.490  21.115  -1.456  1.00  0.00     0.183 A
ATOM     21  H4  UNL     1      11.464  20.533  -3.153  1.00  0.00     0.168 HD
HETATM   22  N5  UNL     1       9.421  21.023  -0.640  1.00  0.00    -0.338 N
ATOM     23  H5  UNL     1       9.367  21.585   0.210  1.00  0.00     0.168 HD
BRANCH  17  24
HETATM   24  N3  UNL     1       9.806  18.901  -4.020  1.00  0.00    -0.385 N
ATOM     25  H32 UNL     1      10.032  17.909  -3.953  1.00  0.00     0.157 HD
ATOM     26  H31 UNL     1       9.720  19.293  -4.957  1.00  0.00     0.157 HD
ENDBRANCH  17  24
ENDBRANCH   4  11
BRANCH   1  27
HETATM   27  C7  UNL     1       3.637  19.281   3.007  1.00  0.00     0.299 C
BRANCH  27  28
HETATM   28  C6  UNL     1       2.241  19.824   3.267  1.00  0.00     0.206 C
BRANCH  28  29
HETATM   29  O2  UNL     1       2.215  20.670   4.399  1.00  0.00    -0.349 OA
BRANCH  29  30
HETATM   30  C5  UNL     1       1.439  21.816   4.322  1.00  0.00     0.069 A
HETATM   31  C4  UNL     1       1.338  22.608   3.199  1.00  0.00     0.039 A
HETATM   32  C3  UNL     1       0.545  23.748   3.172  1.00  0.00     0.039 A
HETATM   33  C2  UNL     1      -0.169  24.122   4.279  1.00  0.00     0.068 A
HETATM   34  C25 UNL     1      -0.081  23.334   5.432  1.00  0.00     0.039 A
HETATM   35  C24 UNL     1       0.716  22.205   5.432  1.00  0.00     0.039 A
BRANCH  33  36
HETATM   36  O1  UNL     1      -0.974  25.225   4.350  1.00  0.00    -0.356 OA
HETATM   37  C1  UNL     1      -1.636  25.537   5.556  1.00  0.00     0.210 C
ENDBRANCH  33  36
ENDBRANCH  29  30
ENDBRANCH  28  29
ENDBRANCH  27  28
ENDBRANCH   1  27
TORSDOF 7
ENDMDL