MODEL 4
REMARK VINA RESULT: -6.204855799      1.838      5.684
REMARK  10 active torsions:
REMARK  status: ('A' for Active; 'I' for Inactive)
REMARK    1  A    between atoms: O1_2  and  C2_3
REMARK    2  A    between atoms: C5_7  and  O3_8
REMARK    3  A    between atoms: O3_8  and  C6_9
REMARK    4  A    between atoms: C8_11  and  C25_32
REMARK    5  A    between atoms: C11_14  and  O4_15
REMARK    6  A    between atoms: C11_14  and  C22_29
REMARK    7  A    between atoms: O4_15  and  C12_16
REMARK    8  A    between atoms: C12_16  and  C14_18
REMARK    9  A    between atoms: C26_34  and  C27_35
REMARK   10  A    between atoms: C27_35  and  O6_36
ROOT
HETATM    1  C6  UNL     1      -1.976  19.939   1.195  1.00  0.00     0.162 C
HETATM    2  C7  UNL     1      -3.355  19.817   0.526  1.00  0.00     0.040 C
HETATM    3  C8  UNL     1      -3.214  18.739  -0.539  1.00  0.00    -0.003 C
HETATM    4  C9  UNL     1      -2.254  17.636  -0.137  1.00  0.00     0.008 C
HETATM    5  C10 UNL     1      -0.867  18.146   0.037  1.00  0.00     0.042 C
HETATM    6  C11 UNL     1      -0.932  19.691   0.138  1.00  0.00     0.095 C
ENDROOT
BRANCH   6   7
HETATM    7  O4  UNL     1       0.308  20.071   0.488  1.00  0.00    -0.367 OA
BRANCH   7   8
HETATM    8  C12 UNL     1       0.611  20.650   1.682  1.00  0.00     0.154 C
HETATM    9  C13 UNL     1       1.791  19.791   2.297  1.00  0.00     0.045 C
BRANCH   8  10
HETATM   10  C14 UNL     1       1.262  21.954   1.432  1.00  0.00    -0.002 A
HETATM   11  C15 UNL     1       2.142  22.222   0.368  1.00  0.00     0.099 A
HETATM   12  N1  UNL     1       2.512  23.514   0.379  1.00  0.00    -0.365 N
HETATM   13  C16 UNL     1       1.922  24.137   1.409  1.00  0.00     0.043 A
ATOM     14  H1  UNL     1       3.144  23.952  -0.291  1.00  0.00     0.165 HD
HETATM   15  C17 UNL     1       1.991  25.434   1.843  1.00  0.00     0.032 A
HETATM   16  C21 UNL     1       1.152  23.188   2.062  1.00  0.00     0.002 A
HETATM   17  C18 UNL     1       1.278  25.819   2.967  1.00  0.00     0.026 A
HETATM   18  C19 UNL     1       0.507  24.867   3.625  1.00  0.00     0.035 A
HETATM   19 CL1  UNL     1      -0.430  25.283   5.067  1.00  0.00    -0.084 Cl
HETATM   20  C20 UNL     1       0.453  23.568   3.168  1.00  0.00     0.038 A
ENDBRANCH   8  10
ENDBRANCH   7   8
ENDBRANCH   6   7
BRANCH   6  21
HETATM   21  C22 UNL     1      -1.365  20.143  -1.233  1.00  0.00     0.053 A
HETATM   22  C23 UNL     1      -1.020  21.588  -1.405  1.00  0.00    -0.022 A
HETATM   23  C24 UNL     1      -0.048  21.428  -2.329  1.00  0.00    -0.024 A
HETATM   24  C25 UNL     1      -0.296  19.994  -2.251  1.00  0.00     0.022 A
ENDBRANCH   6  21
BRANCH   1  25
HETATM   25  O3  UNL     1      -1.882  18.904   2.127  1.00  0.00    -0.331 OA
BRANCH  25  26
HETATM   26  C5  UNL     1      -2.497  19.107   3.326  1.00  0.00     0.414 C
HETATM   27  O2  UNL     1      -1.968  18.123   4.197  1.00  0.00    -0.331 OA
HETATM   28  C3  UNL     1      -0.876  18.692   4.823  1.00  0.00     0.154 C
HETATM   29  C2  UNL     1      -1.454  19.625   5.901  1.00  0.00     0.180 C
HETATM   30  C4  UNL     1       0.057  17.687   5.423  1.00  0.00     0.042 C
HETATM   31  C26 UNL     1      -2.384  20.553   5.151  1.00  0.00     0.182 C
HETATM   32  O5  UNL     1      -2.243  20.375   3.777  1.00  0.00    -0.329 OA
BRANCH  29  33
HETATM   33  O1  UNL     1      -0.454  20.259   6.593  1.00  0.00    -0.385 OA
HETATM   34  C1  UNL     1      -0.495  19.982   7.957  1.00  0.00     0.202 C
ENDBRANCH  29  33
BRANCH  31  35
HETATM   35  C27 UNL     1      -2.002  22.015   5.409  1.00  0.00     0.199 C
BRANCH  35  36
HETATM   36  O6  UNL     1      -3.125  22.833   5.509  1.00  0.00    -0.398 OA
ATOM     37  H6  UNL     1      -3.821  22.550   4.928  1.00  0.00     0.209 HD
ENDBRANCH  35  36
ENDBRANCH  31  35
ENDBRANCH  25  26
ENDBRANCH   1  25
TORSDOF 10
ENDMDL