MODEL 1
REMARK VINA RESULT: -8.263073105      0.000      0.000
REMARK  9 active torsions:
REMARK  status: ('A' for Active; 'I' for Inactive)
REMARK    1  A    between atoms: C12_14  and  O1_15
REMARK    2  A    between atoms: O1_15  and  C13_16
REMARK    3  A    between atoms: C13_16  and  C14_17
REMARK    4  A    between atoms: C14_17  and  O2_18
REMARK    5  A    between atoms: C14_17  and  C15_20
REMARK    6  A    between atoms: C15_20  and  N1_21
REMARK    7  A    between atoms: C18_24  and  N2_25
REMARK       I    between atoms: N2_25  and  C19_27
REMARK    8  A    between atoms: C19_27  and  O4_29
REMARK    9  A    between atoms: O4_29  and  C20_30
ROOT
HETATM    1  C14 UNL     1      -1.927  26.539   5.801  1.00  0.00     0.170 C
ENDROOT
BRANCH   1   2
HETATM    2  C13 UNL     1      -1.202  25.286   5.343  1.00  0.00     0.209 C
BRANCH   2   3
HETATM    3  O1  UNL     1      -0.436  25.328   4.258  1.00  0.00    -0.345 OA
BRANCH   3   4
HETATM    4  C12 UNL     1       0.495  24.661   3.565  1.00  0.00     0.107 A
HETATM    5  C11 UNL     1       1.177  25.368   2.545  1.00  0.00     0.150 A
HETATM    6  C10 UNL     1       2.146  24.804   1.763  1.00  0.00     0.053 A
HETATM    7  F1  UNL     1       0.816  26.678   2.372  1.00  0.00    -0.203 F
HETATM    8  C9  UNL     1       2.493  23.486   1.953  1.00  0.00    -0.047 A
HETATM    9  C8  UNL     1       3.523  22.631   1.255  1.00  0.00     0.041 C
HETATM   10  C27 UNL     1       1.867  22.746   2.923  1.00  0.00    -0.030 A
HETATM   11  C7  UNL     1       3.824  21.605   2.360  1.00  0.00     0.030 C
HETATM   12  C6  UNL     1       2.406  21.398   2.876  1.00  0.00     0.039 C
HETATM   13  C2  UNL     1       2.361  20.596   4.126  1.00  0.00     0.005 C
HETATM   14  S1  UNL     1       1.586  20.363   1.598  1.00  0.00    -0.154 SA
HETATM   15  C1  UNL     1       0.945  20.152   4.389  1.00  0.00     0.012 C
HETATM   16  C3  UNL     1       3.298  19.428   3.966  1.00  0.00     0.007 C
HETATM   17  C4  UNL     1       2.833  18.360   3.040  1.00  0.00     0.010 C
HETATM   18  C5  UNL     1       2.510  18.790   1.649  1.00  0.00     0.075 C
HETATM   19  C26 UNL     1       0.886  23.349   3.703  1.00  0.00     0.049 A
ENDBRANCH   3   4
ENDBRANCH   2   3
ENDBRANCH   1   2
BRANCH   1  20
HETATM   20  O2  UNL     1      -1.269  27.144   6.824  1.00  0.00    -0.392 OA
ATOM     21  H2  UNL     1      -1.314  26.626   7.619  1.00  0.00     0.210 HD
ENDBRANCH   1  20
BRANCH   1  22
HETATM   22  C15 UNL     1      -2.211  27.465   4.673  1.00  0.00     0.306 C
BRANCH  22  23
HETATM   23  N1  UNL     1      -3.121  28.520   5.091  1.00  0.00     0.091 N
HETATM   24  C16 UNL     1      -4.439  28.304   4.491  1.00  0.00     0.274 C
HETATM   25  C17 UNL     1      -4.577  28.887   3.129  1.00  0.00     0.055 C
HETATM   26  C18 UNL     1      -4.411  30.395   3.125  1.00  0.00     0.090 C
HETATM   27  C24 UNL     1      -3.654  30.822   4.322  1.00  0.00     0.055 C
HETATM   28  C25 UNL     1      -2.616  29.830   4.705  1.00  0.00     0.274 C
BRANCH  26  29
HETATM   29  N2  UNL     1      -5.730  30.994   3.041  1.00  0.00    -0.332 N
HETATM   30  C19 UNL     1      -6.429  31.214   1.822  1.00  0.00     0.361 C
HETATM   31  O3  UNL     1      -5.900  30.870   0.742  1.00  0.00    -0.238 OA
ATOM     32  H2  UNL     1      -6.184  31.276   3.910  1.00  0.00     0.165 HD
BRANCH  30  33
HETATM   33  O4  UNL     1      -7.684  31.799   1.791  1.00  0.00    -0.294 OA
BRANCH  33  34
HETATM   34  C20 UNL     1      -8.864  31.213   2.278  1.00  0.00     0.061 C
HETATM   35  C21 UNL     1      -9.963  31.612   1.288  1.00  0.00     0.046 C
HETATM   36  C22 UNL     1      -9.287  31.818   3.611  1.00  0.00     0.046 C
HETATM   37  C23 UNL     1      -8.817  29.722   2.382  1.00  0.00     0.046 C
ENDBRANCH  33  34
ENDBRANCH  30  33
ENDBRANCH  26  29
ENDBRANCH  22  23
ENDBRANCH   1  22
TORSDOF 9
ENDMDL