MODEL 5
REMARK VINA RESULT: -7.931088326      1.213      2.699
REMARK  7 active torsions:
REMARK  status: ('A' for Active; 'I' for Inactive)
REMARK    1  A    between atoms: C2_2  and  O1_4
REMARK    2  A    between atoms: C2_2  and  C4_6
REMARK    3  A    between atoms: C7_10  and  C8_11
REMARK       I    between atoms: C8_11  and  N1_13
REMARK    4  A    between atoms: N1_13  and  C9_15
REMARK    5  A    between atoms: C9_15  and  C10_16
REMARK    6  A    between atoms: C10_16  and  N2_17
REMARK    7  A    between atoms: N4_33  and  C24_34
ROOT
HETATM    1  C4  UNL     1       0.926  22.540   4.155  1.00  0.00     0.083 A
HETATM    2  C5  UNL     1       0.396  23.837   4.079  1.00  0.00     0.059 A
HETATM    3  C6  UNL     1      -0.588  24.537   4.756  1.00  0.00     0.146 A
HETATM    4  F1  UNL     1      -1.239  23.974   5.766  1.00  0.00    -0.204 F
HETATM    5  C7  UNL     1      -0.925  25.852   4.465  1.00  0.00     0.071 A
HETATM    6  C21 UNL     1      -0.229  26.469   3.447  1.00  0.00     0.022 A
HETATM    7  C22 UNL     1       0.756  25.821   2.744  1.00  0.00     0.033 A
HETATM    8  C23 UNL     1       1.065  24.503   3.062  1.00  0.00     0.064 A
HETATM    9  N3  UNL     1       1.935  23.626   2.585  1.00  0.00    -0.293 N
ATOM     10  H3  UNL     1       2.578  23.830   1.819  1.00  0.00     0.187 HD
HETATM   11  N4  UNL     1       1.882  22.430   3.217  1.00  0.00    -0.264 N
ENDROOT
BRANCH   5  12
HETATM   12  C8  UNL     1      -2.014  26.596   5.142  1.00  0.00     0.258 C
HETATM   13  O2  UNL     1      -2.083  26.474   6.390  1.00  0.00    -0.267 OA
HETATM   14  N1  UNL     1      -2.893  27.383   4.422  1.00  0.00    -0.334 N
ATOM     15  H1  UNL     1      -2.695  27.368   3.422  1.00  0.00     0.168 HD
BRANCH  14  16
HETATM   16  C9  UNL     1      -4.001  28.203   4.737  1.00  0.00     0.095 C
BRANCH  16  17
HETATM   17  C10 UNL     1      -3.852  29.603   5.199  1.00  0.00     0.067 C
HETATM   18  C16 UNL     1      -4.260  29.790   6.625  1.00  0.00     0.037 C
HETATM   19  C17 UNL     1      -4.339  31.306   6.959  1.00  0.00     0.003 C
HETATM   20  C18 UNL     1      -2.937  31.840   6.835  1.00  0.00     0.000 C
HETATM   21  C19 UNL     1      -1.961  30.814   6.358  1.00  0.00     0.003 C
HETATM   22  C20 UNL     1      -2.405  30.058   5.129  1.00  0.00     0.037 C
BRANCH  17  23
HETATM   23  N2  UNL     1      -4.620  30.524   4.384  1.00  0.00    -0.359 N
HETATM   24  C11 UNL     1      -5.949  30.169   4.081  1.00  0.00     0.064 C
HETATM   25  C12 UNL     1      -6.212  29.666   2.682  1.00  0.00     0.045 C
HETATM   26  C13 UNL     1      -5.712  30.663   1.691  1.00  0.00     0.010 C
HETATM   27  C14 UNL     1      -4.860  31.735   2.270  1.00  0.00     0.045 C
HETATM   28  C15 UNL     1      -3.948  31.243   3.395  1.00  0.00     0.064 C
ENDBRANCH  17  23
ENDBRANCH  16  17
ENDBRANCH  14  16
ENDBRANCH   5  12
BRANCH   1  29
HETATM   29  C2  UNL     1       0.492  21.534   5.111  1.00  0.00     0.096 C
HETATM   30  C1  UNL     1      -0.936  21.041   4.937  1.00  0.00     0.052 C
HETATM   31  C3  UNL     1       0.694  21.882   6.579  1.00  0.00     0.052 C
BRANCH  29  32
HETATM   32  O1  UNL     1       1.201  20.304   5.007  1.00  0.00    -0.384 OA
ATOM     33  H1  UNL     1       2.043  20.562   5.364  1.00  0.00     0.211 HD
ENDBRANCH  29  32
ENDBRANCH   1  29
BRANCH  11  34
HETATM   34  C24 UNL     1       2.737  21.358   2.857  1.00  0.00     0.016 C
HETATM   35  C25 UNL     1       4.214  21.525   3.024  1.00  0.00     0.081 C
HETATM   36  C26 UNL     1       4.772  20.092   3.243  1.00  0.00     0.173 C
HETATM   37  O3  UNL     1       4.349  19.222   2.265  1.00  0.00    -0.390 OA
HETATM   38  C27 UNL     1       2.972  19.012   2.232  1.00  0.00     0.173 C
HETATM   39  C28 UNL     1       2.401  20.398   1.800  1.00  0.00     0.081 C
ENDBRANCH  11  34
TORSDOF 7
ENDMDL