MODEL 1
REMARK VINA RESULT: -8.052592712      0.000      0.000
REMARK  9 active torsions:
REMARK  status: ('A' for Active; 'I' for Inactive)
REMARK    1  A    between atoms: C2_2  and  C3_3
REMARK    2  A    between atoms: C3_3  and  N1_4
REMARK    3  A    between atoms: C3_3  and  C25_37
REMARK    4  A    between atoms: N1_4  and  C4_6
REMARK    5  A    between atoms: C6_10  and  C7_11
REMARK    6  A    between atoms: C7_11  and  N3_13
REMARK    7  A    between atoms: N3_13  and  C9_14
REMARK    8  A    between atoms: N4_17  and  C12_18
REMARK    9  A    between atoms: C15_21  and  O1_22
ROOT
HETATM    1  C9  UNL     1       1.136  24.054   2.985  1.00  0.00     0.116 A
HETATM    2  C10 UNL     1       1.056  25.460   3.040  1.00  0.00     0.062 A
HETATM    3  C11 UNL     1       0.114  26.078   3.834  1.00  0.00     0.096 A
HETATM    4  N4  UNL     1      -0.745  25.357   4.569  1.00  0.00    -0.338 N
HETATM    5  C19 UNL     1      -0.714  24.001   4.555  1.00  0.00     0.121 A
HETATM    6  N5  UNL     1      -1.573  23.281   5.291  1.00  0.00    -0.350 N
ATOM      7  H5  UNL     1      -2.254  23.780   5.863  1.00  0.00     0.166 HD
HETATM    8  C20 UNL     1      -1.584  21.945   5.316  1.00  0.00     0.112 A
HETATM    9  C21 UNL     1      -0.658  21.294   4.537  1.00  0.00     0.061 A
HETATM   10  C22 UNL     1      -0.635  19.849   4.534  1.00  0.00     0.101 C
HETATM   11  N6  UNL     1      -0.623  18.692   4.551  1.00  0.00    -0.191 NA
HETATM   12  C23 UNL     1       0.245  21.986   3.763  1.00  0.00     0.042 A
HETATM   13  C24 UNL     1       0.209  23.366   3.778  1.00  0.00     0.050 A
ENDROOT
BRANCH   1  14
HETATM   14  N3  UNL     1       1.951  23.534   2.298  1.00  0.00    -0.436 NA
BRANCH  14  15
HETATM   15  C7  UNL     1       2.768  23.145   1.306  1.00  0.00     0.211 C
HETATM   16  C8  UNL     1       3.832  22.168   1.878  1.00  0.00     0.054 C
BRANCH  15  17
HETATM   17  C6  UNL     1       2.020  22.273   0.316  1.00  0.00     0.077 A
HETATM   18  C5  UNL     1       1.851  20.906   0.395  1.00  0.00     0.135 A
HETATM   19  N2  UNL     1       1.133  20.545  -0.699  1.00  0.00    -0.200 N
HETATM   20  C4  UNL     1       0.867  21.637  -1.428  1.00  0.00     0.678 A
ATOM     21  H2  UNL     1       0.842  19.595  -0.929  1.00  0.00     0.183 HD
HETATM   22  N7  UNL     1       1.412  22.703  -0.806  1.00  0.00    -0.191 N
ATOM     23  H7  UNL     1       1.370  23.669  -1.130  1.00  0.00     0.184 HD
BRANCH  20  24
HETATM   24  N1  UNL     1       0.214  21.668  -2.525  1.00  0.00    -0.220 N
ATOM     25  H1  UNL     1       0.262  22.532  -3.065  1.00  0.00     0.178 HD
BRANCH  24  26
HETATM   26  C3  UNL     1      -0.580  20.605  -3.073  1.00  0.00     0.121 C
BRANCH  26  27
HETATM   27  C2  UNL     1      -2.043  20.884  -3.064  1.00  0.00     0.023 C
HETATM   28  C1  UNL     1      -2.423  22.328  -2.960  1.00  0.00     0.007 C
ENDBRANCH  26  27
BRANCH  26  29
HETATM   29  C25 UNL     1      -0.006  20.138  -4.364  1.00  0.00     0.051 C
HETATM   30  C26 UNL     1      -0.878  19.283  -5.210  1.00  0.00     0.034 C
HETATM   31  C27 UNL     1       0.438  21.341  -5.210  1.00  0.00     0.034 C
HETATM   32 CL1  UNL     1       1.512  19.202  -4.088  1.00  0.00    -0.118 Cl
ENDBRANCH  26  29
ENDBRANCH  24  26
ENDBRANCH  20  24
ENDBRANCH  15  17
ENDBRANCH  14  15
ENDBRANCH   1  14
BRANCH   4  33
HETATM   33  C12 UNL     1      -1.713  26.041   5.385  1.00  0.00     0.091 C
HETATM   34  C13 UNL     1      -1.114  26.828   6.519  1.00  0.00     0.028 C
HETATM   35  C14 UNL     1      -2.290  27.367   7.328  1.00  0.00     0.034 C
HETATM   36  C15 UNL     1      -2.922  28.523   6.546  1.00  0.00     0.120 C
HETATM   37  C17 UNL     1      -2.585  28.384   5.082  1.00  0.00     0.034 C
HETATM   38  C18 UNL     1      -2.590  26.973   4.585  1.00  0.00     0.028 C
BRANCH  36  39
HETATM   39  O1  UNL     1      -2.318  29.685   7.023  1.00  0.00    -0.391 OA
HETATM   40  C16 UNL     1      -2.401  29.822   8.389  1.00  0.00     0.202 C
ENDBRANCH  36  39
ENDBRANCH   4  33
TORSDOF 9
ENDMDL