MODEL 3
REMARK VINA RESULT: -7.862395559      2.187      3.848
REMARK  5 active torsions:
REMARK  status: ('A' for Active; 'I' for Inactive)
REMARK    1  A    between atoms: C2_2  and  C3_3
REMARK    2  A    between atoms: C3_3  and  O1_5
REMARK    3  A    between atoms: C3_3  and  C5_7
REMARK    4  A    between atoms: C6_10  and  N2_11
REMARK    5  A    between atoms: C13_23  and  C14_24
ROOT
HETATM    1  N2  UNL     1       4.919  19.896   3.015  1.00  0.00    -0.342 N
HETATM    2  C7  UNL     1       5.963  20.840   2.974  1.00  0.00     0.107 C
HETATM    3  C8  UNL     1       7.394  20.353   3.041  1.00  0.00     0.241 C
HETATM    4  F1  UNL     1       7.979  20.450   4.290  1.00  0.00    -0.239 F
HETATM    5  C9  UNL     1       7.522  19.034   2.429  1.00  0.00     0.006 C
HETATM    6  C10 UNL     1       8.669  18.165   2.490  1.00  0.00     0.063 A
HETATM    7  N3  UNL     1       8.973  17.177   3.342  1.00  0.00    -0.300 N
ATOM      8  H3  UNL     1       8.478  17.034   4.222  1.00  0.00     0.187 HD
HETATM    9  N4  UNL     1       9.958  16.413   2.951  1.00  0.00    -0.304 N
ATOM     10  H4  UNL     1      10.342  15.608   3.447  1.00  0.00     0.186 HD
HETATM   11  C11 UNL     1      10.382  16.915   1.718  1.00  0.00     0.031 A
HETATM   12  C12 UNL     1      11.579  16.192   1.113  1.00  0.00     0.070 C
HETATM   13  C13 UNL     1       9.642  17.978   1.399  1.00  0.00    -0.002 A
HETATM   14  C20 UNL     1       6.363  18.522   1.584  1.00  0.00     0.145 C
HETATM   15  C21 UNL     1       6.603  17.129   1.210  1.00  0.00     0.070 C
HETATM   16  N5  UNL     1       6.789  16.026   0.931  1.00  0.00    -0.197 NA
HETATM   17  C22 UNL     1       5.063  18.583   2.438  1.00  0.00     0.153 C
ENDROOT
BRANCH   1  18
HETATM   18  C6  UNL     1       3.648  20.184   3.570  1.00  0.00     0.121 A
HETATM   19  N1  UNL     1       3.182  19.426   4.618  1.00  0.00    -0.329 N
HETATM   20  C5  UNL     1       2.008  19.605   5.208  1.00  0.00     0.118 A
ATOM     21  H1  UNL     1       3.779  18.675   4.964  1.00  0.00     0.168 HD
HETATM   22  N6  UNL     1       1.194  20.579   4.791  1.00  0.00    -0.343 N
HETATM   23  C28 UNL     1       1.618  21.343   3.769  1.00  0.00     0.047 A
ATOM     24  H6  UNL     1       0.287  20.737   5.231  1.00  0.00     0.167 HD
HETATM   25  C23 UNL     1       2.806  21.196   3.136  1.00  0.00     0.038 A
HETATM   26  C27 UNL     1       0.756  22.362   3.362  1.00  0.00     0.033 A
HETATM   27  C24 UNL     1       3.212  22.020   2.098  1.00  0.00     0.059 A
HETATM   28  C25 UNL     1       2.355  23.044   1.685  1.00  0.00     0.117 A
HETATM   29  F4  UNL     1       2.798  23.813   0.658  1.00  0.00    -0.206 F
HETATM   30  C26 UNL     1       1.167  23.173   2.330  1.00  0.00     0.044 A
BRANCH  20  31
HETATM   31  C3  UNL     1       1.502  18.782   6.357  1.00  0.00     0.112 C
HETATM   32  C4  UNL     1       1.163  17.395   5.835  1.00  0.00     0.054 C
BRANCH  31  33
HETATM   33  C2  UNL     1       0.313  19.395   7.050  1.00  0.00     0.041 C
HETATM   34  C1  UNL     1       0.651  19.821   8.459  1.00  0.00     0.009 C
ENDBRANCH  31  33
BRANCH  31  35
HETATM   35  O1  UNL     1       2.527  18.623   7.270  1.00  0.00    -0.382 OA
ATOM     36  H1  UNL     1       2.889  19.474   7.484  1.00  0.00     0.211 HD
ENDBRANCH  31  35
ENDBRANCH  20  31
ENDBRANCH   1  18
BRANCH  13  37
HETATM   37  C14 UNL     1       9.798  18.999   0.417  1.00  0.00     0.023 C
HETATM   38  C15 UNL     1       9.228  20.356   0.394  1.00  0.00     0.015 C
HETATM   39  C16 UNL     1      10.195  21.092  -0.616  1.00  0.00     0.079 C
HETATM   40  C17 UNL     1       9.744  20.705  -1.986  1.00  0.00     0.243 C
HETATM   41  F2  UNL     1      10.837  20.447  -2.804  1.00  0.00    -0.206 F
HETATM   42  F3  UNL     1       9.015  21.820  -2.476  1.00  0.00    -0.206 F
HETATM   43  C18 UNL     1       8.771  19.594  -1.882  1.00  0.00     0.079 C
HETATM   44  C19 UNL     1       9.083  18.489  -0.908  1.00  0.00     0.015 C
ENDBRANCH  13  37
TORSDOF 5
ENDMDL