MODEL 3
REMARK VINA RESULT: -7.781539599      1.633      2.103
REMARK  7 active torsions:
REMARK  status: ('A' for Active; 'I' for Inactive)
REMARK    1  A    between atoms: C2_2  and  C3_3
REMARK    2  A    between atoms: C7_11  and  N3_12
REMARK    3  A    between atoms: N3_12  and  C8_14
REMARK    4  A    between atoms: C10_16  and  N4_17
REMARK    5  A    between atoms: N5_20  and  C13_21
REMARK    6  A    between atoms: C25_34  and  O1_35
REMARK    7  A    between atoms: O1_35  and  C26_36
ROOT
HETATM    1  C8  UNL     1       6.942  19.806   2.563  1.00  0.00     0.085 A
HETATM    2  C9  UNL     1       5.663  19.839   2.081  1.00  0.00     0.062 A
HETATM    3  C10 UNL     1       4.588  19.261   2.767  1.00  0.00     0.040 A
HETATM    4  C22 UNL     1       4.857  18.639   3.978  1.00  0.00    -0.033 A
HETATM    5  C23 UNL     1       3.751  17.999   4.755  1.00  0.00     0.050 C
HETATM    6  C24 UNL     1       6.135  18.591   4.489  1.00  0.00     0.048 A
HETATM    7  C25 UNL     1       7.159  19.168   3.786  1.00  0.00     0.106 A
ENDROOT
BRANCH   1   8
HETATM    8  N3  UNL     1       8.011  20.406   1.846  1.00  0.00    -0.189 N
ATOM      9  H3  UNL     1       8.246  21.387   1.999  1.00  0.00     0.184 HD
BRANCH   8  10
HETATM   10  C7  UNL     1       8.688  19.695   0.990  1.00  0.00     0.682 A
HETATM   11  N2  UNL     1       9.141  18.490   1.333  1.00  0.00    -0.199 N
HETATM   12  C6  UNL     1       9.844  17.701   0.501  1.00  0.00     0.137 A
ATOM     13  H2  UNL     1       8.946  18.149   2.274  1.00  0.00     0.183 HD
HETATM   14  C5  UNL     1      10.109  18.177  -0.791  1.00  0.00     0.067 A
HETATM   15  N1  UNL     1      10.847  17.383  -1.704  1.00  0.00    -0.387 N
HETATM   16  C27 UNL     1       9.636  19.416  -1.133  1.00  0.00     0.054 A
HETATM   17  C4  UNL     1      10.754  17.698  -3.114  1.00  0.00     0.124 C
ATOM     18  H1  UNL     1      11.427  16.610  -1.377  1.00  0.00     0.159 HD
HETATM   19  C3  UNL     1      10.947  19.206  -3.208  1.00  0.00     0.009 C
HETATM   20  C28 UNL     1       9.888  19.960  -2.485  1.00  0.00     0.066 C
HETATM   21  N6  UNL     1       8.926  20.173  -0.239  1.00  0.00    -0.193 N
ATOM     22  H6  UNL     1       8.581  21.095  -0.507  1.00  0.00     0.184 HD
BRANCH  19  23
HETATM   23  C2  UNL     1      10.966  19.598  -4.660  1.00  0.00     0.002 C
HETATM   24  C1  UNL     1      10.564  18.442  -5.536  1.00  0.00     0.005 C
ENDBRANCH  19  23
ENDBRANCH   8  10
ENDBRANCH   1   8
BRANCH   7  25
HETATM   25  O1  UNL     1       8.448  19.150   4.244  1.00  0.00    -0.253 OA
BRANCH  25  26
HETATM   26  C26 UNL     1       9.069  20.102   5.051  1.00  0.00     0.530 C
HETATM   27  F2  UNL     1       9.580  19.475   6.190  1.00  0.00    -0.144 F
HETATM   28  F3  UNL     1       8.069  20.973   5.506  1.00  0.00    -0.144 F
HETATM   29  F4  UNL     1      10.005  20.869   4.425  1.00  0.00    -0.144 F
ENDBRANCH  25  26
ENDBRANCH   7  25
BRANCH   3  30
HETATM   30  N4  UNL     1       3.298  19.354   2.198  1.00  0.00    -0.347 N
HETATM   31  C11 UNL     1       2.773  18.297   1.379  1.00  0.00     0.145 C
HETATM   32  C12 UNL     1       1.386  18.776   0.916  1.00  0.00     0.137 C
HETATM   33  N5  UNL     1       1.605  20.026   0.266  1.00  0.00    -0.402 N
HETATM   34  C20 UNL     1       2.054  21.089   1.102  1.00  0.00     0.176 C
HETATM   35  C21 UNL     1       2.488  20.526   2.439  1.00  0.00     0.289 C
HETATM   36  F1  UNL     1       3.166  21.474   3.187  1.00  0.00    -0.225 F
BRANCH  33  37
HETATM   37  C13 UNL     1       0.627  20.379  -0.705  1.00  0.00     0.079 C
HETATM   38  C14 UNL     1       0.522  21.839  -1.025  1.00  0.00     0.025 C
HETATM   39  C15 UNL     1       0.480  22.116  -2.503  1.00  0.00     0.006 C
HETATM   40  C16 UNL     1      -0.391  21.194  -3.285  1.00  0.00    -0.019 C
HETATM   41  C17 UNL     1       0.065  21.255  -4.749  1.00  0.00     0.010 C
HETATM   42  C18 UNL     1      -0.375  19.766  -2.820  1.00  0.00     0.006 C
HETATM   43  C19 UNL     1       0.886  19.582  -1.971  1.00  0.00     0.025 C
ENDBRANCH  33  37
ENDBRANCH   3  30
TORSDOF 7
ENDMDL