MODEL 5
REMARK VINA RESULT: -7.623280849      5.471     10.733
REMARK  7 active torsions:
REMARK  status: ('A' for Active; 'I' for Inactive)
REMARK    1  A    between atoms: C2_2  and  N1_4
REMARK    2  A    between atoms: N1_4  and  C4_6
REMARK    3  A    between atoms: C5_9  and  C6_10
REMARK       I    between atoms: C6_10  and  N3_12
REMARK    4  A    between atoms: N3_12  and  C7_14
REMARK    5  A    between atoms: C7_14  and  C8_15
REMARK    6  A    between atoms: N4_23  and  C16_24
REMARK    7  A    between atoms: C17_29  and  C18_30
ROOT
HETATM    1  C8  UNL     1       6.747  20.243   1.771  1.00  0.00     0.003 C
HETATM    2  C9  UNL     1       6.211  20.869   3.035  1.00  0.00     0.007 C
HETATM    3  C10 UNL     1       4.855  20.272   3.394  1.00  0.00     0.010 C
HETATM    4  C11 UNL     1       3.878  20.419   2.231  1.00  0.00    -0.037 C
HETATM    5  C12 UNL     1       4.437  19.673   1.030  1.00  0.00     0.010 C
HETATM    6  C13 UNL     1       5.849  19.166   1.262  1.00  0.00     0.007 C
HETATM    7  C14 UNL     1       2.622  19.676   2.630  1.00  0.00     0.030 C
HETATM    8  C15 UNL     1       1.462  19.941   1.687  1.00  0.00     0.142 C
HETATM    9  N4  UNL     1       1.464  21.319   1.184  1.00  0.00    -0.212 N
HETATM   10  C20 UNL     1       2.174  22.273   2.007  1.00  0.00     0.098 C
HETATM   11  C21 UNL     1       1.678  22.322   3.440  1.00  0.00     0.033 C
HETATM   12  C22 UNL     1       3.660  21.868   1.962  1.00  0.00     0.035 C
ENDROOT
BRANCH   1  13
HETATM   13  C7  UNL     1       8.200  19.938   1.794  1.00  0.00     0.127 C
BRANCH  13  14
HETATM   14  N3  UNL     1       8.841  20.113   0.531  1.00  0.00    -0.355 N
HETATM   15  C6  UNL     1       9.031  18.976  -0.267  1.00  0.00     0.270 C
HETATM   16  O1  UNL     1       8.685  17.836   0.117  1.00  0.00    -0.266 OA
ATOM     17  H3  UNL     1       9.149  21.034   0.220  1.00  0.00     0.162 HD
BRANCH  15  18
HETATM   18  C5  UNL     1       9.682  19.087  -1.629  1.00  0.00     0.131 A
HETATM   19  N2  UNL     1       9.615  18.112  -2.469  1.00  0.00    -0.330 N
HETATM   20  C4  UNL     1      10.153  18.254  -3.700  1.00  0.00     0.146 A
ATOM     21  H2  UNL     1       9.158  17.239  -2.206  1.00  0.00     0.168 HD
HETATM   22  S1  UNL     1      10.781  19.859  -3.625  1.00  0.00    -0.040 SA
HETATM   23  C23 UNL     1      10.300  20.236  -2.008  1.00  0.00     0.110 A
HETATM   24 CL1  UNL     1      10.565  21.775  -1.160  1.00  0.00    -0.073 Cl
BRANCH  20  25
HETATM   25  N1  UNL     1      10.165  17.414  -4.616  1.00  0.00    -0.366 N
ATOM     26  H1  UNL     1      11.168  17.319  -4.781  1.00  0.00     0.162 HD
BRANCH  25  27
HETATM   27  C2  UNL     1       9.684  16.577  -5.501  1.00  0.00     0.075 C
HETATM   28  C1  UNL     1       8.125  16.616  -5.495  1.00  0.00     0.032 C
HETATM   29  C3  UNL     1      10.034  16.795  -6.975  1.00  0.00     0.032 C
ENDBRANCH  25  27
ENDBRANCH  20  25
ENDBRANCH  15  18
ENDBRANCH  13  14
ENDBRANCH   1  13
BRANCH   9  30
HETATM   30  C16 UNL     1       0.862  21.588  -0.053  1.00  0.00     0.698 A
HETATM   31  N5  UNL     1       1.430  22.335  -1.061  1.00  0.00    -0.130 N
HETATM   32  N6  UNL     1       0.657  22.417  -2.097  1.00  0.00    -0.267 N
ATOM     33  H5  UNL     1       2.349  22.771  -0.999  1.00  0.00     0.205 HD
HETATM   34  C17 UNL     1      -0.465  21.713  -1.811  1.00  0.00     0.222 A
ATOM     35  H6  UNL     1       0.855  22.916  -2.963  1.00  0.00     0.189 HD
HETATM   36  N7  UNL     1      -0.309  21.217  -0.551  1.00  0.00    -0.165 N
HETATM   37  C19 UNL     1      -1.332  20.405   0.092  1.00  0.00     0.177 C
BRANCH  34  38
HETATM   38  C18 UNL     1      -1.642  21.556  -2.708  1.00  0.00     0.451 C
HETATM   39  F1  UNL     1      -2.813  21.996  -2.049  1.00  0.00    -0.163 F
HETATM   40  F2  UNL     1      -1.786  20.305  -3.198  1.00  0.00    -0.163 F
HETATM   41  F3  UNL     1      -1.507  22.423  -3.821  1.00  0.00    -0.163 F
ENDBRANCH  34  38
ENDBRANCH   9  30
TORSDOF 7
ENDMDL