MODEL 5
REMARK VINA RESULT: -7.076396804      4.598     10.647
REMARK  7 active torsions:
REMARK  status: ('A' for Active; 'I' for Inactive)
REMARK    1  A    between atoms: C4_7  and  C5_8
REMARK    2  A    between atoms: C5_8  and  O1_9
REMARK    3  A    between atoms: C5_8  and  C6_11
REMARK    4  A    between atoms: C10_15  and  N2_16
REMARK       I    between atoms: N2_16  and  C11_18
REMARK    5  A    between atoms: C11_18  and  C12_20
REMARK    6  A    between atoms: C22_31  and  N4_32
REMARK    7  A    between atoms: C26_36  and  C27_37
ROOT
HETATM    1  C12 UNL     1      10.347  17.307  -1.413  1.00  0.00     0.129 C
HETATM    2  C13 UNL     1      11.635  16.587  -1.182  1.00  0.00     0.079 C
HETATM    3  N3  UNL     1      12.634  16.030  -1.015  1.00  0.00    -0.196 NA
HETATM    4  C14 UNL     1      10.651  18.723  -1.676  1.00  0.00     0.034 C
HETATM    5  C15 UNL     1       9.947  19.345  -2.872  1.00  0.00     0.002 C
HETATM    6  C16 UNL     1      10.848  19.442  -4.078  1.00  0.00     0.000 C
HETATM    7  C17 UNL     1      10.539  18.559  -5.217  1.00  0.00     0.000 C
HETATM    8  C18 UNL     1       9.771  17.312  -4.905  1.00  0.00     0.000 C
HETATM    9  C19 UNL     1      10.400  16.509  -3.784  1.00  0.00     0.002 C
HETATM   10  C20 UNL     1       9.608  16.583  -2.514  1.00  0.00     0.034 C
ENDROOT
BRANCH   1  11
HETATM   11  C11 UNL     1       9.624  17.180  -0.118  1.00  0.00     0.240 C
HETATM   12  N2  UNL     1       9.090  18.313   0.556  1.00  0.00    -0.355 N
ATOM     13  H2  UNL     1       9.215  19.231   0.130  1.00  0.00     0.162 HD
HETATM   14  O2  UNL     1       9.491  16.040   0.375  1.00  0.00    -0.272 OA
BRANCH  12  15
HETATM   15  C10 UNL     1       8.386  18.234   1.797  1.00  0.00     0.084 C
HETATM   16  C9  UNL     1       9.293  18.488   2.990  1.00  0.00     0.025 C
HETATM   17  C8  UNL     1       9.291  19.930   3.431  1.00  0.00     0.002 C
HETATM   18  C7  UNL     1       7.959  20.180   4.089  1.00  0.00     0.007 C
HETATM   19  C6  UNL     1       6.894  19.301   3.423  1.00  0.00     0.021 C
HETATM   20  C21 UNL     1       7.255  19.216   1.898  1.00  0.00     0.032 C
BRANCH  19  21
HETATM   21  C5  UNL     1       5.595  19.996   3.561  1.00  0.00     0.163 C
BRANCH  21  22
HETATM   22  C4  UNL     1       4.535  19.420   4.363  1.00  0.00     0.071 A
HETATM   23  C3  UNL     1       4.950  18.757   5.570  1.00  0.00     0.202 A
HETATM   24  N1  UNL     1       4.053  18.258   6.388  1.00  0.00    -0.322 N
HETATM   25  F1  UNL     1       6.297  18.685   5.813  1.00  0.00    -0.185 F
HETATM   26  C2  UNL     1       2.728  18.347   6.134  1.00  0.00     0.080 A
ATOM     27  H1  UNL     1       4.365  17.790   7.239  1.00  0.00     0.169 HD
HETATM   28  C1  UNL     1       1.750  17.768   7.087  1.00  0.00     0.089 C
HETATM   29  N5  UNL     1       2.346  18.952   5.035  1.00  0.00    -0.332 N
HETATM   30  C22 UNL     1       3.204  19.513   4.111  1.00  0.00     0.118 A
ATOM     31  H5  UNL     1       1.344  19.013   4.851  1.00  0.00     0.168 HD
BRANCH  30  32
HETATM   32  N4  UNL     1       2.600  20.278   3.088  1.00  0.00    -0.366 N
HETATM   33  C23 UNL     1       2.206  19.536   1.868  1.00  0.00     0.124 C
HETATM   34  C24 UNL     1       3.008  20.050   0.725  1.00  0.00     0.020 C
HETATM   35  C25 UNL     1       3.661  21.378   0.913  1.00  0.00     0.017 C
HETATM   36  C26 UNL     1       2.906  22.331   1.803  1.00  0.00     0.111 C
HETATM   37  C28 UNL     1       2.397  21.693   3.056  1.00  0.00     0.138 C
BRANCH  36  38
HETATM   38  C27 UNL     1       1.860  23.039   0.984  1.00  0.00     0.393 C
HETATM   39  F2  UNL     1       2.019  22.721  -0.369  1.00  0.00    -0.171 F
HETATM   40  F3  UNL     1       0.572  22.564   1.284  1.00  0.00    -0.171 F
HETATM   41  F4  UNL     1       1.919  24.408   1.080  1.00  0.00    -0.171 F
ENDBRANCH  36  38
ENDBRANCH  30  32
ENDBRANCH  21  22
BRANCH  21  42
HETATM   42  O1  UNL     1       5.805  21.355   3.946  1.00  0.00    -0.390 OA
ATOM     43  H1  UNL     1       5.891  21.898   3.170  1.00  0.00     0.210 HD
ENDBRANCH  21  42
ENDBRANCH  19  21
ENDBRANCH  12  15
ENDBRANCH   1  11
TORSDOF 7
ENDMDL