MODEL 5
REMARK VINA RESULT: -6.684467673      5.250      7.238
REMARK  7 active torsions:
REMARK  status: ('A' for Active; 'I' for Inactive)
REMARK    1  A    between atoms: C2_2  and  C3_3
REMARK    2  A    between atoms: C3_3  and  C4_4
REMARK    3  A    between atoms: C5_5  and  C6_6
REMARK    4  A    between atoms: C9_9  and  C10_10
REMARK    5  A    between atoms: C14_18  and  C15_19
REMARK    6  A    between atoms: N4_27  and  C21_29
REMARK    7  A    between atoms: N6_33  and  C23_34
ROOT
HETATM    1  C6  UNL     1       2.029  20.280   0.515  1.00  0.00     0.105 A
HETATM    2  C7  UNL     1       1.503  19.934  -0.707  1.00  0.00     0.072 A
HETATM    3  C8  UNL     1       1.827  18.697  -1.286  1.00  0.00     0.088 A
HETATM    4  C9  UNL     1       1.447  18.114  -2.473  1.00  0.00     0.073 A
HETATM    5  N2  UNL     1       2.033  16.935  -2.549  1.00  0.00    -0.342 N
ATOM      6  H2  UNL     1       1.930  16.282  -3.325  1.00  0.00     0.167 HD
HETATM    7  C14 UNL     1       2.785  16.720  -1.454  1.00  0.00     0.110 A
HETATM    8  N3  UNL     1       2.649  17.814  -0.685  1.00  0.00    -0.133 N
HETATM    9  C20 UNL     1       3.148  18.181   0.511  1.00  0.00     0.692 A
HETATM   10  N4  UNL     1       3.925  17.403   1.135  1.00  0.00    -0.188 N
ATOM     11  H4  UNL     1       4.132  16.515   0.678  1.00  0.00     0.184 HD
HETATM   12  N7  UNL     1       2.842  19.383   1.087  1.00  0.00    -0.183 N
ATOM     13  H7  UNL     1       3.251  19.606   1.995  1.00  0.00     0.185 HD
ENDROOT
BRANCH  10  14
HETATM   14  C21 UNL     1       4.531  17.610   2.369  1.00  0.00     0.083 A
HETATM   15  C22 UNL     1       4.251  16.926   3.529  1.00  0.00     0.138 A
HETATM   16  N5  UNL     1       5.048  17.412   4.517  1.00  0.00    -0.307 N
HETATM   17  N6  UNL     1       5.818  18.378   4.013  1.00  0.00    -0.294 N
ATOM     18  H5  UNL     1       5.056  17.092   5.486  1.00  0.00     0.186 HD
HETATM   19  C28 UNL     1       5.515  18.509   2.705  1.00  0.00     0.142 A
BRANCH  17  20
HETATM   20  C23 UNL     1       6.770  19.088   4.816  1.00  0.00     0.147 C
HETATM   21  C24 UNL     1       6.806  20.554   4.428  1.00  0.00     0.036 C
HETATM   22  C25 UNL     1       7.989  20.695   3.493  1.00  0.00     0.084 C
HETATM   23  C26 UNL     1       8.960  19.674   3.996  1.00  0.00     0.276 C
HETATM   24  F1  UNL     1       9.834  20.302   4.885  1.00  0.00    -0.203 F
HETATM   25  F2  UNL     1       9.708  19.181   2.927  1.00  0.00    -0.203 F
HETATM   26  C27 UNL     1       8.173  18.576   4.664  1.00  0.00     0.266 C
HETATM   27  F3  UNL     1       8.721  18.399   5.930  1.00  0.00    -0.241 F
ENDBRANCH  17  20
ENDBRANCH  10  14
BRANCH   7  28
HETATM   28  C15 UNL     1       3.586  15.495  -1.199  1.00  0.00     0.058 C
HETATM   29  C16 UNL     1       3.896  14.879  -2.558  1.00  0.00     0.038 C
HETATM   30  C17 UNL     1       3.044  13.702  -2.901  1.00  0.00     0.168 C
HETATM   31  O1  UNL     1       1.740  13.774  -2.492  1.00  0.00    -0.391 OA
HETATM   32  C18 UNL     1       1.589  13.947  -1.126  1.00  0.00     0.168 C
HETATM   33  C19 UNL     1       2.795  14.464  -0.423  1.00  0.00     0.038 C
ENDBRANCH   7  28
BRANCH   1  34
HETATM   34  C5  UNL     1       1.737  21.525   1.156  1.00  0.00    -0.048 C
HETATM   35  C4  UNL     1       1.493  22.568   1.712  1.00  0.00    -0.100 C
BRANCH  35  36
HETATM   36  C3  UNL     1       1.205  23.824   2.409  1.00  0.00     0.094 C
BRANCH  36  37
HETATM   37  C2  UNL     1       1.968  24.992   1.811  1.00  0.00     0.007 C
HETATM   38  C1  UNL     1       1.202  26.249   2.176  1.00  0.00     0.006 C
ENDBRANCH  36  37
ENDBRANCH  35  36
ENDBRANCH   1  34
BRANCH   4  39
HETATM   39  C10 UNL     1       0.547  18.733  -3.451  1.00  0.00     0.010 A
HETATM   40  C11 UNL     1      -0.783  18.523  -3.602  1.00  0.00     0.032 A
HETATM   41  C12 UNL     1      -1.235  19.312  -4.645  1.00  0.00     0.088 A
HETATM   42  N1  UNL     1      -0.153  19.982  -5.098  1.00  0.00    -0.374 N
HETATM   43  C13 UNL     1       0.933  19.659  -4.405  1.00  0.00     0.101 A
ATOM     44  H1  UNL     1      -0.167  20.647  -5.870  1.00  0.00     0.164 HD
ENDBRANCH   4  39
TORSDOF 7
ENDMDL