MODEL 1
REMARK VINA RESULT: -7.037643038      0.000      0.000
REMARK  6 active torsions:
REMARK  status: ('A' for Active; 'I' for Inactive)
REMARK    1  A    between atoms: C2_2  and  N1_3
REMARK    2  A    between atoms: C7_9  and  N2_10
REMARK       I    between atoms: N2_10  and  C8_12
REMARK    3  A    between atoms: C8_12  and  C9_14
REMARK    4  A    between atoms: C10_18  and  C11_19
REMARK    5  A    between atoms: C11_19  and  C12_20
REMARK    6  A    between atoms: C11_19  and  C19_28
ROOT
HETATM    1  N1  UNL     1       7.607  20.103   1.812  1.00  0.00     0.092 N
HETATM    2  C3  UNL     1       6.302  20.135   1.179  1.00  0.00     0.277 C
HETATM    3  C4  UNL     1       5.254  20.978   1.791  1.00  0.00     0.070 C
HETATM    4  C5  UNL     1       4.571  20.161   2.879  1.00  0.00    -0.033 A
HETATM    5  C6  UNL     1       5.377  19.628   3.864  1.00  0.00    -0.006 A
HETATM    6  S1  UNL     1       4.278  18.835   4.898  1.00  0.00    -0.076 SA
HETATM    7  C7  UNL     1       2.836  19.188   4.070  1.00  0.00     0.085 A
HETATM    8  C10 UNL     1       3.247  19.930   2.987  1.00  0.00    -0.001 A
HETATM    9  C20 UNL     1       6.865  19.650   4.103  1.00  0.00     0.082 C
HETATM   10  C21 UNL     1       7.592  20.539   3.160  1.00  0.00     0.223 C
HETATM   11  C22 UNL     1       8.980  20.813   3.678  1.00  0.00     0.043 C
ENDROOT
BRANCH   8  12
HETATM   12  C11 UNL     1       2.181  20.383   1.999  1.00  0.00     0.125 C
BRANCH  12  13
HETATM   13  C12 UNL     1       1.981  21.844   2.018  1.00  0.00    -0.039 A
HETATM   14  C13 UNL     1       2.594  22.681   1.111  1.00  0.00     0.009 A
HETATM   15  C14 UNL     1       2.395  24.031   1.191  1.00  0.00     0.010 A
HETATM   16  C15 UNL     1       1.598  24.622   2.147  1.00  0.00    -0.023 A
HETATM   17  C16 UNL     1       1.396  26.093   2.214  1.00  0.00     0.051 C
HETATM   18  C17 UNL     1       0.992  23.781   3.045  1.00  0.00     0.122 A
HETATM   19  F1  UNL     1       0.184  24.307   4.026  1.00  0.00    -0.206 F
HETATM   20  C18 UNL     1       1.184  22.396   2.981  1.00  0.00     0.051 A
ENDBRANCH  12  13
BRANCH  12  21
HETATM   21  C19 UNL     1       2.277  19.726   0.704  1.00  0.00     0.126 A
HETATM   22  N3  UNL     1       2.917  18.544   0.501  1.00  0.00    -0.271 N
HETATM   23  N4  UNL     1       2.811  18.244  -0.766  1.00  0.00    -0.227 N
ATOM     24  H3  UNL     1       3.395  17.991   1.211  1.00  0.00     0.190 HD
HETATM   25  N5  UNL     1       2.130  19.183  -1.393  1.00  0.00    -0.227 N
ATOM     26  H4  UNL     1       3.199  17.408  -1.204  1.00  0.00     0.210 HD
HETATM   27  N6  UNL     1       1.808  20.081  -0.491  1.00  0.00    -0.271 N
ATOM     28  H5  UNL     1       1.897  19.207  -2.387  1.00  0.00     0.210 HD
ATOM     29  H6  UNL     1       1.275  20.930  -0.679  1.00  0.00     0.190 HD
ENDBRANCH  12  21
ENDBRANCH   8  12
BRANCH   7  30
HETATM   30  N2  UNL     1       1.550  18.769   4.488  1.00  0.00    -0.317 N
HETATM   31  C8  UNL     1       0.812  19.518   5.442  1.00  0.00     0.277 C
HETATM   32  O1  UNL     1       1.350  20.558   5.899  1.00  0.00    -0.268 OA
ATOM     33  H2  UNL     1       1.148  17.917   4.097  1.00  0.00     0.169 HD
BRANCH  31  34
HETATM   34  C9  UNL     1      -0.522  19.131   5.903  1.00  0.00     0.269 C
HETATM   35 CL1  UNL     1      -0.750  19.263   7.649  1.00  0.00    -0.073 Cl
HETATM   36 CL2  UNL     1      -1.753  20.193   5.143  1.00  0.00    -0.073 Cl
HETATM   37 CL3  UNL     1      -0.944  17.465   5.412  1.00  0.00    -0.073 Cl
ENDBRANCH  31  34
ENDBRANCH   7  30
BRANCH   1  38
HETATM   38  C2  UNL     1       8.089  18.761   1.596  1.00  0.00     0.268 C
HETATM   39  C1  UNL     1       9.268  18.597   0.695  1.00  0.00     0.037 C
ENDBRANCH   1  38
TORSDOF 6
ENDMDL