MODEL 2
REMARK VINA RESULT: -5.944739341      5.225      9.806
REMARK  8 active torsions:
REMARK  status: ('A' for Active; 'I' for Inactive)
REMARK    1  A    between atoms: N1_2  and  C2_4
REMARK    2  A    between atoms: C5_7  and  O1_8
REMARK    3  A    between atoms: C7_10  and  N2_11
REMARK    4  A    between atoms: N3_14  and  C10_15
REMARK    5  A    between atoms: C10_15  and  C11_16
REMARK    6  A    between atoms: C12_17  and  O2_18
REMARK    7  A    between atoms: C16_24  and  C17_25
REMARK    8  A    between atoms: C18_29  and  C19_30
ROOT
HETATM    1  C11 UNL     1       1.154  22.313   1.995  1.00  0.00     0.016 A
HETATM    2  C12 UNL     1       1.498  23.681   1.982  1.00  0.00     0.079 A
HETATM    3  C13 UNL     1       1.010  24.493   2.944  1.00  0.00     0.060 A
HETATM    4  C14 UNL     1       0.194  23.981   3.926  1.00  0.00     0.058 A
HETATM    5  C15 UNL     1      -0.380  24.913   4.892  1.00  0.00     0.100 C
HETATM    6  N4  UNL     1      -0.850  25.704   5.640  1.00  0.00    -0.191 NA
HETATM    7  C16 UNL     1      -0.172  22.613   3.985  1.00  0.00     0.025 A
HETATM    8  C18 UNL     1       0.317  21.777   2.981  1.00  0.00    -0.009 A
ENDROOT
BRANCH   7   9
HETATM    9  C17 UNL     1      -0.861  22.163   5.150  1.00  0.00     0.218 C
HETATM   10 CL1  UNL     1       0.258  22.936   6.500  1.00  0.00    -0.078 Cl
HETATM   11 CL2  UNL     1      -2.359  22.931   5.629  1.00  0.00    -0.078 Cl
HETATM   12 CL3  UNL     1      -0.585  20.545   5.831  1.00  0.00    -0.078 Cl
ENDBRANCH   7   9
BRANCH   2  13
HETATM   13  O2  UNL     1       2.352  24.185   0.966  1.00  0.00    -0.360 OA
ATOM     14  H2  UNL     1       3.203  24.542   1.196  1.00  0.00     0.217 HD
ENDBRANCH   2  13
BRANCH   8  15
HETATM   15  C19 UNL     1      -0.183  20.439   2.837  1.00  0.00     0.058 C
HETATM   16  C20 UNL     1       0.669  19.288   3.254  1.00  0.00     0.037 C
HETATM   17  C21 UNL     1      -0.329  20.264   1.264  1.00  0.00     0.037 C
HETATM   18 CL4  UNL     1      -1.866  20.044   3.219  1.00  0.00    -0.115 Cl
ENDBRANCH   8  15
BRANCH   1  19
HETATM   19  C10 UNL     1       1.905  21.535   1.031  1.00  0.00     0.074 C
BRANCH  19  20
HETATM   20  N3  UNL     1       3.164  20.996   1.516  1.00  0.00    -0.289 NA
HETATM   21  C9  UNL     1       3.259  19.692   0.784  1.00  0.00     0.114 C
HETATM   22  C8  UNL     1       4.317  18.837   1.462  1.00  0.00     0.138 C
HETATM   23  N2  UNL     1       5.464  19.615   1.790  1.00  0.00    -0.376 N
HETATM   24  C23 UNL     1       5.583  21.044   1.699  1.00  0.00     0.138 C
HETATM   25  C22 UNL     1       4.360  21.673   1.134  1.00  0.00     0.114 C
BRANCH  23  26
HETATM   26  C7  UNL     1       6.640  18.917   2.265  1.00  0.00     0.066 A
HETATM   27  C5  UNL     1       7.575  18.448   1.384  1.00  0.00     0.094 A
HETATM   28  C4  UNL     1       8.678  17.778   1.873  1.00  0.00     0.041 A
HETATM   29  C3  UNL     1       8.880  17.559   3.218  1.00  0.00     0.032 A
HETATM   30  C2  UNL     1       7.915  18.046   4.075  1.00  0.00     0.029 A
HETATM   31  C24 UNL     1       6.806  18.717   3.615  1.00  0.00     0.061 A
BRANCH  27  32
HETATM   32  O1  UNL     1       7.406  18.654   0.008  1.00  0.00    -0.354 OA
HETATM   33  C6  UNL     1       8.509  18.709  -0.851  1.00  0.00     0.210 C
ENDBRANCH  27  32
BRANCH  30  34
HETATM   34  N1  UNL     1       8.099  17.832   5.471  1.00  0.00    -0.394 N
HETATM   35  C1  UNL     1       7.384  16.781   6.161  1.00  0.00     0.146 C
ATOM     36  H1  UNL     1       8.743  18.427   5.991  1.00  0.00     0.159 HD
ENDBRANCH  30  34
ENDBRANCH  23  26
ENDBRANCH  19  20
ENDBRANCH   1  19
TORSDOF 8
ENDMDL