MODEL 5
REMARK VINA RESULT: -7.566829147      4.336      8.539
REMARK  7 active torsions:
REMARK  status: ('A' for Active; 'I' for Inactive)
REMARK    1  A    between atoms: N2_8  and  C5_9
REMARK    2  A    between atoms: C8_12  and  N3_13
REMARK    3  A    between atoms: C9_14  and  N4_15
REMARK    4  A    between atoms: N4_15  and  C10_17
REMARK    5  A    between atoms: C13_20  and  C14_21
REMARK    6  A    between atoms: C14_21  and  N5_22
REMARK    7  A    between atoms: C21_31  and  C22_32
ROOT
HETATM    1  N3  UNL     1      -0.892  23.876   5.578  1.00  0.00    -0.176 N
HETATM    2  C9  UNL     1      -0.149  24.202   4.533  1.00  0.00     0.686 A
HETATM    3  N6  UNL     1      -0.590  25.380   4.034  1.00  0.00    -0.188 N
ATOM      4  H6  UNL     1      -0.202  25.870   3.229  1.00  0.00     0.184 HD
HETATM    5  C23 UNL     1      -1.622  25.794   4.778  1.00  0.00     0.092 A
HETATM    6  C24 UNL     1      -2.409  26.921   4.682  1.00  0.00     0.119 A
HETATM    7  N7  UNL     1      -3.413  27.126   5.568  1.00  0.00    -0.373 N
ATOM      8  H7  UNL     1      -4.003  27.956   5.508  1.00  0.00     0.164 HD
HETATM    9  C25 UNL     1      -3.611  26.212   6.521  1.00  0.00     0.090 A
HETATM   10  C26 UNL     1      -2.845  25.066   6.654  1.00  0.00     0.049 A
HETATM   11  C27 UNL     1      -1.820  24.855   5.751  1.00  0.00     0.082 A
ENDROOT
BRANCH   2  12
HETATM   12  N4  UNL     1       0.837  23.526   4.052  1.00  0.00    -0.191 N
ATOM     13  H4  UNL     1       1.693  23.452   4.602  1.00  0.00     0.184 HD
BRANCH  12  14
HETATM   14  C10 UNL     1       0.783  22.878   2.786  1.00  0.00     0.060 A
HETATM   15  C11 UNL     1       0.023  21.739   2.615  1.00  0.00     0.031 A
HETATM   16  C12 UNL     1      -0.053  21.087   1.405  1.00  0.00     0.011 A
HETATM   17  C13 UNL     1       0.643  21.553   0.288  1.00  0.00    -0.029 A
HETATM   18  C20 UNL     1       1.400  22.692   0.468  1.00  0.00     0.023 A
HETATM   19  C21 UNL     1       1.473  23.344   1.688  1.00  0.00     0.033 A
BRANCH  17  20
HETATM   20  C14 UNL     1       0.566  20.845  -1.016  1.00  0.00     0.311 C
BRANCH  20  21
HETATM   21  N5  UNL     1      -0.774  20.297  -1.124  1.00  0.00     0.093 N
HETATM   22  C15 UNL     1      -1.616  21.128  -1.966  1.00  0.00     0.278 C
HETATM   23  C16 UNL     1      -2.976  20.462  -2.016  1.00  0.00     0.109 C
HETATM   24  C17 UNL     1      -2.809  19.281  -2.971  1.00  0.00     0.246 C
HETATM   25  F1  UNL     1      -3.136  19.677  -4.233  1.00  0.00    -0.206 F
HETATM   26  F2  UNL     1      -3.632  18.262  -2.576  1.00  0.00    -0.206 F
HETATM   27  C18 UNL     1      -1.373  18.796  -2.971  1.00  0.00     0.109 C
HETATM   28  C19 UNL     1      -0.748  18.925  -1.596  1.00  0.00     0.278 C
ENDBRANCH  20  21
ENDBRANCH  17  20
BRANCH  19  29
HETATM   29  C22 UNL     1       2.303  24.565   1.828  1.00  0.00     0.389 C
HETATM   30  F3  UNL     1       1.525  25.659   1.468  1.00  0.00    -0.209 F
HETATM   31  F4  UNL     1       3.390  24.535   0.974  1.00  0.00    -0.209 F
ENDBRANCH  19  29
ENDBRANCH  12  14
ENDBRANCH   2  12
BRANCH   1  32
HETATM   32  C8  UNL     1      -0.787  22.722   6.409  1.00  0.00     0.108 C
HETATM   33  C7  UNL     1      -1.578  21.547   5.884  1.00  0.00     0.028 C
HETATM   34  C6  UNL     1      -1.637  20.448   6.913  1.00  0.00     0.027 C
HETATM   35  C5  UNL     1      -0.278  20.071   7.452  1.00  0.00     0.086 C
HETATM   36  C29 UNL     1       0.613  21.232   7.716  1.00  0.00     0.027 C
HETATM   37  C28 UNL     1       0.652  22.232   6.569  1.00  0.00     0.028 C
BRANCH  35  38
HETATM   38  N2  UNL     1      -0.494  19.348   8.683  1.00  0.00    -0.360 N
HETATM   39  C1  UNL     1       0.352  18.413   9.338  1.00  0.00     0.097 A
HETATM   40  N1  UNL     1       1.508  18.071   8.871  1.00  0.00    -0.386 N
HETATM   41  C2  UNL     1      -0.283  17.934  10.559  1.00  0.00     0.045 A
ATOM     42  H12 UNL     1       2.116  17.400   9.341  1.00  0.00     0.157 HD
ATOM     43  H11 UNL     1       1.953  18.406   8.016  1.00  0.00     0.157 HD
HETATM   44  C3  UNL     1      -1.447  18.544  10.642  1.00  0.00    -0.003 A
HETATM   45  C4  UNL     1      -1.675  19.456   9.507  1.00  0.00     0.152 A
ENDBRANCH  35  38
ENDBRANCH   1  32
TORSDOF 7
ENDMDL