MODEL 4
REMARK VINA RESULT: -6.178338844      7.923     11.065
REMARK  10 active torsions:
REMARK  status: ('A' for Active; 'I' for Inactive)
REMARK    1  A    between atoms: S1_2  and  C2_3
REMARK    2  A    between atoms: C2_3  and  N2_7
REMARK    3  A    between atoms: N2_7  and  C3_9
REMARK    4  A    between atoms: C3_9  and  C4_10
REMARK    5  A    between atoms: C4_10  and  C5_11
REMARK    6  A    between atoms: C9_16  and  C10_17
REMARK    7  A    between atoms: C10_17  and  N4_18
REMARK    8  A    between atoms: C18_27  and  C19_28
REMARK    9  A    between atoms: C19_28  and  C20_30
REMARK   10  A    between atoms: C20_30  and  C21_32
ROOT
HETATM    1  C5  UNL     1       7.659  18.965   4.172  1.00  0.00    -0.017 A
HETATM    2  C6  UNL     1       8.060  18.881   2.868  1.00  0.00     0.035 A
HETATM    3  C7  UNL     1       8.630  17.647   2.698  1.00  0.00     0.061 A
HETATM    4  N3  UNL     1       8.594  16.953   3.870  1.00  0.00    -0.351 N
HETATM    5  C8  UNL     1       9.098  15.591   3.974  1.00  0.00     0.156 C
HETATM    6  C9  UNL     1       8.010  17.745   4.765  1.00  0.00     0.047 A
HETATM    7  C16 UNL     1       8.871  18.004   1.298  1.00  0.00     0.029 A
HETATM    8  C17 UNL     1       9.258  17.970  -0.029  1.00  0.00     0.057 A
HETATM    9  C18 UNL     1       8.914  19.166  -0.597  1.00  0.00     0.117 A
HETATM   10  O2  UNL     1       8.334  19.920   0.336  1.00  0.00    -0.306 OA
HETATM   11  C22 UNL     1       8.297  19.247   1.475  1.00  0.00     0.102 A
ENDROOT
BRANCH   1  12
HETATM   12  C4  UNL     1       6.983  20.123   4.821  1.00  0.00     0.061 C
BRANCH  12  13
HETATM   13  C3  UNL     1       6.545  21.146   3.794  1.00  0.00     0.126 C
BRANCH  13  14
HETATM   14  N2  UNL     1       5.197  20.861   3.375  1.00  0.00    -0.371 N
ATOM     15  H2  UNL     1       4.587  20.352   4.014  1.00  0.00     0.161 HD
BRANCH  14  16
HETATM   16  C2  UNL     1       4.680  21.253   2.118  1.00  0.00     0.133 C
HETATM   17  N1  UNL     1       5.487  21.260   1.110  1.00  0.00    -0.380 N
ATOM     18  H12 UNL     1       5.115  21.543   0.204  1.00  0.00     0.158 HD
ATOM     19  H11 UNL     1       6.465  20.992   1.221  1.00  0.00     0.158 HD
BRANCH  16  20
HETATM   20  S1  UNL     1       2.967  21.723   1.925  1.00  0.00    -0.099 SA
HETATM   21  C1  UNL     1       2.798  23.339   1.167  1.00  0.00     0.099 C
ENDBRANCH  16  20
ENDBRANCH  14  16
ENDBRANCH  13  14
ENDBRANCH  12  13
ENDBRANCH   1  12
BRANCH   6  22
HETATM   22  C10 UNL     1       7.681  17.492   6.160  1.00  0.00     0.330 C
BRANCH  22  23
HETATM   23  N4  UNL     1       6.688  16.525   6.470  1.00  0.00     0.096 N
HETATM   24  C11 UNL     1       5.447  17.333   6.677  1.00  0.00     0.275 C
HETATM   25  C12 UNL     1       4.234  16.538   6.240  1.00  0.00     0.056 C
HETATM   26  C13 UNL     1       3.897  15.415   7.151  1.00  0.00     0.169 C
HETATM   27  O1  UNL     1       4.722  15.289   8.254  1.00  0.00    -0.389 OA
HETATM   28  C14 UNL     1       5.972  14.780   7.951  1.00  0.00     0.198 C
HETATM   29  C15 UNL     1       6.921  15.942   7.810  1.00  0.00     0.299 C
ENDBRANCH  22  23
ENDBRANCH   6  22
BRANCH   9  30
HETATM   30  C19 UNL     1       9.112  19.620  -1.975  1.00  0.00     0.172 C
HETATM   31  F1  UNL     1       9.164  20.976  -2.167  1.00  0.00    -0.202 F
BRANCH  30  32
HETATM   32  C20 UNL     1       9.233  18.781  -2.978  1.00  0.00     0.107 C
HETATM   33 CL1  UNL     1       7.773  17.959  -3.558  1.00  0.00    -0.081 Cl
BRANCH  32  34
HETATM   34  C21 UNL     1      10.477  18.435  -3.694  1.00  0.00     0.229 C
HETATM   35 CL2  UNL     1      10.215  16.971  -4.709  1.00  0.00    -0.077 Cl
HETATM   36 CL3  UNL     1      10.918  19.747  -4.831  1.00  0.00    -0.077 Cl
HETATM   37 CL4  UNL     1      11.826  18.183  -2.595  1.00  0.00    -0.077 Cl
ENDBRANCH  32  34
ENDBRANCH  30  32
ENDBRANCH   9  30
TORSDOF 10
ENDMDL