MODEL 3
REMARK VINA RESULT: -7.605091591      5.474      7.627
REMARK  7 active torsions:
REMARK  status: ('A' for Active; 'I' for Inactive)
REMARK    1  A    between atoms: C3_7  and  C4_8
REMARK       I    between atoms: C4_8  and  N3_10
REMARK    2  A    between atoms: N3_10  and  C5_12
REMARK    3  A    between atoms: C8_15  and  C9_16
REMARK    4  A    between atoms: C9_16  and  C10_17
REMARK    5  A    between atoms: C19_30  and  N6_31
REMARK    6  A    between atoms: N6_31  and  C20_32
REMARK    7  A    between atoms: C23_35  and  C24_36
ROOT
HETATM    1  C4  UNL     1       7.356  16.886  -1.391  1.00  0.00     0.273 C
HETATM    2  O1  UNL     1       6.144  16.941  -1.598  1.00  0.00    -0.266 OA
HETATM    3  N3  UNL     1       7.789  16.110  -0.284  1.00  0.00    -0.351 N
ATOM      4  H3  UNL     1       8.798  16.087  -0.138  1.00  0.00     0.163 HD
ENDROOT
BRANCH   1   5
HETATM    5  C3  UNL     1       8.296  17.597  -2.258  1.00  0.00     0.157 A
HETATM    6  N2  UNL     1       8.618  17.031  -3.446  1.00  0.00    -0.293 N
HETATM    7  N1  UNL     1       9.449  17.634  -4.242  1.00  0.00    -0.304 N
ATOM      8  H2  UNL     1       8.210  16.136  -3.713  1.00  0.00     0.187 HD
HETATM    9  C2  UNL     1       9.997  18.809  -3.913  1.00  0.00     0.031 A
ATOM     10  H1  UNL     1       9.687  17.202  -5.136  1.00  0.00     0.186 HD
HETATM   11  C1  UNL     1      10.953  19.459  -4.877  1.00  0.00     0.070 C
HETATM   12  C27 UNL     1       9.687  19.419  -2.702  1.00  0.00     0.004 A
HETATM   13  C19 UNL     1       8.794  18.806  -1.806  1.00  0.00     0.142 A
HETATM   14  C28 UNL     1      10.350  20.706  -2.452  1.00  0.00     0.054 C
BRANCH  13  15
HETATM   15  N6  UNL     1       8.523  19.328  -0.758  1.00  0.00    -0.440 NA
BRANCH  15  16
HETATM   16  C20 UNL     1       8.396  19.788   0.486  1.00  0.00     0.163 C
HETATM   17  C21 UNL     1       7.026  19.690   1.154  1.00  0.00     0.040 C
HETATM   18  C22 UNL     1       7.091  20.133   2.601  1.00  0.00     0.016 C
HETATM   19  C23 UNL     1       7.911  19.175   3.410  1.00  0.00     0.093 C
HETATM   20  C25 UNL     1       8.968  18.511   2.599  1.00  0.00     0.016 C
HETATM   21  C26 UNL     1       9.484  19.277   1.437  1.00  0.00     0.040 C
BRANCH  19  22
HETATM   22  C24 UNL     1       8.414  19.840   4.669  1.00  0.00     0.391 C
HETATM   23  F2  UNL     1       7.356  20.498   5.251  1.00  0.00    -0.171 F
HETATM   24  F3  UNL     1       8.835  18.877   5.596  1.00  0.00    -0.171 F
HETATM   25  F4  UNL     1       9.455  20.697   4.454  1.00  0.00    -0.171 F
ENDBRANCH  19  22
ENDBRANCH  15  16
ENDBRANCH  13  15
ENDBRANCH   1   5
BRANCH   3  26
HETATM   26  C5  UNL     1       7.034  15.368   0.645  1.00  0.00     0.084 C
HETATM   27  C6  UNL     1       7.804  14.203   1.253  1.00  0.00     0.025 C
HETATM   28  C7  UNL     1       8.427  14.640   2.593  1.00  0.00     0.006 C
HETATM   29  C8  UNL     1       7.374  14.772   3.644  1.00  0.00    -0.014 C
HETATM   30  C17 UNL     1       6.095  15.190   2.872  1.00  0.00     0.006 C
HETATM   31  C18 UNL     1       6.519  16.175   1.811  1.00  0.00     0.025 C
BRANCH  29  32
HETATM   32  C9  UNL     1       7.590  15.796   4.668  1.00  0.00     0.011 C
BRANCH  32  33
HETATM   33  C10 UNL     1       6.637  16.012   5.764  1.00  0.00     0.007 C
HETATM   34  C11 UNL     1       5.835  17.260   5.650  1.00  0.00     0.051 C
HETATM   35  C12 UNL     1       4.595  17.196   6.543  1.00  0.00     0.238 C
HETATM   36  F1  UNL     1       4.159  18.498   6.692  1.00  0.00    -0.241 F
HETATM   37  C13 UNL     1       4.997  16.569   7.821  1.00  0.00     0.117 A
HETATM   38  N4  UNL     1       4.195  16.432   8.920  1.00  0.00    -0.352 N
HETATM   39  N5  UNL     1       6.189  16.044   8.091  1.00  0.00    -0.343 N
HETATM   40  C14 UNL     1       4.859  15.827   9.890  1.00  0.00     0.106 A
ATOM     41  H4  UNL     1       3.228  16.750   8.982  1.00  0.00     0.166 HD
HETATM   42  C15 UNL     1       6.132  15.578   9.362  1.00  0.00     0.109 A
HETATM   43  C16 UNL     1       7.287  16.023   7.139  1.00  0.00     0.134 C
ENDBRANCH  32  33
ENDBRANCH  29  32
ENDBRANCH   3  26
TORSDOF 7
ENDMDL