MODEL 3
REMARK VINA RESULT: -6.145650300      5.239      8.645
REMARK  7 active torsions:
REMARK  status: ('A' for Active; 'I' for Inactive)
REMARK    1  A    between atoms: C4_5  and  N1_6
REMARK    2  A    between atoms: C5_7  and  C6_8
REMARK    3  A    between atoms: C6_8  and  N2_9
REMARK    4  A    between atoms: C6_8  and  C7_13
REMARK    5  A    between atoms: C10_16  and  C11_17
REMARK       I    between atoms: C11_17  and  N3_19
REMARK    6  A    between atoms: N3_19  and  C12_21
REMARK    7  A    between atoms: C19_29  and  C20_30
ROOT
HETATM    1  N1  UNL     1       7.995  18.315   3.751  1.00  0.00    -0.304 N
HETATM    2  C5  UNL     1       7.776  18.219   2.434  1.00  0.00     0.064 A
HETATM    3  C10 UNL     1       8.193  19.446   1.820  1.00  0.00     0.065 A
HETATM    4  C17 UNL     1       8.650  20.218   2.853  1.00  0.00    -0.012 A
HETATM    5  C18 UNL     1       9.224  21.601   2.688  1.00  0.00     0.052 C
HETATM    6  C19 UNL     1       8.532  19.540   4.041  1.00  0.00     0.131 A
ENDROOT
BRANCH   1   7
HETATM    7  C4  UNL     1       7.749  17.409   4.803  1.00  0.00     0.086 A
HETATM    8  C3  UNL     1       8.630  16.325   5.002  1.00  0.00     0.151 A
HETATM    9  C2  UNL     1       8.468  15.383   5.966  1.00  0.00     0.002 A
HETATM   10  F1  UNL     1       9.691  16.247   4.151  1.00  0.00    -0.203 F
HETATM   11  C1  UNL     1       9.470  14.292   6.070  1.00  0.00     0.053 C
HETATM   12  C24 UNL     1       7.410  15.443   6.815  1.00  0.00     0.065 A
HETATM   13  C23 UNL     1       6.523  16.468   6.670  1.00  0.00     0.064 A
HETATM   14 CL2  UNL     1       7.209  14.225   8.055  1.00  0.00    -0.082 Cl
HETATM   15  C21 UNL     1       6.685  17.444   5.677  1.00  0.00    -0.008 A
HETATM   16 CL1  UNL     1       5.156  16.557   7.751  1.00  0.00    -0.082 Cl
HETATM   17  C22 UNL     1       5.638  18.495   5.595  1.00  0.00     0.052 C
ENDBRANCH   1   7
BRANCH   2  18
HETATM   18  C6  UNL     1       7.099  17.217   1.624  1.00  0.00     0.237 C
BRANCH  18  19
HETATM   19  N2  UNL     1       5.717  17.011   1.994  1.00  0.00    -0.069 N
ATOM     20  H23 UNL     1       5.627  16.212   2.620  1.00  0.00     0.275 HD
ATOM     21  H22 UNL     1       5.396  17.753   2.617  1.00  0.00     0.275 HD
ATOM     22  H21 UNL     1       5.091  16.916   1.194  1.00  0.00     0.275 HD
ENDBRANCH  18  19
BRANCH  18  23
HETATM   23  C7  UNL     1       7.678  15.882   1.355  1.00  0.00     0.014 C
HETATM   24  C8  UNL     1       9.145  15.952   0.945  1.00  0.00     0.012 C
HETATM   25  C9  UNL     1       6.933  15.292   0.145  1.00  0.00     0.012 C
ENDBRANCH  18  23
ENDBRANCH   2  18
BRANCH   6  26
HETATM   26  C20 UNL     1       8.927  20.158   5.318  1.00  0.00     0.433 C
HETATM   27  F2  UNL     1       9.287  19.330   6.320  1.00  0.00    -0.165 F
HETATM   28  F3  UNL     1       7.896  20.966   5.755  1.00  0.00    -0.165 F
HETATM   29  F4  UNL     1      10.025  21.024   5.101  1.00  0.00    -0.165 F
ENDBRANCH   6  26
BRANCH   3  30
HETATM   30  C11 UNL     1       8.187  19.759   0.391  1.00  0.00     0.254 C
HETATM   31  O1  UNL     1       7.312  20.444  -0.198  1.00  0.00    -0.268 OA
HETATM   32  N3  UNL     1       9.229  19.283  -0.452  1.00  0.00    -0.350 N
ATOM     33  H3  UNL     1       9.978  18.735  -0.029  1.00  0.00     0.163 HD
BRANCH  32  34
HETATM   34  C12 UNL     1       9.287  19.534  -1.880  1.00  0.00     0.108 C
HETATM   35  C13 UNL     1       9.019  18.280  -2.675  1.00  0.00     0.029 C
HETATM   36  C14 UNL     1       9.506  18.418  -4.074  1.00  0.00     0.028 C
HETATM   37  C15 UNL     1      11.018  18.586  -4.035  1.00  0.00     0.167 C
HETATM   38  O2  UNL     1      11.420  18.969  -2.751  1.00  0.00    -0.389 OA
HETATM   39  C16 UNL     1      10.649  20.055  -2.294  1.00  0.00     0.192 C
ENDBRANCH  32  34
ENDBRANCH   3  30
TORSDOF 7
ENDMDL