MODEL 4
REMARK VINA RESULT: -7.238384342      1.459      2.395
REMARK  6 active torsions:
REMARK  status: ('A' for Active; 'I' for Inactive)
REMARK    1  A    between atoms: O1_2  and  C2_3
REMARK    2  A    between atoms: C5_7  and  N1_8
REMARK    3  A    between atoms: N1_8  and  S1_10
REMARK    4  A    between atoms: S1_10  and  C6_13
REMARK    5  A    between atoms: C8_17  and  N3_18
REMARK    6  A    between atoms: N3_18  and  C9_20
ROOT
HETATM    1  C6  UNL     1       5.967  19.829   2.049  1.00  0.00     0.097 A
HETATM    2  C7  UNL     1       5.917  21.165   2.379  1.00  0.00     0.115 A
HETATM    3  N2  UNL     1       4.887  21.953   1.945  1.00  0.00    -0.349 N
ATOM      4  H2  UNL     1       4.867  22.940   2.198  1.00  0.00     0.166 HD
HETATM    5  C8  UNL     1       3.904  21.443   1.189  1.00  0.00     0.127 A
HETATM    6  C15 UNL     1       3.928  20.110   0.844  1.00  0.00     0.079 A
HETATM    7 CL4  UNL     1       2.625  19.486  -0.143  1.00  0.00    -0.080 Cl
HETATM    8  C16 UNL     1       4.974  19.277   1.276  1.00  0.00     0.054 A
ENDROOT
BRANCH   1   9
HETATM    9  S1  UNL     1       7.287  18.802   2.601  1.00  0.00     0.264 S
HETATM   10  O2  UNL     1       6.755  17.839   3.611  1.00  0.00    -0.200 OA
HETATM   11  O3  UNL     1       8.320  19.651   3.327  1.00  0.00    -0.200 OA
BRANCH   9  12
HETATM   12  N1  UNL     1       8.065  18.068   1.280  1.00  0.00    -0.279 N
ATOM     13  H1  UNL     1       8.193  17.056   1.298  1.00  0.00     0.179 HD
BRANCH  12  14
HETATM   14  C5  UNL     1       8.542  18.781   0.162  1.00  0.00     0.066 A
HETATM   15  C4  UNL     1       8.315  18.256  -1.123  1.00  0.00     0.064 A
HETATM   16  C3  UNL     1       8.748  18.923  -2.244  1.00  0.00     0.064 A
HETATM   17 CL1  UNL     1       7.456  16.711  -1.249  1.00  0.00    -0.082 Cl
HETATM   18  C2  UNL     1       9.417  20.123  -2.190  1.00  0.00     0.091 A
HETATM   19  C18 UNL     1       9.641  20.640  -0.934  1.00  0.00     0.069 A
HETATM   20  C17 UNL     1       9.209  19.977   0.219  1.00  0.00     0.058 A
HETATM   21 CL5  UNL     1      10.495  22.173  -0.813  1.00  0.00    -0.081 Cl
BRANCH  18  22
HETATM   22  O1  UNL     1       9.828  20.748  -3.354  1.00  0.00    -0.354 OA
HETATM   23  C1  UNL     1      10.658  20.048  -4.260  1.00  0.00     0.210 C
ENDBRANCH  18  22
ENDBRANCH  12  14
ENDBRANCH   9  12
ENDBRANCH   1   9
BRANCH   5  24
HETATM   24  N3  UNL     1       2.950  22.177   0.787  1.00  0.00    -0.339 N
ATOM     25  H3  UNL     1       2.772  22.184  -0.217  1.00  0.00     0.167 HD
BRANCH  24  26
HETATM   26  C9  UNL     1       2.117  22.976   1.578  1.00  0.00     0.074 A
HETATM   27  C10 UNL     1       1.060  22.425   2.275  1.00  0.00     0.058 A
HETATM   28  C11 UNL     1       0.231  23.193   3.056  1.00  0.00     0.058 A
HETATM   29 CL2  UNL     1      -1.107  22.434   3.927  1.00  0.00    -0.082 Cl
HETATM   30  C12 UNL     1       0.459  24.557   3.150  1.00  0.00     0.058 A
HETATM   31 CL3  UNL     1      -0.591  25.570   4.151  1.00  0.00    -0.082 Cl
HETATM   32  C13 UNL     1       1.510  25.127   2.464  1.00  0.00     0.070 A
HETATM   33  C14 UNL     1       2.329  24.340   1.685  1.00  0.00     0.144 A
HETATM   34  F1  UNL     1       3.355  24.956   1.025  1.00  0.00    -0.204 F
ENDBRANCH  24  26
ENDBRANCH   5  24
TORSDOF 6
ENDMDL