MODEL 5
REMARK VINA RESULT: -6.604481820      2.536      3.533
REMARK  7 active torsions:
REMARK  status: ('A' for Active; 'I' for Inactive)
REMARK    1  A    between atoms: C3_3  and  N1_4
REMARK       I    between atoms: N1_4  and  C4_6
REMARK       I    between atoms: C4_6  and  N2_8
REMARK    2  A    between atoms: N2_8  and  C5_9
REMARK    3  A    between atoms: N2_8  and  C7_13
REMARK    4  A    between atoms: C5_9  and  C6_10
REMARK    5  A    between atoms: N3_18  and  O2_19
REMARK    6  A    between atoms: C18_28  and  N4_29
REMARK    7  A    between atoms: C21_32  and  C22_33
ROOT
HETATM    1  N1  UNL     1       8.185  20.047   1.507  1.00  0.00    -0.308 N
ATOM      2  H1  UNL     1       8.721  20.909   1.609  1.00  0.00     0.170 HD
HETATM    3  C4  UNL     1       8.452  19.323   0.360  1.00  0.00     0.323 C
HETATM    4  O1  UNL     1       7.831  18.242   0.153  1.00  0.00    -0.247 OA
HETATM    5  N2  UNL     1       9.425  19.719  -0.662  1.00  0.00    -0.322 N
ENDROOT
BRANCH   1   6
HETATM    6  C3  UNL     1       7.286  19.775   2.557  1.00  0.00     0.044 A
HETATM    7  C2  UNL     1       5.933  20.181   2.389  1.00  0.00    -0.007 A
HETATM    8  C1  UNL     1       5.513  20.864   1.141  1.00  0.00     0.053 C
HETATM    9  C18 UNL     1       4.969  19.971   3.338  1.00  0.00     0.060 A
HETATM   10  C17 UNL     1       5.359  19.341   4.490  1.00  0.00     0.061 A
HETATM   11  C16 UNL     1       6.660  18.933   4.691  1.00  0.00     0.028 A
HETATM   12 CL1  UNL     1       4.239  18.994   5.780  1.00  0.00    -0.082 Cl
HETATM   13  C15 UNL     1       7.620  19.153   3.722  1.00  0.00     0.032 A
BRANCH   9  14
HETATM   14  N4  UNL     1       3.610  20.363   3.170  1.00  0.00    -0.379 N
HETATM   15  C19 UNL     1       3.103  21.623   3.652  1.00  0.00     0.123 C
HETATM   16  C20 UNL     1       2.232  22.372   2.695  1.00  0.00     0.033 C
HETATM   17  C21 UNL     1       1.379  21.515   1.826  1.00  0.00     0.096 C
HETATM   18  C23 UNL     1       1.952  20.194   1.470  1.00  0.00     0.033 C
HETATM   19  C24 UNL     1       2.686  19.464   2.525  1.00  0.00     0.123 C
BRANCH  17  20
HETATM   20  C22 UNL     1       1.032  22.245   0.548  1.00  0.00     0.391 C
HETATM   21  F3  UNL     1      -0.265  21.999   0.148  1.00  0.00    -0.171 F
HETATM   22  F4  UNL     1       1.946  21.841  -0.409  1.00  0.00    -0.171 F
HETATM   23  F5  UNL     1       1.214  23.593   0.756  1.00  0.00    -0.171 F
ENDBRANCH  17  20
ENDBRANCH   9  14
ENDBRANCH   1   6
BRANCH   5  24
HETATM   24  C5  UNL     1      10.134  20.926  -0.399  1.00  0.00     0.199 C
BRANCH  24  25
HETATM   25  C6  UNL     1      10.250  21.885  -1.551  1.00  0.00     0.370 C
HETATM   26  F1  UNL     1       8.975  22.374  -1.887  1.00  0.00    -0.213 F
HETATM   27  F2  UNL     1      11.104  22.919  -1.388  1.00  0.00    -0.213 F
ENDBRANCH  24  25
ENDBRANCH   5  24
BRANCH   5  28
HETATM   28  C7  UNL     1       9.564  18.853  -1.764  1.00  0.00     0.115 C
HETATM   29  C8  UNL     1       9.420  19.355  -3.145  1.00  0.00     0.054 C
HETATM   30  C9  UNL     1       9.622  18.021  -3.910  1.00  0.00     0.034 C
HETATM   31  C10 UNL     1       8.245  17.472  -4.145  1.00  0.00     0.034 C
HETATM   32  C11 UNL     1      10.275  18.252  -5.234  1.00  0.00     0.034 C
HETATM   33  N3  UNL     1      10.418  17.199  -3.024  1.00  0.00    -0.180 NA
HETATM   34  C12 UNL     1      10.803  18.019  -1.881  1.00  0.00     0.052 C
HETATM   35  C13 UNL     1      10.909  17.130  -0.658  1.00  0.00     0.036 C
HETATM   36  C14 UNL     1      12.063  18.694  -2.235  1.00  0.00     0.036 C
BRANCH  33  37
HETATM   37  O2  UNL     1       9.763  16.080  -2.630  1.00  0.00    -0.311 OA
ATOM     38  H2  UNL     1      10.337  15.326  -2.569  1.00  0.00     0.237 HD
ENDBRANCH  33  37
ENDBRANCH   5  28
TORSDOF 7
ENDMDL