MODEL 2
REMARK VINA RESULT: -6.949533622      1.073      1.474
REMARK  6 active torsions:
REMARK  status: ('A' for Active; 'I' for Inactive)
REMARK    1  A    between atoms: C2_2  and  C3_3
REMARK    2  A    between atoms: C2_2  and  C8_12
REMARK    3  A    between atoms: C8_12  and  C9_14
REMARK    4  A    between atoms: C8_12  and  C24_35
REMARK    5  A    between atoms: C13_19  and  N2_20
REMARK       I    between atoms: N2_20  and  C14_22
REMARK    6  A    between atoms: C14_22  and  C15_24
ROOT
HETATM    1  C9  UNL     1       9.224  19.404  -0.457  1.00  0.00    -0.023 A
HETATM    2  C10 UNL     1       9.825  18.479   0.365  1.00  0.00     0.011 A
HETATM    3  C11 UNL     1       9.195  18.052   1.508  1.00  0.00     0.027 A
HETATM    4  C12 UNL     1       7.967  18.529   1.857  1.00  0.00     0.060 A
HETATM    5 CL2  UNL     1       7.154  17.981   3.326  1.00  0.00    -0.082 Cl
HETATM    6  C13 UNL     1       7.299  19.480   1.057  1.00  0.00     0.057 A
HETATM    7  C23 UNL     1       7.974  19.865  -0.069  1.00  0.00     0.040 A
ENDROOT
BRANCH   1   8
HETATM    8  C8  UNL     1       9.941  19.913  -1.669  1.00  0.00     0.166 C
HETATM    9 CL1  UNL     1      11.682  19.373  -1.492  1.00  0.00    -0.104 Cl
BRANCH   8  10
HETATM   10  C2  UNL     1       9.506  19.454  -2.974  1.00  0.00     0.049 C
HETATM   11  C1  UNL     1      10.438  19.723  -4.111  1.00  0.00     0.015 C
BRANCH  10  12
HETATM   12  C3  UNL     1       9.003  18.023  -3.109  1.00  0.00     0.192 C
HETATM   13  C4  UNL     1       7.490  18.059  -3.353  1.00  0.00     0.036 C
HETATM   14  C5  UNL     1       7.051  17.862  -4.752  1.00  0.00     0.041 C
HETATM   15  C6  UNL     1       7.689  16.720  -5.489  1.00  0.00     0.195 C
HETATM   16  F1  UNL     1       6.831  15.669  -5.750  1.00  0.00    -0.248 F
HETATM   17  C7  UNL     1       8.831  16.202  -4.655  1.00  0.00     0.269 C
HETATM   18  N1  UNL     1       9.647  17.337  -4.216  1.00  0.00    -0.068 N
ATOM     19  H12 UNL     1       9.860  17.972  -4.985  1.00  0.00     0.277 HD
ATOM     20  H11 UNL     1      10.599  17.054  -3.985  1.00  0.00     0.277 HD
ENDBRANCH  10  12
ENDBRANCH   8  10
BRANCH   8  21
HETATM   21  C24 UNL     1      10.061  21.438  -1.564  1.00  0.00     0.413 C
HETATM   22  F2  UNL     1      10.194  21.795  -0.209  1.00  0.00    -0.169 F
HETATM   23  F3  UNL     1       9.120  22.153  -2.164  1.00  0.00    -0.169 F
HETATM   24  F4  UNL     1      11.322  21.873  -2.053  1.00  0.00    -0.169 F
ENDBRANCH   8  21
ENDBRANCH   1   8
BRANCH   6  25
HETATM   25  N2  UNL     1       6.074  19.996   1.511  1.00  0.00    -0.325 N
HETATM   26  C14 UNL     1       5.820  21.002   2.443  1.00  0.00     0.226 C
HETATM   27  O1  UNL     1       6.750  21.623   3.002  1.00  0.00    -0.273 OA
ATOM     28  H2  UNL     1       5.245  19.570   1.097  1.00  0.00     0.169 HD
BRANCH  26  29
HETATM   29  C15 UNL     1       4.453  21.399   2.834  1.00  0.00     0.078 C
HETATM   30  C16 UNL     1       3.736  21.978   1.640  1.00  0.00     0.019 C
HETATM   31  C17 UNL     1       2.545  22.761   2.157  1.00  0.00     0.069 C
HETATM   32  C18 UNL     1       1.755  22.096   3.217  1.00  0.00     0.164 C
HETATM   33  C19 UNL     1       2.409  21.066   4.053  1.00  0.00     0.069 C
HETATM   34  O2  UNL     1       1.294  23.113   4.065  1.00  0.00    -0.353 OA
HETATM   35  O3  UNL     1       0.635  21.526   2.610  1.00  0.00    -0.353 OA
HETATM   36  C20 UNL     1       3.577  20.332   3.388  1.00  0.00     0.019 C
HETATM   37  C21 UNL     1      -0.059  23.200   3.953  1.00  0.00     0.197 C
HETATM   38  C22 UNL     1      -0.431  22.373   2.758  1.00  0.00     0.197 C
ENDBRANCH  26  29
ENDBRANCH   6  25
TORSDOF 6
ENDMDL