MODEL 5
REMARK VINA RESULT: -7.601053878      0.994      1.272
REMARK  5 active torsions:
REMARK  status: ('A' for Active; 'I' for Inactive)
REMARK    1  A    between atoms: C4_6  and  O1_7
REMARK    2  A    between atoms: O1_7  and  C5_8
REMARK    3  A    between atoms: C7_10  and  C8_11
REMARK    4  A    between atoms: N3_21  and  C14_23
REMARK    5  A    between atoms: C14_23  and  C15_24
ROOT
HETATM    1  C5  UNL     1       2.200  23.287   1.797  1.00  0.00     0.081 A
HETATM    2  C6  UNL     1       1.263  22.866   0.861  1.00  0.00     0.062 A
HETATM    3  C7  UNL     1       1.521  21.775   0.065  1.00  0.00     0.018 A
HETATM    4  N2  UNL     1       2.677  21.099   0.176  1.00  0.00    -0.346 N
ATOM      5  H2  UNL     1       2.846  20.292  -0.425  1.00  0.00     0.167 HD
HETATM    6  C13 UNL     1       3.628  21.472   1.077  1.00  0.00     0.104 A
HETATM    7  N3  UNL     1       4.702  20.764   1.110  1.00  0.00    -0.372 N
ATOM      8  H3  UNL     1       4.836  19.963   0.494  1.00  0.00     0.161 HD
HETATM    9  C19 UNL     1       3.373  22.564   1.876  1.00  0.00     0.085 A
ENDROOT
BRANCH   7  10
HETATM   10  C14 UNL     1       5.716  21.168   2.077  1.00  0.00     0.159 C
BRANCH  10  11
HETATM   11  C15 UNL     1       6.564  20.021   2.487  1.00  0.00    -0.015 C
HETATM   12  C16 UNL     1       6.349  19.209   3.507  1.00  0.00     0.083 C
HETATM   13 CL2  UNL     1       4.991  19.310   4.625  1.00  0.00    -0.083 Cl
HETATM   14  C17 UNL     1       7.442  18.223   3.533  1.00  0.00     0.256 C
HETATM   15 CL3  UNL     1       6.791  16.625   3.040  1.00  0.00    -0.064 Cl
HETATM   16 CL4  UNL     1       8.079  18.127   5.208  1.00  0.00    -0.064 Cl
HETATM   17  O2  UNL     1       8.407  18.678   2.670  1.00  0.00    -0.343 OA
HETATM   18  C18 UNL     1       7.798  19.593   1.815  1.00  0.00     0.209 C
ENDBRANCH  10  11
ENDBRANCH   7  10
BRANCH   3  19
HETATM   19  C8  UNL     1       0.520  21.333  -0.928  1.00  0.00     0.045 C
HETATM   20  C9  UNL     1      -0.823  21.058  -0.290  1.00  0.00     0.055 C
HETATM   21  C10 UNL     1      -1.659  20.428  -1.380  1.00  0.00     0.061 C
HETATM   22  N1  UNL     1      -1.801  21.190  -2.550  1.00  0.00    -0.382 N
HETATM   23  C11 UNL     1      -0.855  22.173  -2.860  1.00  0.00     0.061 C
ATOM     24  H1  UNL     1      -2.592  21.027  -3.173  1.00  0.00     0.163 HD
HETATM   25  C12 UNL     1       0.315  22.355  -1.997  1.00  0.00     0.055 C
ENDBRANCH   3  19
BRANCH   1  26
HETATM   26  O1  UNL     1       2.027  24.367   2.633  1.00  0.00    -0.307 OA
BRANCH  26  27
HETATM   27  C4  UNL     1       0.848  24.625   3.315  1.00  0.00     0.119 A
HETATM   28  C3  UNL     1       0.371  23.763   4.277  1.00  0.00     0.072 A
HETATM   29  C2  UNL     1      -0.805  24.048   4.937  1.00  0.00     0.069 A
HETATM   30 CL1  UNL     1       1.290  22.297   4.640  1.00  0.00    -0.081 Cl
HETATM   31  C1  UNL     1      -1.530  25.188   4.662  1.00  0.00     0.119 A
HETATM   32  F1  UNL     1      -2.681  25.431   5.333  1.00  0.00    -0.206 F
HETATM   33  C21 UNL     1      -1.028  26.029   3.699  1.00  0.00     0.069 A
HETATM   34  C20 UNL     1       0.147  25.772   3.018  1.00  0.00     0.072 A
HETATM   35 CL5  UNL     1       0.734  26.903   1.787  1.00  0.00    -0.081 Cl
ENDBRANCH  26  27
ENDBRANCH   1  26
TORSDOF 5
ENDMDL