MODEL 4
REMARK VINA RESULT: -6.236736704      3.870      5.661
REMARK  8 active torsions:
REMARK  status: ('A' for Active; 'I' for Inactive)
REMARK    1  A    between atoms: O1_2  and  C2_3
REMARK    2  A    between atoms: C4_6  and  O2_7
REMARK    3  A    between atoms: C8_12  and  C9_13
REMARK    4  A    between atoms: C14_20  and  O3_21
REMARK    5  A    between atoms: O3_21  and  C15_22
REMARK    6  A    between atoms: C15_22  and  C16_24
REMARK    7  A    between atoms: C16_24  and  C17_25
REMARK    8  A    between atoms: C17_25  and  C18_26
ROOT
HETATM    1  C9  UNL     1       2.414  20.129   1.120  1.00  0.00     0.007 C
HETATM    2  C10 UNL     1       2.528  19.270  -0.102  1.00  0.00     0.008 C
HETATM    3  C11 UNL     1       1.483  19.934  -1.012  1.00  0.00     0.030 C
HETATM    4  C12 UNL     1       0.360  20.197  -0.062  1.00  0.00     0.080 A
HETATM    5 CL1  UNL     1      -0.942  19.018  -0.285  1.00  0.00    -0.115 Cl
HETATM    6  C13 UNL     1      -0.087  21.634   0.048  1.00  0.00     0.224 A
HETATM    7  F1  UNL     1       0.621  22.408  -0.853  1.00  0.00    -0.245 F
HETATM    8  C14 UNL     1       0.412  21.652   1.458  1.00  0.00     0.178 A
HETATM    9  C19 UNL     1       0.925  20.268   1.338  1.00  0.00     0.014 A
HETATM   10  C20 UNL     1       0.308  19.212   2.207  1.00  0.00     0.020 C
ENDROOT
BRANCH   1  11
HETATM   11  C8  UNL     1       3.125  19.572   2.318  1.00  0.00     0.027 C
HETATM   12  C7  UNL     1       4.595  19.700   2.174  1.00  0.00    -0.012 A
HETATM   13  C2  UNL     1       5.588  18.908   1.627  1.00  0.00     0.095 A
HETATM   14  C6  UNL     1       4.976  20.903   2.732  1.00  0.00    -0.046 A
HETATM   15  C3  UNL     1       6.900  19.313   1.644  1.00  0.00     0.077 A
HETATM   16 BR1  UNL     1       8.277  18.230   0.892  1.00  0.00    -0.045 Br
HETATM   17  C4  UNL     1       7.282  20.516   2.202  1.00  0.00     0.086 A
HETATM   18  C5  UNL     1       6.296  21.305   2.747  1.00  0.00     0.045 A
HETATM   19  C22 UNL     1       3.770  21.611   3.272  1.00  0.00     0.040 C
HETATM   20  C21 UNL     1       2.850  20.439   3.529  1.00  0.00     0.014 C
BRANCH  13  21
HETATM   21  O1  UNL     1       5.248  17.691   1.056  1.00  0.00    -0.354 OA
HETATM   22  C1  UNL     1       5.042  16.514   1.811  1.00  0.00     0.210 C
ENDBRANCH  13  21
BRANCH  17  23
HETATM   23  O2  UNL     1       8.618  20.901   2.205  1.00  0.00    -0.359 OA
ATOM     24  H2  UNL     1       9.024  21.232   2.998  1.00  0.00     0.217 HD
ENDBRANCH  17  23
ENDBRANCH   1  11
BRANCH   8  25
HETATM   25  O3  UNL     1      -0.482  21.954   2.476  1.00  0.00    -0.312 OA
BRANCH  25  26
HETATM   26  C15 UNL     1      -0.391  23.013   3.338  1.00  0.00     0.259 C
HETATM   27  O4  UNL     1      -1.481  23.299   3.896  1.00  0.00    -0.265 OA
BRANCH  26  28
HETATM   28  C16 UNL     1       0.851  23.773   3.610  1.00  0.00     0.120 C
BRANCH  28  29
HETATM   29  C17 UNL     1       0.554  25.236   3.372  1.00  0.00     0.127 C
BRANCH  29  30
HETATM   30  C18 UNL     1       1.393  25.799   2.245  1.00  0.00     0.388 C
HETATM   31  F2  UNL     1       1.664  24.853   1.285  1.00  0.00    -0.171 F
HETATM   32  F3  UNL     1       0.786  26.886   1.667  1.00  0.00    -0.171 F
HETATM   33  F4  UNL     1       2.601  26.204   2.772  1.00  0.00    -0.171 F
ENDBRANCH  29  30
ENDBRANCH  28  29
ENDBRANCH  26  28
ENDBRANCH  25  26
ENDBRANCH   8  25
TORSDOF 8
ENDMDL