MODEL 4
REMARK VINA RESULT: -5.766120736      3.051      5.066
REMARK  10 active torsions:
REMARK  status: ('A' for Active; 'I' for Inactive)
REMARK    1  A    between atoms: C2_2  and  O2_4
REMARK    2  A    between atoms: O2_4  and  C3_5
REMARK    3  A    between atoms: C3_5  and  C4_6
REMARK    4  A    between atoms: C3_5  and  C23_32
REMARK    5  A    between atoms: C4_6  and  C5_7
REMARK    6  A    between atoms: C6_8  and  O3_9
REMARK    7  A    between atoms: C6_8  and  C7_11
REMARK    8  A    between atoms: C7_11  and  O4_12
REMARK    9  A    between atoms: C7_11  and  C8_14
REMARK   10  A    between atoms: C15_23  and  C17_25
ROOT
HETATM    1  C5  UNL     1       8.822  18.214  -0.189  1.00  0.00    -0.035 C
HETATM    2  C6  UNL     1       8.782  16.702  -0.090  1.00  0.00     0.111 C
HETATM    3  C10 UNL     1       8.076  16.196   1.157  1.00  0.00     0.046 C
HETATM    4  C11 UNL     1       6.761  16.893   1.134  1.00  0.00     0.013 C
HETATM    5  C12 UNL     1       7.039  18.318   1.639  1.00  0.00    -0.032 C
HETATM    6  C13 UNL     1       5.668  18.926   1.452  1.00  0.00     0.016 C
HETATM    7  C14 UNL     1       7.182  18.096   3.120  1.00  0.00     0.023 C
HETATM    8  C15 UNL     1       7.602  19.245   3.964  1.00  0.00    -0.025 C
HETATM    9  C16 UNL     1       6.483  19.981   4.615  1.00  0.00     0.019 C
HETATM   10  C19 UNL     1       8.440  20.158   3.139  1.00  0.00     0.014 C
HETATM   11  C20 UNL     1       9.122  19.340   2.067  1.00  0.00     0.015 C
HETATM   12  C21 UNL     1       8.177  18.966   0.930  1.00  0.00    -0.010 C
HETATM   13  C22 UNL     1       7.642  20.284   0.401  1.00  0.00     0.021 C
ENDROOT
BRANCH   1  14
HETATM   14  C4  UNL     1      10.004  18.697  -0.898  1.00  0.00     0.021 C
BRANCH  14  15
HETATM   15  C3  UNL     1      10.229  19.129  -2.262  1.00  0.00     0.262 C
BRANCH  15  16
HETATM   16  O2  UNL     1      10.535  20.405  -2.678  1.00  0.00    -0.303 OA
BRANCH  16  17
HETATM   17  C2  UNL     1      10.058  21.589  -2.141  1.00  0.00     0.255 C
HETATM   18  C1  UNL     1      10.841  22.382  -1.188  1.00  0.00     0.126 C
HETATM   19  O1  UNL     1       8.915  21.975  -2.494  1.00  0.00    -0.266 OA
ENDBRANCH  16  17
ENDBRANCH  15  16
BRANCH  15  20
HETATM   20  C23 UNL     1      11.565  18.383  -2.766  1.00  0.00     0.417 C
HETATM   21  F1  UNL     1      12.005  18.956  -3.904  1.00  0.00    -0.168 F
HETATM   22  F2  UNL     1      11.267  17.056  -2.938  1.00  0.00    -0.168 F
HETATM   23  F3  UNL     1      12.461  18.613  -1.752  1.00  0.00    -0.168 F
ENDBRANCH  15  20
ENDBRANCH  14  15
ENDBRANCH   1  14
BRANCH   2  24
HETATM   24  O3  UNL     1       7.908  16.183  -1.104  1.00  0.00    -0.383 OA
ATOM     25  H3  UNL     1       7.309  15.558  -0.713  1.00  0.00     0.211 HD
ENDBRANCH   2  24
BRANCH   2  26
HETATM   26  C7  UNL     1      10.021  15.946  -0.213  1.00  0.00     0.195 C
BRANCH  26  27
HETATM   27  O4  UNL     1       9.808  14.713  -0.872  1.00  0.00    -0.389 OA
ATOM     28  H4  UNL     1      10.363  14.630  -1.639  1.00  0.00     0.210 HD
ENDBRANCH  26  27
BRANCH  26  29
HETATM   29  C8  UNL     1      10.829  15.584   0.965  1.00  0.00     0.138 C
HETATM   30  C9  UNL     1      12.225  15.138   0.403  1.00  0.00     0.053 C
HETATM   31 CL1  UNL     1      10.307  14.241   1.932  1.00  0.00    -0.099 Cl
HETATM   32 CL2  UNL     1      11.394  16.990   1.952  1.00  0.00    -0.099 Cl
ENDBRANCH  26  29
ENDBRANCH   2  26
BRANCH   8  33
HETATM   33  C17 UNL     1       8.444  18.699   5.100  1.00  0.00    -0.006 C
HETATM   34  C18 UNL     1       8.067  17.732   5.898  1.00  0.00     0.081 C
HETATM   35 CL3  UNL     1       6.553  16.887   5.823  1.00  0.00    -0.097 Cl
ENDBRANCH   8  33
TORSDOF 10
ENDMDL