MODEL 2
REMARK VINA RESULT: -8.284091662      0.104      1.755
REMARK  7 active torsions:
REMARK  status: ('A' for Active; 'I' for Inactive)
REMARK    1  A    between atoms: C5_6  and  N2_7
REMARK    2  A    between atoms: N2_7  and  C6_9
REMARK    3  A    between atoms: C7_12  and  O1_13
REMARK    4  A    between atoms: O1_13  and  C8_14
REMARK    5  A    between atoms: C8_14  and  C9_15
REMARK    6  A    between atoms: C17_28  and  O2_29
REMARK    7  A    between atoms: O2_29  and  C18_30
ROOT
HETATM    1  N1  UNL     1      -0.711  22.742  -3.250  1.00  0.00    -0.191 NA
HETATM    2  C1  UNL     1      -0.090  22.239  -2.421  1.00  0.00     0.099 C
HETATM    3  C2  UNL     1       0.667  21.612  -1.368  1.00  0.00     0.047 A
HETATM    4  C3  UNL     1       0.888  20.238  -1.390  1.00  0.00     0.025 A
HETATM    5  C4  UNL     1       1.607  19.595  -0.403  1.00  0.00     0.034 A
HETATM    6  C5  UNL     1       2.123  20.364   0.646  1.00  0.00     0.068 A
HETATM    7  C17 UNL     1       1.898  21.724   0.660  1.00  0.00     0.104 A
HETATM    8  C24 UNL     1       1.180  22.358  -0.328  1.00  0.00     0.062 A
ENDROOT
BRANCH   7   9
HETATM    9  O2  UNL     1       2.420  22.469   1.715  1.00  0.00    -0.302 OA
BRANCH   9  10
HETATM   10  C18 UNL     1       1.687  23.506   2.305  1.00  0.00     0.159 A
HETATM   11  C19 UNL     1       0.794  23.268   3.331  1.00  0.00     0.191 A
HETATM   12  F1  UNL     1       0.636  21.995   3.763  1.00  0.00    -0.200 F
HETATM   13  C20 UNL     1       0.067  24.284   3.920  1.00  0.00     0.160 A
HETATM   14  F2  UNL     1      -0.816  24.036   4.937  1.00  0.00    -0.203 F
HETATM   15  C21 UNL     1       0.215  25.590   3.493  1.00  0.00     0.091 A
HETATM   16  C22 UNL     1       1.106  25.827   2.470  1.00  0.00     0.160 A
HETATM   17  F3  UNL     1       1.260  27.123   2.038  1.00  0.00    -0.203 F
HETATM   18  C23 UNL     1       1.836  24.808   1.879  1.00  0.00     0.191 A
HETATM   19  F4  UNL     1       2.709  25.044   0.875  1.00  0.00    -0.200 F
ENDBRANCH   9  10
ENDBRANCH   7   9
BRANCH   6  20
HETATM   20  N2  UNL     1       2.859  19.755   1.671  1.00  0.00    -0.339 N
ATOM     21  H2  UNL     1       2.375  19.065   2.247  1.00  0.00     0.167 HD
BRANCH  20  22
HETATM   22  C6  UNL     1       4.099  19.994   1.949  1.00  0.00     0.130 A
HETATM   23  N3  UNL     1       5.043  20.063   1.000  1.00  0.00    -0.320 N
HETATM   24  C7  UNL     1       6.309  20.313   1.342  1.00  0.00     0.166 A
ATOM     25  H3  UNL     1       4.795  19.926   0.020  1.00  0.00     0.169 HD
HETATM   26  C14 UNL     1       6.639  20.498   2.659  1.00  0.00     0.086 A
HETATM   27 CL1  UNL     1       8.285  20.829   3.169  1.00  0.00    -0.080 Cl
HETATM   28  C15 UNL     1       5.677  20.431   3.667  1.00  0.00     0.056 A
HETATM   29  C16 UNL     1       4.400  20.173   3.271  1.00  0.00     0.080 A
HETATM   30 CL2  UNL     1       3.170  20.087   4.535  1.00  0.00    -0.080 Cl
BRANCH  24  31
HETATM   31  O1  UNL     1       7.318  20.394   0.397  1.00  0.00    -0.334 OA
BRANCH  31  32
HETATM   32  C8  UNL     1       7.910  19.193  -0.061  1.00  0.00     0.182 C
BRANCH  32  33
HETATM   33  C9  UNL     1       9.029  19.512  -1.035  1.00  0.00     0.013 C
HETATM   34  C10 UNL     1       9.019  20.958  -1.439  1.00  0.00     0.034 C
HETATM   35  C11 UNL     1      10.225  21.163  -2.358  1.00  0.00     0.232 C
HETATM   36  N4  UNL     1      10.042  20.341  -3.527  1.00  0.00    -0.075 N
HETATM   37  C12 UNL     1      10.132  18.952  -3.130  1.00  0.00     0.232 C
ATOM     38  H42 UNL     1       9.174  20.550  -4.021  1.00  0.00     0.277 HD
ATOM     39  H41 UNL     1      10.691  20.577  -4.278  1.00  0.00     0.277 HD
HETATM   40  C13 UNL     1       8.893  18.668  -2.283  1.00  0.00     0.034 C
ENDBRANCH  32  33
ENDBRANCH  31  32
ENDBRANCH  24  31
ENDBRANCH  20  22
ENDBRANCH   6  20
TORSDOF 7
ENDMDL