MODEL 5
REMARK VINA RESULT: -5.857414934      3.784      6.453
REMARK  8 active torsions:
REMARK  status: ('A' for Active; 'I' for Inactive)
REMARK    1  A    between atoms: C2_2  and  C5_5
REMARK    2  A    between atoms: C5_5  and  O1_6
REMARK    3  A    between atoms: O1_6  and  C6_7
REMARK       I    between atoms: C6_7  and  N1_9
REMARK    4  A    between atoms: N1_9  and  C7_10
REMARK    5  A    between atoms: N1_9  and  C13_19
REMARK    6  A    between atoms: C13_19  and  C14_20
REMARK    7  A    between atoms: C13_19  and  C15_23
REMARK    8  A    between atoms: C16_24  and  C17_25
ROOT
HETATM    1  C6  UNL     1       8.997  17.168   1.316  1.00  0.00     0.368 C
HETATM    2  O2  UNL     1      10.099  16.891   0.696  1.00  0.00    -0.238 OA
HETATM    3  N1  UNL     1       8.252  18.258   0.886  1.00  0.00    -0.276 N
ENDROOT
BRANCH   3   4
HETATM    4  C7  UNL     1       8.780  18.888  -0.333  1.00  0.00     0.044 A
HETATM    5  C8  UNL     1       9.367  20.111  -0.188  1.00  0.00     0.055 A
HETATM    6  C9  UNL     1       9.869  20.754  -1.315  1.00  0.00     0.062 A
HETATM    7 CL1  UNL     1      10.614  22.322  -1.080  1.00  0.00    -0.082 Cl
HETATM    8  C10 UNL     1       9.761  20.149  -2.542  1.00  0.00     0.089 A
HETATM    9  N2  UNL     1      10.277  20.833  -3.669  1.00  0.00    -0.099 NA
HETATM   10  C11 UNL     1       9.161  18.902  -2.690  1.00  0.00     0.062 A
HETATM   11 CL2  UNL     1       9.055  18.187  -4.280  1.00  0.00    -0.082 Cl
HETATM   12  C12 UNL     1       8.667  18.274  -1.550  1.00  0.00     0.055 A
ENDBRANCH   3   4
BRANCH   3  13
HETATM   13  C13 UNL     1       7.085  18.870   1.469  1.00  0.00     0.214 C
BRANCH  13  14
HETATM   14  C14 UNL     1       5.884  18.467   0.719  1.00  0.00     0.258 C
HETATM   15  N3  UNL     1       5.632  17.241   0.103  1.00  0.00    -0.060 NA
HETATM   16  O3  UNL     1       4.959  19.341   0.612  1.00  0.00    -0.274 OA
ENDBRANCH  13  14
BRANCH  13  17
HETATM   17  C15 UNL     1       7.028  18.546   2.923  1.00  0.00    -0.038 C
HETATM   18  C16 UNL     1       7.759  19.109   3.884  1.00  0.00    -0.003 C
HETATM   19  C19 UNL     1       7.437  18.429   5.200  1.00  0.00     0.066 C
HETATM   20  C20 UNL     1       6.071  17.913   5.009  1.00  0.00     0.041 C
HETATM   21  C21 UNL     1       5.045  18.977   5.247  1.00  0.00     0.033 C
HETATM   22 CL3  UNL     1       5.741  16.444   5.965  1.00  0.00    -0.119 Cl
HETATM   23  C22 UNL     1       6.097  17.551   3.516  1.00  0.00     0.062 C
BRANCH  18  24
HETATM   24  C17 UNL     1       8.784  20.154   3.872  1.00  0.00     0.264 C
HETATM   25  C18 UNL     1       9.227  20.415   5.302  1.00  0.00     0.095 C
HETATM   26  F1  UNL     1       8.073  21.347   3.537  1.00  0.00    -0.202 F
HETATM   27  F2  UNL     1       9.777  20.098   2.975  1.00  0.00    -0.202 F
ENDBRANCH  18  24
ENDBRANCH  13  17
ENDBRANCH   3  13
BRANCH   1  28
HETATM   28  O1  UNL     1       8.720  16.302   2.341  1.00  0.00    -0.303 OA
BRANCH  28  29
HETATM   29  C5  UNL     1       9.696  15.931   3.307  1.00  0.00     0.189 C
BRANCH  29  30
HETATM   30  C2  UNL     1       9.181  14.801   4.123  1.00  0.00    -0.029 C
HETATM   31  C1  UNL     1      10.126  13.599   4.025  1.00  0.00     0.016 C
HETATM   32  C3  UNL     1       7.813  14.375   3.722  1.00  0.00     0.016 C
HETATM   33  C4  UNL     1       9.132  15.149   5.608  1.00  0.00     0.016 C
ENDBRANCH  29  30
ENDBRANCH  28  29
ENDBRANCH   1  28
TORSDOF 8
ENDMDL