MODEL 3
REMARK VINA RESULT: -6.513372664      1.361      1.781
REMARK  5 active torsions:
REMARK  status: ('A' for Active; 'I' for Inactive)
REMARK    1  A    between atoms: O1_2  and  N1_3
REMARK    2  A    between atoms: C2_5  and  C4_7
REMARK    3  A    between atoms: C7_10  and  N2_11
REMARK    4  A    between atoms: N2_11  and  S1_13
REMARK    5  A    between atoms: S1_13  and  C8_16
ROOT
HETATM    1  N2  UNL     1       2.423  20.838   1.099  1.00  0.00    -0.279 N
ATOM      2  H2  UNL     1       2.842  19.910   1.165  1.00  0.00     0.179 HD
ENDROOT
BRANCH   1   3
HETATM    3  C7  UNL     1       1.347  20.946   0.213  1.00  0.00     0.060 A
HETATM    4  C6  UNL     1       1.241  21.869  -0.777  1.00  0.00     0.032 A
HETATM    5  C5  UNL     1       0.117  21.927  -1.612  1.00  0.00     0.016 A
HETATM    6  C4  UNL     1      -0.938  21.050  -1.471  1.00  0.00    -0.011 A
HETATM    7  C15 UNL     1      -0.825  20.105  -0.452  1.00  0.00     0.034 A
HETATM    8  C14 UNL     1       0.272  20.067   0.344  1.00  0.00     0.039 A
HETATM    9 BR1  UNL     1       0.372  18.753   1.719  1.00  0.00    -0.049 Br
BRANCH   6  10
HETATM   10  C2  UNL     1      -2.131  21.031  -2.279  1.00  0.00     0.038 C
HETATM   11  N1  UNL     1      -2.869  20.041  -2.449  1.00  0.00    -0.271 N
ATOM     12  H1  UNL     1      -3.657  20.261  -3.060  1.00  0.00     0.194 HD
HETATM   13  C3  UNL     1      -2.553  22.299  -2.993  1.00  0.00     0.071 C
BRANCH  11  14
HETATM   14  O1  UNL     1      -2.903  18.783  -2.050  1.00  0.00    -0.285 OA
HETATM   15  C1  UNL     1      -3.947  17.866  -2.165  1.00  0.00     0.237 C
ENDBRANCH  11  14
ENDBRANCH   6  10
ENDBRANCH   1   3
BRANCH   1  16
HETATM   16  S1  UNL     1       3.130  22.027   2.076  1.00  0.00     0.268 S
HETATM   17  O2  UNL     1       4.207  22.772   1.345  1.00  0.00    -0.200 OA
HETATM   18  O3  UNL     1       3.770  21.432   3.325  1.00  0.00    -0.200 OA
BRANCH  16  19
HETATM   19  C8  UNL     1       1.960  23.179   2.655  1.00  0.00     0.143 A
HETATM   20  C9  UNL     1       1.808  24.429   2.125  1.00  0.00     0.164 A
HETATM   21  F1  UNL     1       2.569  24.802   1.047  1.00  0.00    -0.203 F
HETATM   22  C10 UNL     1       0.872  25.336   2.640  1.00  0.00     0.097 A
HETATM   23 CL1  UNL     1       0.719  26.914   1.930  1.00  0.00    -0.079 Cl
HETATM   24  C11 UNL     1       0.071  24.992   3.702  1.00  0.00     0.082 A
HETATM   25 CL2  UNL     1      -1.115  26.130   4.360  1.00  0.00    -0.081 Cl
HETATM   26  C12 UNL     1       0.214  23.733   4.245  1.00  0.00     0.081 A
HETATM   27 CL3  UNL     1      -0.830  23.324   5.604  1.00  0.00    -0.081 Cl
HETATM   28  C13 UNL     1       1.125  22.865   3.737  1.00  0.00     0.084 A
HETATM   29 CL4  UNL     1       1.303  21.270   4.428  1.00  0.00    -0.081 Cl
ENDBRANCH  16  19
ENDBRANCH   1  16
TORSDOF 5
ENDMDL