MODEL 4
REMARK VINA RESULT: -7.120242974      1.377      1.929
REMARK  7 active torsions:
REMARK  status: ('A' for Active; 'I' for Inactive)
REMARK    1  A    between atoms: O1_2  and  C2_3
REMARK    2  A    between atoms: C5_6  and  C6_7
REMARK    3  A    between atoms: C9_12  and  N2_13
REMARK    4  A    between atoms: C13_18  and  C14_19
REMARK    5  A    between atoms: C15_24  and  N4_25
REMARK    6  A    between atoms: C16_29  and  C17_30
REMARK    7  A    between atoms: N6_33  and  C20_34
ROOT
HETATM    1  C6  UNL     1       0.954  21.041   3.148  1.00  0.00     0.073 A
HETATM    2  N1  UNL     1       0.050  21.222   2.141  1.00  0.00    -0.339 N
ATOM      3  H1  UNL     1      -0.872  21.643   2.251  1.00  0.00     0.167 HD
HETATM    4  C7  UNL     1       0.545  20.772   1.002  1.00  0.00     0.133 A
HETATM    5  C8  UNL     1      -0.014  20.755  -0.275  1.00  0.00     0.098 A
HETATM    6  C9  UNL     1       0.758  20.222  -1.281  1.00  0.00     0.123 A
HETATM    7  N3  UNL     1       1.980  19.753  -0.995  1.00  0.00    -0.176 N
ATOM      8  H3  UNL     1       2.543  19.359  -1.749  1.00  0.00     0.186 HD
HETATM    9  C15 UNL     1       2.500  19.782   0.262  1.00  0.00     0.686 A
HETATM   10  N5  UNL     1       1.767  20.302   1.271  1.00  0.00    -0.130 N
HETATM   11  C16 UNL     1       2.068  20.440   2.575  1.00  0.00     0.098 A
ENDROOT
BRANCH  11  12
HETATM   12  C17 UNL     1       3.294  20.025   3.238  1.00  0.00     0.011 A
HETATM   13  C18 UNL     1       3.410  18.884   4.017  1.00  0.00     0.032 A
HETATM   14  C19 UNL     1       4.679  18.777   4.486  1.00  0.00     0.092 A
HETATM   15  N6  UNL     1       5.393  19.843   4.018  1.00  0.00    -0.361 N
HETATM   16  C26 UNL     1       4.552  20.591   3.266  1.00  0.00     0.104 A
BRANCH  15  17
HETATM   17  C20 UNL     1       6.779  20.012   4.324  1.00  0.00     0.088 C
HETATM   18  C21 UNL     1       7.342  18.760   4.998  1.00  0.00     0.026 C
HETATM   19  C22 UNL     1       8.724  19.048   5.488  1.00  0.00     0.002 C
HETATM   20  C23 UNL     1       9.193  20.434   5.167  1.00  0.00     0.000 C
HETATM   21  C24 UNL     1       8.992  20.829   3.739  1.00  0.00     0.002 C
HETATM   22  C25 UNL     1       7.656  20.358   3.168  1.00  0.00     0.026 C
ENDBRANCH  15  17
ENDBRANCH  11  12
BRANCH   1  23
HETATM   23  C5  UNL     1       0.744  21.438   4.521  1.00  0.00    -0.007 A
HETATM   24  C4  UNL     1       0.664  20.495   5.553  1.00  0.00     0.016 A
HETATM   25  C3  UNL     1       0.461  20.856   6.861  1.00  0.00     0.037 A
HETATM   26  C2  UNL     1       0.324  22.167   7.229  1.00  0.00     0.068 A
HETATM   27  C28 UNL     1       0.400  23.125   6.217  1.00  0.00     0.037 A
HETATM   28  C27 UNL     1       0.607  22.744   4.895  1.00  0.00     0.016 A
BRANCH  26  29
HETATM   29  O1  UNL     1       0.115  22.593   8.537  1.00  0.00    -0.356 OA
HETATM   30  C1  UNL     1      -0.544  21.891   9.538  1.00  0.00     0.210 C
ENDBRANCH  26  29
ENDBRANCH   1  23
BRANCH   9  31
HETATM   31  N4  UNL     1       3.662  19.332   0.533  1.00  0.00    -0.234 N
ATOM     32  H42 UNL     1       3.754  18.341   0.757  1.00  0.00     0.174 HD
ATOM     33  H41 UNL     1       4.493  19.924   0.529  1.00  0.00     0.174 HD
ENDBRANCH   9  31
BRANCH   6  34
HETATM   34  N2  UNL     1       0.282  20.170  -2.607  1.00  0.00    -0.353 N
HETATM   35  C10 UNL     1       0.253  21.379  -3.413  1.00  0.00     0.151 C
HETATM   36  C11 UNL     1       0.278  21.112  -4.876  1.00  0.00     0.187 C
HETATM   37  O2  UNL     1      -0.522  20.088  -5.318  1.00  0.00    -0.387 OA
HETATM   38  C12 UNL     1      -1.138  19.344  -4.336  1.00  0.00     0.198 C
HETATM   39  C13 UNL     1      -0.175  18.945  -3.239  1.00  0.00     0.174 C
BRANCH  39  40
HETATM   40  C14 UNL     1      -0.928  18.065  -2.268  1.00  0.00     0.377 C
HETATM   41  F1  UNL     1      -1.173  16.848  -2.872  1.00  0.00    -0.212 F
HETATM   42  F2  UNL     1      -2.128  18.683  -2.007  1.00  0.00    -0.212 F
ENDBRANCH  39  40
ENDBRANCH   6  34
TORSDOF 7
ENDMDL