MODEL 4
REMARK VINA RESULT: -6.830656405      4.137      8.082
REMARK  6 active torsions:
REMARK  status: ('A' for Active; 'I' for Inactive)
REMARK    1  A    between atoms: C2_2  and  C4_4
REMARK    2  A    between atoms: C7_11  and  C8_12
REMARK    3  A    between atoms: C9_17  and  S1_18
REMARK    4  A    between atoms: S1_18  and  C10_19
REMARK    5  A    between atoms: C10_19  and  C11_20
REMARK    6  A    between atoms: C14_24  and  O1_25
ROOT
HETATM    1  C8  UNL     1       8.286  20.067   0.629  1.00  0.00     0.192 A
HETATM    2  N3  UNL     1       9.155  20.621   1.492  1.00  0.00    -0.275 N
ATOM      3  H3  UNL     1      10.156  20.734   1.332  1.00  0.00     0.189 HD
HETATM    4  N4  UNL     1       8.508  20.994   2.578  1.00  0.00    -0.272 N
ATOM      5  H4  UNL     1       8.920  21.446   3.395  1.00  0.00     0.189 HD
HETATM    6  C9  UNL     1       7.243  20.682   2.425  1.00  0.00     0.204 A
HETATM    7  O2  UNL     1       7.123  20.113   1.219  1.00  0.00    -0.266 OA
ENDROOT
BRANCH   1   8
HETATM    8  C7  UNL     1       8.526  19.510  -0.697  1.00  0.00     0.087 A
HETATM    9  C6  UNL     1       9.278  20.236  -1.629  1.00  0.00     0.066 A
HETATM   10  C5  UNL     1       9.672  19.662  -2.808  1.00  0.00     0.064 A
HETATM   11  N2  UNL     1      10.490  20.086  -3.820  1.00  0.00    -0.299 N
HETATM   12  C18 UNL     1       9.352  18.377  -3.145  1.00  0.00     0.036 A
HETATM   13  N1  UNL     1      10.639  19.093  -4.712  1.00  0.00    -0.299 N
ATOM     14  H2  UNL     1      10.917  21.010  -3.887  1.00  0.00     0.187 HD
HETATM   15  C4  UNL     1       9.943  18.002  -4.337  1.00  0.00     0.063 A
ATOM     16  H1  UNL     1      11.204  19.155  -5.559  1.00  0.00     0.187 HD
HETATM   17  C17 UNL     1       8.604  17.675  -2.212  1.00  0.00     0.104 A
HETATM   18  N5  UNL     1       8.233  18.259  -1.056  1.00  0.00    -0.361 N
ATOM     19  H5  UNL     1       7.686  17.700  -0.403  1.00  0.00     0.165 HD
BRANCH  15  20
HETATM   20  C2  UNL     1       9.688  16.772  -5.145  1.00  0.00    -0.059 C
HETATM   21  C1  UNL     1       9.982  16.914  -6.592  1.00  0.00     0.045 C
HETATM   22  C3  UNL     1       9.935  15.480  -4.512  1.00  0.00     0.045 C
ENDBRANCH  15  20
ENDBRANCH   1   8
BRANCH   6  23
HETATM   23  S1  UNL     1       5.862  20.931   3.538  1.00  0.00    -0.080 SA
BRANCH  23  24
HETATM   24  C10 UNL     1       4.543  19.755   3.006  1.00  0.00     0.121 C
BRANCH  24  25
HETATM   25  C11 UNL     1       3.700  20.353   1.934  1.00  0.00    -0.046 A
HETATM   26  C12 UNL     1       3.038  19.682   0.961  1.00  0.00     0.030 A
HETATM   27  C13 UNL     1       2.258  20.382   0.030  1.00  0.00     0.046 A
HETATM   28 BR1  UNL     1       1.300  19.412  -1.315  1.00  0.00    -0.048 Br
HETATM   29  C14 UNL     1       2.145  21.764   0.070  1.00  0.00     0.100 A
HETATM   30  C15 UNL     1       2.819  22.450   1.055  1.00  0.00     0.046 A
HETATM   31 BR2  UNL     1       2.735  24.335   1.177  1.00  0.00    -0.048 Br
HETATM   32  C16 UNL     1       3.577  21.758   1.965  1.00  0.00     0.030 A
BRANCH  29  33
HETATM   33  O1  UNL     1       1.361  22.414  -0.871  1.00  0.00    -0.358 OA
ATOM     34  H1  UNL     1       0.429  22.513  -0.717  1.00  0.00     0.217 HD
ENDBRANCH  29  33
ENDBRANCH  24  25
ENDBRANCH  23  24
ENDBRANCH   6  23
TORSDOF 6
ENDMDL