MODEL 5
REMARK VINA RESULT: -7.137867914      5.721      7.782
REMARK  7 active torsions:
REMARK  status: ('A' for Active; 'I' for Inactive)
REMARK    1  A    between atoms: C2_2  and  C3_3
REMARK    2  A    between atoms: C10_12  and  N1_13
REMARK    3  A    between atoms: C10_12  and  C11_17
REMARK    4  A    between atoms: C14_22  and  C15_23
REMARK    5  A    between atoms: N3_26  and  C18_27
REMARK    6  A    between atoms: C19_32  and  C20_33
REMARK       I    between atoms: C20_33  and  N6_35
REMARK    7  A    between atoms: N6_35  and  C21_37
ROOT
HETATM    1  C11 UNL     1       3.150  19.401   1.576  1.00  0.00    -0.015 A
HETATM    2  C12 UNL     1       2.921  18.940   0.274  1.00  0.00     0.027 A
HETATM    3  C13 UNL     1       2.060  19.625  -0.520  1.00  0.00     0.088 A
HETATM    4  N2  UNL     1       1.438  20.724  -0.067  1.00  0.00    -0.369 N
ATOM      5  H2  UNL     1       0.797  21.210  -0.695  1.00  0.00     0.165 HD
HETATM    6  C14 UNL     1       1.612  21.218   1.166  1.00  0.00     0.013 A
HETATM    7  C27 UNL     1       2.500  20.521   2.000  1.00  0.00     0.035 A
ENDROOT
BRANCH   6   8
HETATM    8  C15 UNL     1       0.902  22.445   1.640  1.00  0.00     0.038 C
HETATM    9  C16 UNL     1       0.068  22.041   2.821  1.00  0.00     0.030 C
HETATM   10  C17 UNL     1       0.451  22.830   4.069  1.00  0.00     0.127 C
HETATM   11  N3  UNL     1       0.362  24.229   3.711  1.00  0.00    -0.346 N
HETATM   12  C25 UNL     1       1.121  24.699   2.579  1.00  0.00     0.127 C
HETATM   13  C26 UNL     1       1.898  23.514   2.042  1.00  0.00     0.030 C
BRANCH  11  14
HETATM   14  C18 UNL     1      -0.455  25.096   4.465  1.00  0.00     0.243 A
HETATM   15  N4  UNL     1      -0.364  25.425   5.759  1.00  0.00    -0.263 N
HETATM   16  N5  UNL     1      -1.310  26.263   6.095  1.00  0.00    -0.272 N
ATOM     17  H4  UNL     1       0.349  25.071   6.398  1.00  0.00     0.190 HD
HETATM   18  C19 UNL     1      -2.030  26.474   4.973  1.00  0.00     0.234 A
ATOM     19  H5  UNL     1      -1.470  26.672   7.015  1.00  0.00     0.189 HD
HETATM   20  O2  UNL     1      -1.504  25.772   4.021  1.00  0.00    -0.254 OA
BRANCH  18  21
HETATM   21  C20 UNL     1      -3.191  27.346   4.882  1.00  0.00     0.295 C
HETATM   22  O1  UNL     1      -4.309  26.846   4.659  1.00  0.00    -0.264 OA
HETATM   23  N6  UNL     1      -3.058  28.760   5.045  1.00  0.00    -0.346 N
ATOM     24  H6  UNL     1      -2.142  29.171   5.228  1.00  0.00     0.163 HD
BRANCH  23  25
HETATM   25  C21 UNL     1      -4.227  29.605   4.950  1.00  0.00     0.022 C
HETATM   26  C22 UNL     1      -3.776  31.046   4.816  1.00  0.00     0.037 C
HETATM   27  C23 UNL     1      -5.095  29.467   6.192  1.00  0.00     0.037 C
HETATM   28  C24 UNL     1      -5.043  29.246   3.749  1.00  0.00     0.037 C
ENDBRANCH  23  25
ENDBRANCH  18  21
ENDBRANCH  11  14
ENDBRANCH   6   8
BRANCH   1  29
HETATM   29  C10 UNL     1       4.122  18.712   2.456  1.00  0.00     0.174 C
HETATM   30  C5  UNL     1       4.988  19.625   3.211  1.00  0.00    -0.032 C
HETATM   31  C3  UNL     1       5.743  20.577   2.685  1.00  0.00    -0.079 C
HETATM   32  C6  UNL     1       5.074  19.523   4.691  1.00  0.00     0.116 C
HETATM   33  C4  UNL     1       5.819  20.863   1.244  1.00  0.00     0.043 C
HETATM   34  C7  UNL     1       4.236  18.545   5.396  1.00  0.00     0.247 C
HETATM   35  F1  UNL     1       4.872  17.341   5.619  1.00  0.00    -0.206 F
HETATM   36  F2  UNL     1       3.901  19.043   6.660  1.00  0.00    -0.206 F
HETATM   37  C8  UNL     1       2.942  18.289   4.642  1.00  0.00     0.082 C
HETATM   38  C9  UNL     1       3.326  17.744   3.309  1.00  0.00     0.054 C
BRANCH  31  39
HETATM   39  C2  UNL     1       6.588  21.439   3.560  1.00  0.00     0.029 C
HETATM   40  C1  UNL     1       8.060  21.121   3.399  1.00  0.00     0.010 C
ENDBRANCH  31  39
BRANCH  29  41
HETATM   41  N1  UNL     1       4.998  17.877   1.665  1.00  0.00    -0.062 N
ATOM     42  H13 UNL     1       4.545  17.482   0.841  1.00  0.00     0.276 HD
ATOM     43  H12 UNL     1       5.721  18.402   1.173  1.00  0.00     0.276 HD
ATOM     44  H11 UNL     1       5.373  17.170   2.298  1.00  0.00     0.276 HD
ENDBRANCH  29  41
ENDBRANCH   1  29
TORSDOF 7
ENDMDL