MODEL 5
REMARK VINA RESULT: -7.633498307      4.867      9.833
REMARK  7 active torsions:
REMARK  status: ('A' for Active; 'I' for Inactive)
REMARK    1  A    between atoms: C2_2  and  C3_3
REMARK    2  A    between atoms: C8_13  and  C9_14
REMARK    3  A    between atoms: C10_15  and  C11_16
REMARK    4  A    between atoms: C12_17  and  C13_18
REMARK    5  A    between atoms: C13_18  and  N4_19
REMARK    6  A    between atoms: N4_19  and  C14_21
REMARK    7  A    between atoms: C27_40  and  O1_41
ROOT
HETATM    1  C3  UNL     1       5.861  17.053   4.864  1.00  0.00     0.032 A
HETATM    2  N1  UNL     1       6.380  16.567   6.022  1.00  0.00    -0.336 N
ATOM      3  H1  UNL     1       7.210  15.975   5.977  1.00  0.00     0.168 HD
HETATM    4  C4  UNL     1       5.843  16.837   7.224  1.00  0.00     0.189 A
HETATM    5  C5  UNL     1       6.419  16.303   8.444  1.00  0.00     0.137 C
HETATM    6  N2  UNL     1       6.862  15.880   9.427  1.00  0.00    -0.188 NA
HETATM    7  N3  UNL     1       4.753  17.618   7.255  1.00  0.00    -0.336 N
ATOM      8  H3  UNL     1       4.338  17.829   8.163  1.00  0.00     0.168 HD
HETATM    9  C6  UNL     1       4.179  18.137   6.160  1.00  0.00     0.028 A
HETATM   10  C7  UNL     1       2.983  18.996   6.191  1.00  0.00     0.070 C
HETATM   11  C8  UNL     1       4.749  17.848   4.922  1.00  0.00     0.062 A
ENDROOT
BRANCH   1  12
HETATM   12  C2  UNL     1       6.511  16.725   3.592  1.00  0.00     0.054 C
HETATM   13  C1  UNL     1       7.895  16.181   3.812  1.00  0.00     0.011 C
ENDBRANCH   1  12
BRANCH  11  14
HETATM   14  C9  UNL     1       4.154  18.374   3.753  1.00  0.00    -0.057 C
HETATM   15  C10 UNL     1       3.655  18.821   2.724  1.00  0.00    -0.058 C
BRANCH  15  16
HETATM   16  C11 UNL     1       3.103  19.339   1.522  1.00  0.00     0.056 A
HETATM   17  C12 UNL     1       3.382  20.591   0.961  1.00  0.00     0.047 A
HETATM   18  N5  UNL     1       2.651  20.681  -0.163  1.00  0.00    -0.354 N
HETATM   19  C21 UNL     1       1.933  19.553  -0.329  1.00  0.00     0.075 A
ATOM     20  H5  UNL     1       2.641  21.481  -0.795  1.00  0.00     0.166 HD
HETATM   21  C22 UNL     1       2.195  18.690   0.714  1.00  0.00     0.029 A
HETATM   22  C29 UNL     1       1.040  19.201  -1.348  1.00  0.00     0.089 A
HETATM   23  C23 UNL     1       1.553  17.470   0.728  1.00  0.00     0.103 A
HETATM   24  N6  UNL     1       0.686  17.136  -0.265  1.00  0.00    -0.363 N
HETATM   25  C24 UNL     1       0.431  17.968  -1.275  1.00  0.00     0.061 A
ATOM     26  H6  UNL     1       0.221  16.229  -0.237  1.00  0.00     0.165 HD
HETATM   27  C25 UNL     1      -0.453  17.649  -2.303  1.00  0.00     0.036 A
HETATM   28  C26 UNL     1      -0.669  18.558  -3.316  1.00  0.00     0.058 A
HETATM   29  C27 UNL     1      -0.045  19.787  -3.363  1.00  0.00     0.142 A
HETATM   30  N7  UNL     1       0.802  20.071  -2.360  1.00  0.00    -0.333 N
ATOM     31  H7  UNL     1       1.283  20.971  -2.360  1.00  0.00     0.168 HD
BRANCH  17  32
HETATM   32  C13 UNL     1       4.318  21.560   1.590  1.00  0.00     0.178 C
BRANCH  32  33
HETATM   33  N4  UNL     1       5.696  21.266   1.384  1.00  0.00    -0.384 N
ATOM     34  H4  UNL     1       6.071  21.381   0.443  1.00  0.00     0.160 HD
BRANCH  33  35
HETATM   35  C14 UNL     1       6.582  20.823   2.399  1.00  0.00     0.037 A
HETATM   36  C15 UNL     1       6.280  21.170   3.719  1.00  0.00     0.033 A
HETATM   37  C16 UNL     1       7.167  20.741   4.681  1.00  0.00     0.048 A
HETATM   38  C17 UNL     1       8.299  20.007   4.383  1.00  0.00     0.155 A
HETATM   39  F1  UNL     1       9.129  19.614   5.352  1.00  0.00    -0.203 F
HETATM   40  C18 UNL     1       8.554  19.690   3.061  1.00  0.00     0.163 A
HETATM   41  F2  UNL     1       9.663  18.964   2.724  1.00  0.00    -0.202 F
HETATM   42  C19 UNL     1       7.704  20.091   2.061  1.00  0.00     0.006 A
HETATM   43  C20 UNL     1       7.967  19.755   0.632  1.00  0.00     0.054 C
ENDBRANCH  33  35
ENDBRANCH  32  33
ENDBRANCH  17  32
BRANCH  29  44
HETATM   44  O1  UNL     1      -0.307  20.660  -4.413  1.00  0.00    -0.341 OA
HETATM   45  C28 UNL     1       0.644  21.444  -5.061  1.00  0.00     0.211 C
ENDBRANCH  29  44
ENDBRANCH  15  16
ENDBRANCH  11  14
TORSDOF 7
ENDMDL