MODEL 3
REMARK VINA RESULT: -7.223402584      1.076      1.358
REMARK  7 active torsions:
REMARK  status: ('A' for Active; 'I' for Inactive)
REMARK    1  A    between atoms: C2_2  and  O1_3
REMARK    2  A    between atoms: C2_2  and  C15_24
REMARK    3  A    between atoms: O1_3  and  C3_4
REMARK       I    between atoms: C3_4  and  N1_6
REMARK    4  A    between atoms: N1_6  and  C4_8
REMARK    5  A    between atoms: C8_12  and  N2_13
REMARK    6  A    between atoms: N2_13  and  C9_15
REMARK    7  A    between atoms: C17_27  and  C18_28
ROOT
HETATM    1  C3  UNL     1       4.627  21.711   2.075  1.00  0.00     0.361 C
HETATM    2  O2  UNL     1       4.002  21.227   3.067  1.00  0.00    -0.238 OA
HETATM    3  N1  UNL     1       5.953  21.218   1.852  1.00  0.00    -0.332 N
ATOM      4  H1  UNL     1       6.486  21.582   1.062  1.00  0.00     0.165 HD
ENDROOT
BRANCH   1   5
HETATM    5  O1  UNL     1       3.985  22.647   1.320  1.00  0.00    -0.293 OA
BRANCH   5   6
HETATM    6  C2  UNL     1       2.694  23.130   1.533  1.00  0.00     0.181 C
HETATM    7  C1  UNL     1       2.524  24.606   1.166  1.00  0.00     0.047 C
BRANCH   6   8
HETATM    8  C15 UNL     1       1.614  22.338   0.896  1.00  0.00     0.063 A
HETATM    9  C16 UNL     1       0.376  22.154   1.470  1.00  0.00     0.172 A
HETATM   10  O3  UNL     1      -0.335  21.410   0.628  1.00  0.00    -0.301 OA
HETATM   11  C17 UNL     1       0.327  21.107  -0.409  1.00  0.00     0.182 A
HETATM   12  N5  UNL     1       1.579  21.697  -0.250  1.00  0.00    -0.334 N
ATOM     13  H5  UNL     1       2.347  21.639  -0.918  1.00  0.00     0.168 HD
BRANCH  11  14
HETATM   14  C18 UNL     1       0.126  20.348  -1.658  1.00  0.00     0.127 A
HETATM   15  N4  UNL     1      -0.034  19.753  -2.665  1.00  0.00    -0.341 N
HETATM   16  C19 UNL     1      -0.219  19.793  -3.876  1.00  0.00     0.087 A
ATOM     17  H4  UNL     1      -0.005  18.764  -2.417  1.00  0.00     0.167 HD
HETATM   18 BR1  UNL     1      -0.418  18.291  -5.078  1.00  0.00    -0.031 Br
HETATM   19  C20 UNL     1      -0.273  21.093  -4.323  1.00  0.00     0.089 A
HETATM   20  S1  UNL     1      -0.045  21.944  -2.907  1.00  0.00    -0.077 SA
ENDBRANCH  11  14
ENDBRANCH   6   8
ENDBRANCH   5   6
ENDBRANCH   1   5
BRANCH   3  21
HETATM   21  C4  UNL     1       6.560  20.231   2.699  1.00  0.00     0.088 C
HETATM   22  C5  UNL     1       7.454  20.973   3.666  1.00  0.00     0.025 C
HETATM   23  C6  UNL     1       8.869  20.514   3.569  1.00  0.00     0.004 C
HETATM   24  C7  UNL     1       9.361  20.478   2.167  1.00  0.00     0.025 C
HETATM   25  C8  UNL     1       8.527  19.555   1.288  1.00  0.00     0.083 C
HETATM   26  C14 UNL     1       7.265  19.121   1.999  1.00  0.00     0.050 C
BRANCH  25  27
HETATM   27  N2  UNL     1       8.260  20.185   0.031  1.00  0.00    -0.384 N
ATOM     28  H2  UNL     1       7.430  20.777   0.003  1.00  0.00     0.160 HD
BRANCH  27  29
HETATM   29  C9  UNL     1       8.915  20.108  -1.051  1.00  0.00     0.053 A
HETATM   30  C10 UNL     1       9.758  21.074  -1.564  1.00  0.00     0.048 A
HETATM   31  C11 UNL     1      10.434  20.942  -2.767  1.00  0.00     0.090 A
HETATM   32  N3  UNL     1      10.236  19.801  -3.445  1.00  0.00    -0.373 N
HETATM   33  C12 UNL     1       9.440  18.814  -3.025  1.00  0.00     0.113 A
ATOM     34  H3  UNL     1      10.721  19.680  -4.334  1.00  0.00     0.164 HD
HETATM   35  C13 UNL     1       8.767  18.967  -1.809  1.00  0.00     0.075 A
HETATM   36 CL1  UNL     1       7.705  17.676  -1.275  1.00  0.00    -0.080 Cl
ENDBRANCH  27  29
ENDBRANCH  25  27
ENDBRANCH   3  21
TORSDOF 7
ENDMDL