MODEL 5
REMARK VINA RESULT: -6.565877518      2.110      5.234
REMARK  6 active torsions:
REMARK  status: ('A' for Active; 'I' for Inactive)
REMARK    1  A    between atoms: O1_2  and  C2_3
REMARK    2  A    between atoms: C4_5  and  C5_6
REMARK    3  A    between atoms: C5_6  and  C6_7
REMARK    4  A    between atoms: C10_14  and  N2_15
REMARK    5  A    between atoms: N4_21  and  C12_22
REMARK    6  A    between atoms: C20_30  and  N5_31
ROOT
HETATM    1  C5  UNL     1       1.445  22.329   2.543  1.00  0.00     0.049 C
HETATM    2  C18 UNL     1       1.901  23.704   2.361  1.00  0.00     0.024 C
HETATM    3  C19 UNL     1       0.768  24.657   2.734  1.00  0.00     0.027 C
HETATM    4  C20 UNL     1       0.425  24.017   4.036  1.00  0.00     0.085 C
HETATM    5  C25 UNL     1       0.417  22.559   3.680  1.00  0.00     0.047 C
ENDROOT
BRANCH   1   6
HETATM    6  C4  UNL     1       0.647  21.736   1.439  1.00  0.00     0.026 A
HETATM    7  C3  UNL     1       0.917  21.806   0.101  1.00  0.00     0.066 A
HETATM    8  C2  UNL     1       0.071  21.217  -0.850  1.00  0.00     0.110 A
HETATM    9  C27 UNL     1      -1.061  20.549  -0.443  1.00  0.00     0.165 A
HETATM   10  C26 UNL     1      -1.313  20.489   0.910  1.00  0.00     0.133 A
HETATM   11  F1  UNL     1      -1.909  19.963  -1.351  1.00  0.00    -0.202 F
HETATM   12  N6  UNL     1      -0.487  21.060   1.764  1.00  0.00    -0.365 N
ATOM     13  H6  UNL     1      -0.718  20.988   2.755  1.00  0.00     0.165 HD
BRANCH   8  14
HETATM   14  O1  UNL     1       0.384  21.315  -2.194  1.00  0.00    -0.353 OA
HETATM   15  C1  UNL     1      -0.267  22.249  -3.007  1.00  0.00     0.210 C
ENDBRANCH   8  14
ENDBRANCH   1   6
BRANCH   1  16
HETATM   16  C6  UNL     1       2.358  21.297   3.052  1.00  0.00     0.051 A
HETATM   17  C7  UNL     1       3.641  21.155   2.515  1.00  0.00     0.073 A
HETATM   18 CL1  UNL     1       4.381  22.093   1.237  1.00  0.00    -0.081 Cl
HETATM   19  C8  UNL     1       4.225  20.123   3.214  1.00  0.00     0.048 A
HETATM   20  C9  UNL     1       5.482  19.569   3.084  1.00  0.00     0.123 A
HETATM   21  C11 UNL     1       3.300  19.703   4.111  1.00  0.00     0.137 A
HETATM   22  N1  UNL     1       5.812  18.557   3.890  1.00  0.00    -0.201 N
HETATM   23  C10 UNL     1       4.893  18.120   4.801  1.00  0.00     0.677 A
ATOM     24  H1  UNL     1       6.731  18.119   3.828  1.00  0.00     0.183 HD
HETATM   25  N3  UNL     1       3.683  18.675   4.904  1.00  0.00    -0.176 N
ATOM     26  H3  UNL     1       3.029  18.315   5.599  1.00  0.00     0.186 HD
HETATM   27  N4  UNL     1       2.127  20.420   4.033  1.00  0.00    -0.328 N
BRANCH  23  28
HETATM   28  N2  UNL     1       5.166  17.133   5.611  1.00  0.00    -0.234 N
ATOM     29  H22 UNL     1       4.788  16.216   5.371  1.00  0.00     0.174 HD
ATOM     30  H21 UNL     1       5.734  17.281   6.445  1.00  0.00     0.174 HD
ENDBRANCH  23  28
BRANCH  27  31
HETATM   31  C12 UNL     1       1.054  20.176   4.878  1.00  0.00     0.091 C
HETATM   32  C13 UNL     1       1.573  20.276   6.350  1.00  0.00     0.026 C
HETATM   33  C14 UNL     1       0.439  20.575   7.283  1.00  0.00     0.002 C
HETATM   34  C15 UNL     1      -0.874  20.228   6.701  1.00  0.00     0.000 C
HETATM   35  C16 UNL     1      -0.693  18.917   6.028  1.00  0.00     0.002 C
HETATM   36  C17 UNL     1       0.361  18.881   4.941  1.00  0.00     0.026 C
ENDBRANCH  27  31
ENDBRANCH   1  16
BRANCH   4  37
HETATM   37  N5  UNL     1      -0.704  24.465   4.719  1.00  0.00    -0.385 N
HETATM   38  C21 UNL     1      -0.976  23.769   5.942  1.00  0.00     0.148 C
HETATM   39  C22 UNL     1      -2.418  23.905   6.383  1.00  0.00     0.187 C
HETATM   40  O2  UNL     1      -3.061  24.770   5.483  1.00  0.00    -0.385 OA
HETATM   41  C23 UNL     1      -2.348  25.986   5.521  1.00  0.00     0.212 C
HETATM   42  C24 UNL     1      -1.088  25.816   4.677  1.00  0.00     0.084 C
ENDBRANCH   4  37
TORSDOF 6
ENDMDL