MODEL 3
REMARK VINA RESULT: -7.872369597      1.117      2.439
REMARK  7 active torsions:
REMARK  status: ('A' for Active; 'I' for Inactive)
REMARK    1  A    between atoms: O1_2  and  C2_3
REMARK    2  A    between atoms: C6_8  and  N2_9
REMARK    3  A    between atoms: N2_9  and  C7_11
REMARK    4  A    between atoms: C7_11  and  C8_12
REMARK    5  A    between atoms: C8_12  and  C9_13
REMARK    6  A    between atoms: C8_12  and  N3_17
REMARK    7  A    between atoms: N3_17  and  C11_19
ROOT
HETATM    1  N2  UNL     1       7.786  18.785   1.197  1.00  0.00    -0.223 N
ATOM      2  H2  UNL     1       8.513  18.326   1.745  1.00  0.00     0.177 HD
ENDROOT
BRANCH   1   3
HETATM    3  C6  UNL     1       8.443  19.359   0.361  1.00  0.00     0.686 A
HETATM    4  N1  UNL     1       8.606  18.993  -0.922  1.00  0.00    -0.153 N
HETATM    5  C5  UNL     1       7.968  17.858  -1.353  1.00  0.00     0.116 A
HETATM    6  C26 UNL     1       9.367  19.698  -1.791  1.00  0.00     0.121 A
HETATM    7  C4  UNL     1       8.097  17.437  -2.650  1.00  0.00     0.021 A
HETATM    8  C3  UNL     1       8.872  18.163  -3.518  1.00  0.00     0.040 A
HETATM    9  C2  UNL     1       9.531  19.321  -3.103  1.00  0.00     0.098 A
HETATM   10  C25 UNL     1      10.008  20.841  -1.355  1.00  0.00     0.126 A
HETATM   11  C24 UNL     1       9.838  21.213  -0.038  1.00  0.00     0.167 A
HETATM   12  N7  UNL     1      10.807  21.721  -1.969  1.00  0.00    -0.280 N
HETATM   13  N4  UNL     1       9.084  20.502   0.800  1.00  0.00    -0.172 N
HETATM   14  N5  UNL     1      10.570  22.352   0.110  1.00  0.00    -0.269 N
ATOM     15  H4  UNL     1       8.979  20.803   1.769  1.00  0.00     0.186 HD
HETATM   16  N6  UNL     1      11.131  22.633  -1.038  1.00  0.00    -0.240 N
ATOM     17  H5  UNL     1      10.665  22.893   0.970  1.00  0.00     0.190 HD
ATOM     18  H6  UNL     1      11.734  23.439  -1.204  1.00  0.00     0.208 HD
ATOM     19  H7  UNL     1      11.108  21.704  -2.944  1.00  0.00     0.188 HD
BRANCH   9  20
HETATM   20  O1  UNL     1      10.273  19.962  -4.050  1.00  0.00    -0.354 OA
HETATM   21  C1  UNL     1      11.029  19.352  -5.048  1.00  0.00     0.210 C
ENDBRANCH   9  20
ENDBRANCH   1   3
BRANCH   1  22
HETATM   22  C7  UNL     1       6.664  18.380   1.847  1.00  0.00     0.167 C
BRANCH  22  23
HETATM   23  C8  UNL     1       6.233  19.445   2.862  1.00  0.00     0.122 C
BRANCH  23  24
HETATM   24  C9  UNL     1       7.334  19.368   3.919  1.00  0.00     0.054 C
HETATM   25  C10 UNL     1       8.052  20.460   4.155  1.00  0.00     0.184 C
HETATM   26  F1  UNL     1       7.805  21.618   3.465  1.00  0.00    -0.193 F
HETATM   27 CL1  UNL     1       9.339  20.510   5.331  1.00  0.00    -0.052 Cl
ENDBRANCH  23  24
BRANCH  23  28
HETATM   28  N3  UNL     1       4.990  19.297   3.466  1.00  0.00    -0.408 N
ATOM     29  H3  UNL     1       4.928  18.740   4.318  1.00  0.00     0.154 HD
BRANCH  28  30
HETATM   30  C11 UNL     1       3.809  19.879   2.960  1.00  0.00     0.077 C
HETATM   31  C12 UNL     1       3.632  19.723   1.472  1.00  0.00     0.024 C
HETATM   32  C13 UNL     1       2.781  20.724   0.801  1.00  0.00     0.002 C
HETATM   33  C14 UNL     1       3.305  22.106   0.676  1.00  0.00     0.000 C
HETATM   34  C15 UNL     1       2.122  23.040   0.524  1.00  0.00     0.000 C
HETATM   35  C16 UNL     1       2.328  24.388   1.129  1.00  0.00     0.000 C
HETATM   36  C17 UNL     1       1.857  24.552   2.530  1.00  0.00     0.000 C
HETATM   37  C18 UNL     1       0.450  24.157   2.809  1.00  0.00     0.000 C
HETATM   38  C19 UNL     1       0.314  23.234   4.024  1.00  0.00     0.000 C
HETATM   39  C20 UNL     1      -0.341  21.936   3.697  1.00  0.00     0.000 C
HETATM   40  C21 UNL     1       0.387  20.705   4.095  1.00  0.00     0.000 C
HETATM   41  C22 UNL     1       1.861  20.820   4.199  1.00  0.00     0.002 C
HETATM   42  C23 UNL     1       2.608  19.537   3.788  1.00  0.00     0.024 C
ENDBRANCH  28  30
ENDBRANCH  23  28
ENDBRANCH  22  23
ENDBRANCH   1  22
TORSDOF 7
ENDMDL