MODEL 5
REMARK VINA RESULT: -6.768738433      3.307      4.659
REMARK  9 active torsions:
REMARK  status: ('A' for Active; 'I' for Inactive)
REMARK    1  A    between atoms: C2_2  and  C3_3
REMARK    2  A    between atoms: C3_3  and  C4_4
REMARK    3  A    between atoms: C5_5  and  C6_6
REMARK    4  A    between atoms: C9_11  and  C10_12
REMARK    5  A    between atoms: C14_17  and  N2_18
REMARK    6  A    between atoms: C17_21  and  C18_22
REMARK    7  A    between atoms: C18_22  and  O2_24
REMARK    8  A    between atoms: N4_30  and  C21_31
REMARK    9  A    between atoms: C27_37  and  N5_38
ROOT
HETATM    1  C6  UNL     1       0.856  20.003  -0.661  1.00  0.00     0.164 A
HETATM    2  N1  UNL     1       0.850  21.076   0.130  1.00  0.00    -0.319 N
ATOM      3  H1  UNL     1       0.177  21.813  -0.078  1.00  0.00     0.169 HD
HETATM    4  C7  UNL     1       1.666  21.256   1.180  1.00  0.00     0.141 A
HETATM    5  C8  UNL     1       2.572  20.240   1.438  1.00  0.00     0.082 A
HETATM    6  C9  UNL     1       3.283  20.640   2.531  1.00  0.00     0.081 A
HETATM    7  N3  UNL     1       2.806  21.833   2.883  1.00  0.00    -0.295 N
ATOM      8  H3  UNL     1       3.151  22.378   3.674  1.00  0.00     0.187 HD
HETATM    9  N4  UNL     1       1.826  22.226   2.079  1.00  0.00    -0.270 N
HETATM   10  C27 UNL     1       2.590  19.125   0.629  1.00  0.00     0.117 A
HETATM   11  N6  UNL     1       1.730  19.021  -0.412  1.00  0.00    -0.321 N
ATOM     12  H6  UNL     1       1.748  18.193  -1.007  1.00  0.00     0.169 HD
ENDROOT
BRANCH   6  13
HETATM   13  C10 UNL     1       4.359  19.880   3.172  1.00  0.00     0.056 A
HETATM   14  C11 UNL     1       4.142  19.260   4.381  1.00  0.00     0.049 A
HETATM   15 CL1  UNL     1       2.557  19.406   5.121  1.00  0.00    -0.083 Cl
HETATM   16  C12 UNL     1       5.151  18.532   5.007  1.00  0.00     0.027 A
HETATM   17  C13 UNL     1       6.389  18.428   4.412  1.00  0.00     0.034 A
HETATM   18  C14 UNL     1       6.628  19.035   3.213  1.00  0.00     0.071 A
HETATM   19  C20 UNL     1       5.602  19.765   2.594  1.00  0.00     0.157 A
HETATM   20  F1  UNL     1       5.876  20.362   1.389  1.00  0.00    -0.203 F
BRANCH  18  21
HETATM   21  N2  UNL     1       7.899  18.936   2.591  1.00  0.00    -0.364 N
HETATM   22  C15 UNL     1       9.247  19.432   2.798  1.00  0.00     0.127 C
HETATM   23  C16 UNL     1       9.751  18.161   2.140  1.00  0.00     0.055 C
HETATM   24  C17 UNL     1       8.405  18.249   1.428  1.00  0.00     0.185 C
BRANCH  24  25
HETATM   25  C18 UNL     1       8.486  19.028   0.178  1.00  0.00     0.281 C
HETATM   26  O1  UNL     1       7.714  18.742  -0.768  1.00  0.00    -0.263 OA
BRANCH  25  27
HETATM   27  O2  UNL     1       9.378  20.068  -0.014  1.00  0.00    -0.325 OA
HETATM   28  C19 UNL     1       9.546  20.614  -1.323  1.00  0.00     0.213 C
ENDBRANCH  25  27
ENDBRANCH  24  25
ENDBRANCH  18  21
ENDBRANCH   6  13
BRANCH  10  29
HETATM   29  N5  UNL     1       3.453  18.199   0.908  1.00  0.00    -0.385 N
ATOM     30  H52 UNL     1       4.357  18.139   0.440  1.00  0.00     0.157 HD
ATOM     31  H51 UNL     1       3.198  17.519   1.624  1.00  0.00     0.157 HD
ENDBRANCH  10  29
BRANCH   9  32
HETATM   32  C21 UNL     1       1.064  23.483   2.160  1.00  0.00     0.110 C
HETATM   33  C22 UNL     1       1.885  24.546   1.543  1.00  0.00     0.027 C
HETATM   34  C23 UNL     1       1.816  25.888   2.175  1.00  0.00     0.002 C
HETATM   35  C24 UNL     1       0.438  26.050   2.785  1.00  0.00     0.000 C
HETATM   36  C25 UNL     1       0.377  25.101   3.961  1.00  0.00     0.002 C
HETATM   37  C26 UNL     1       0.658  23.678   3.566  1.00  0.00     0.027 C
ENDBRANCH   9  32
BRANCH   1  38
HETATM   38  C5  UNL     1      -0.049  19.875  -1.769  1.00  0.00    -0.030 C
HETATM   39  C4  UNL     1      -0.796  19.766  -2.715  1.00  0.00    -0.098 C
BRANCH  39  40
HETATM   40  C3  UNL     1      -1.677  19.621  -3.871  1.00  0.00     0.094 C
BRANCH  40  41
HETATM   41  C2  UNL     1      -0.879  19.012  -5.030  1.00  0.00     0.007 C
HETATM   42  C1  UNL     1       0.291  19.902  -5.319  1.00  0.00     0.006 C
ENDBRANCH  40  41
ENDBRANCH  39  40
ENDBRANCH   1  38
TORSDOF 9
ENDMDL