MODEL 2
REMARK VINA RESULT: -7.617617413      4.959      8.541
REMARK  6 active torsions:
REMARK  status: ('A' for Active; 'I' for Inactive)
REMARK    1  A    between atoms: C9_14  and  N3_15
REMARK    2  A    between atoms: N3_15  and  C10_17
REMARK    3  A    between atoms: C10_17  and  C11_18
REMARK    4  A    between atoms: C11_18  and  C12_19
REMARK    5  A    between atoms: C13_23  and  S2_24
REMARK    6  A    between atoms: S2_24  and  C14_25
ROOT
HETATM    1  C1  UNL     1      -2.033  26.503   5.269  1.00  0.00     0.068 C
HETATM    2  C2  UNL     1      -1.079  25.500   4.784  1.00  0.00     0.006 A
HETATM    3  C3  UNL     1      -0.287  25.678   3.692  1.00  0.00     0.032 A
HETATM    4  C4  UNL     1       0.630  24.733   3.215  1.00  0.00    -0.046 A
HETATM    5  C5  UNL     1       1.560  25.312   2.238  1.00  0.00     0.049 C
HETATM    6  C6  UNL     1       0.773  23.504   3.856  1.00  0.00     0.020 A
HETATM    7  C7  UNL     1      -0.057  23.391   4.969  1.00  0.00     0.088 A
HETATM    8  N1  UNL     1      -0.937  24.344   5.403  1.00  0.00    -0.354 N
ATOM      9  H1  UNL     1      -1.500  24.154   6.231  1.00  0.00     0.166 HD
HETATM   10  S1  UNL     1       0.355  21.897   5.659  1.00  0.00    -0.052 SA
HETATM   11  C8  UNL     1       1.542  21.416   4.552  1.00  0.00     0.106 A
HETATM   12  N2  UNL     1       2.289  20.273   4.476  1.00  0.00    -0.184 N
ATOM     13  H2  UNL     1       2.187  19.566   5.203  1.00  0.00     0.185 HD
HETATM   14  C9  UNL     1       3.145  20.057   3.481  1.00  0.00     0.679 A
HETATM   15  N4  UNL     1       3.206  21.015   2.580  1.00  0.00    -0.184 N
ATOM     16  H4  UNL     1       3.847  20.877   1.799  1.00  0.00     0.185 HD
HETATM   17  C13 UNL     1       2.490  22.174   2.599  1.00  0.00     0.107 A
HETATM   18  C21 UNL     1       1.607  22.460   3.619  1.00  0.00     0.046 A
ENDROOT
BRANCH  17  19
HETATM   19  S2  UNL     1       2.555  22.997   1.019  1.00  0.00    -0.035 SA
BRANCH  19  20
HETATM   20  C14 UNL     1       1.428  22.194  -0.133  1.00  0.00     0.151 A
HETATM   21  N5  UNL     1       0.541  21.237   0.022  1.00  0.00    -0.335 N
HETATM   22  C15 UNL     1      -0.096  20.953  -1.139  1.00  0.00     0.062 A
ATOM     23  H5  UNL     1       0.356  20.765   0.908  1.00  0.00     0.168 HD
HETATM   24  C16 UNL     1      -1.079  20.068  -1.516  1.00  0.00     0.051 A
HETATM   25  C20 UNL     1       0.475  21.831  -2.067  1.00  0.00     0.061 A
HETATM   26  C17 UNL     1      -1.511  20.038  -2.816  1.00  0.00     0.013 A
HETATM   27 BR1  UNL     1      -2.867  18.846  -3.428  1.00  0.00    -0.051 Br
HETATM   28  C18 UNL     1      -0.972  20.893  -3.777  1.00  0.00     0.021 A
HETATM   29  C19 UNL     1       0.005  21.762  -3.365  1.00  0.00     0.033 A
HETATM   30  N6  UNL     1       1.393  22.568  -1.432  1.00  0.00    -0.335 N
ATOM     31  H6  UNL     1       1.971  23.293  -1.858  1.00  0.00     0.168 HD
ENDBRANCH  19  20
ENDBRANCH  17  19
BRANCH  14  32
HETATM   32  N3  UNL     1       3.842  19.001   3.459  1.00  0.00    -0.226 N
ATOM     33  H3  UNL     1       3.308  18.132   3.462  1.00  0.00     0.177 HD
BRANCH  32  34
HETATM   34  C10 UNL     1       5.254  18.840   3.431  1.00  0.00     0.140 C
BRANCH  34  35
HETATM   35  C11 UNL     1       5.916  19.582   4.583  1.00  0.00     0.051 C
BRANCH  35  36
HETATM   36  C12 UNL     1       6.837  20.649   3.999  1.00  0.00     0.224 C
HETATM   37  F1  UNL     1       6.146  21.789   3.686  1.00  0.00    -0.255 F
ENDBRANCH  35  36
ENDBRANCH  34  35
ENDBRANCH  32  34
ENDBRANCH  14  32
TORSDOF 6
ENDMDL