MODEL 4
REMARK VINA RESULT: -6.472660565      5.342     10.036
REMARK  6 active torsions:
REMARK  status: ('A' for Active; 'I' for Inactive)
REMARK    1  A    between atoms: C3_5  and  C4_6
REMARK    2  A    between atoms: C4_6  and  O1_7
REMARK    3  A    between atoms: O1_7  and  N2_8
REMARK    4  A    between atoms: C5_10  and  C6_11
REMARK    5  A    between atoms: C7_12  and  O2_13
REMARK    6  A    between atoms: C11_21  and  N4_22
ROOT
HETATM    1  C6  UNL     1       7.213  19.846   3.792  1.00  0.00     0.046 A
HETATM    2  C7  UNL     1       8.429  19.294   4.141  1.00  0.00     0.153 A
HETATM    3  N3  UNL     1       8.209  18.351   5.066  1.00  0.00    -0.336 N
ATOM      4  H3  UNL     1       8.940  17.786   5.498  1.00  0.00     0.168 HD
HETATM    5  C8  UNL     1       6.914  18.248   5.348  1.00  0.00     0.048 A
HETATM    6  C9  UNL     1       6.186  17.455   6.201  1.00  0.00     0.052 A
HETATM    7  C10 UNL     1       4.809  17.573   6.283  1.00  0.00     0.041 A
HETATM    8 BR1  UNL     1       3.916  16.337   7.430  1.00  0.00    -0.049 Br
HETATM    9  C11 UNL     1       4.095  18.469   5.540  1.00  0.00     0.071 A
HETATM   10  C19 UNL     1       4.870  19.264   4.679  1.00  0.00     0.075 A
HETATM   11 CL1  UNL     1       4.036  20.471   3.772  1.00  0.00    -0.081 Cl
HETATM   12  C20 UNL     1       6.241  19.186   4.557  1.00  0.00     0.031 A
ENDROOT
BRANCH   1  13
HETATM   13  C5  UNL     1       6.944  20.895   2.831  1.00  0.00     0.130 C
HETATM   14  N2  UNL     1       6.807  20.754   1.602  1.00  0.00    -0.277 N
ATOM     15  H2  UNL     1       6.629  21.673   1.195  1.00  0.00     0.193 HD
BRANCH  14  16
HETATM   16  O1  UNL     1       6.805  19.880   0.642  1.00  0.00    -0.275 OA
BRANCH  16  17
HETATM   17  C4  UNL     1       7.894  19.028   0.319  1.00  0.00     0.258 C
BRANCH  17  18
HETATM   18  C3  UNL     1       8.841  19.709  -0.654  1.00  0.00     0.042 A
HETATM   19  N1  UNL     1       9.488  20.790  -0.357  1.00  0.00    -0.355 N
HETATM   20  C2  UNL     1      10.300  21.344  -1.242  1.00  0.00     0.047 A
ATOM     21  H1  UNL     1       9.370  21.216   0.562  1.00  0.00     0.166 HD
HETATM   22  C1  UNL     1      11.138  22.592  -1.096  1.00  0.00     0.076 C
HETATM   23  S1  UNL     1      10.156  20.290  -2.576  1.00  0.00    -0.087 SA
HETATM   24  C21 UNL     1       9.041  19.180  -1.910  1.00  0.00     0.078 A
ENDBRANCH  17  18
ENDBRANCH  16  17
ENDBRANCH  14  16
ENDBRANCH   1  13
BRANCH   2  25
HETATM   25  O2  UNL     1       9.676  19.652   3.622  1.00  0.00    -0.345 OA
ATOM     26  H2  UNL     1       9.931  20.517   3.323  1.00  0.00     0.219 HD
ENDBRANCH   2  25
BRANCH   9  27
HETATM   27  N4  UNL     1       2.732  18.708   5.659  1.00  0.00    -0.374 N
HETATM   28  C12 UNL     1       1.774  18.159   4.707  1.00  0.00     0.142 C
HETATM   29  C13 UNL     1       0.413  17.954   5.420  1.00  0.00     0.137 C
HETATM   30  N5  UNL     1      -0.123  19.218   5.804  1.00  0.00    -0.406 N
HETATM   31  C14 UNL     1      -1.299  19.611   5.090  1.00  0.00     0.144 C
HETATM   32  C15 UNL     1       0.829  20.234   6.016  1.00  0.00     0.036 C
HETATM   33  C16 UNL     1       1.137  21.163   4.912  1.00  0.00     0.039 C
HETATM   34  C17 UNL     1       0.288  21.099   7.172  1.00  0.00     0.039 C
HETATM   35  C18 UNL     1       2.090  19.580   6.639  1.00  0.00     0.153 C
ENDBRANCH   9  27
TORSDOF 6
ENDMDL