MODEL 3
REMARK VINA RESULT: -7.212600265      3.147      7.102
REMARK  14 active torsions:
REMARK  status: ('A' for Active; 'I' for Inactive)
REMARK    1  A    between atoms: C2_5  and  O1_6
REMARK    2  A    between atoms: O1_6  and  C3_7
REMARK    3  A    between atoms: C4_8  and  O2_9
REMARK    4  A    between atoms: C5_11  and  N3_12
REMARK    5  A    between atoms: C7_17  and  N4_18
REMARK    6  A    between atoms: C8_22  and  O3_23
REMARK    7  A    between atoms: O3_23  and  C9_24
REMARK    8  A    between atoms: C10_25  and  N5_26
REMARK    9  A    between atoms: C12_31  and  N6_32
REMARK   10  A    between atoms: C13_36  and  O4_37
REMARK   11  A    between atoms: C14_39  and  S1_40
REMARK   12  A    between atoms: C15_42  and  O5_43
REMARK   13  A    between atoms: C16_45  and  C17_46
REMARK   14  A    between atoms: C17_46  and  N7_47
REMARK       I    between atoms: N7_47  and  C18_50
REMARK       I    between atoms: C18_50  and  N8_51
REMARK       I    between atoms: C18_50  and  N9_55
ROOT
HETATM    1  C3  UNL     1      31.236   2.560 -48.604  1.00  0.00     0.186 C
HETATM    2  C4  UNL     1      32.753   2.345 -48.876  1.00  0.00     0.180 C
HETATM    3  C5  UNL     1      32.952   1.072 -49.628  1.00  0.00     0.216 C
HETATM    4  C6  UNL     1      32.179   0.964 -50.891  1.00  0.00     0.071 C
HETATM    5  C7  UNL     1      30.694   1.177 -50.610  1.00  0.00     0.217 C
HETATM    6  C8  UNL     1      30.603   2.539 -49.957  1.00  0.00     0.184 C
ENDROOT
BRANCH   1   7
HETATM    7  O1  UNL     1      30.881   1.464 -47.868  1.00  0.00    -0.354 OA
BRANCH   7   8
HETATM    8  C2  UNL     1      30.450   1.656 -46.591  1.00  0.00     0.252 C
HETATM    9  N2  UNL     1      31.338   2.536 -45.907  1.00  0.00    -0.353 N
HETATM   10  C1  UNL     1      30.923   3.734 -45.771  1.00  0.00     0.099 C
ATOM     11  H2  UNL     1      32.243   2.229 -45.549  1.00  0.00     0.163 HD
HETATM   12  N1  UNL     1      31.573   4.846 -45.138  1.00  0.00    -0.087 NA
HETATM   13  C16 UNL     1      29.575   3.810 -46.405  1.00  0.00     0.109 C
HETATM   14  C15 UNL     1      29.121   2.379 -46.500  1.00  0.00     0.179 C
BRANCH  13  15
HETATM   15  C17 UNL     1      28.629   4.643 -45.566  1.00  0.00     0.251 C
BRANCH  15  16
HETATM   16  N7  UNL     1      28.938   4.407 -44.182  1.00  0.00    -0.021 N
HETATM   17  C18 UNL     1      27.817   4.594 -43.296  1.00  0.00     0.575 C
HETATM   18  N8  UNL     1      26.731   3.708 -43.614  1.00  0.00    -0.026 N
HETATM   19  N9  UNL     1      27.357   5.958 -43.330  1.00  0.00    -0.026 N
ATOM     20  H83 UNL     1      26.451   3.799 -44.591  1.00  0.00     0.278 HD
ATOM     21  H82 UNL     1      27.036   2.735 -43.625  1.00  0.00     0.278 HD
ATOM     22  H81 UNL     1      25.937   3.841 -42.987  1.00  0.00     0.278 HD
ATOM     23  H93 UNL     1      28.111   6.615 -43.128  1.00  0.00     0.278 HD
ATOM     24  H92 UNL     1      27.140   6.260 -44.281  1.00  0.00     0.278 HD
ATOM     25  H91 UNL     1      26.564   6.091 -42.703  1.00  0.00     0.278 HD
ATOM     26  H72 UNL     1      29.343   3.479 -44.057  1.00  0.00     0.281 HD
ATOM     27  H71 UNL     1      29.729   4.980 -43.887  1.00  0.00     0.281 HD
ENDBRANCH  15  16
ENDBRANCH  13  15
BRANCH  14  28
HETATM   28  O5  UNL     1      28.443   1.934 -45.391  1.00  0.00    -0.390 OA
ATOM     29  H5  UNL     1      29.062   1.802 -44.682  1.00  0.00     0.210 HD
ENDBRANCH  14  28
ENDBRANCH   7   8
ENDBRANCH   1   7
BRANCH   2  30
HETATM   30  O2  UNL     1      33.204   3.403 -49.656  1.00  0.00    -0.391 OA
ATOM     31  H2  UNL     1      33.506   3.048 -50.484  1.00  0.00     0.210 HD
ENDBRANCH   2  30
BRANCH   6  32
HETATM   32  O3  UNL     1      29.382   3.145 -50.005  1.00  0.00    -0.372 OA
BRANCH  32  33
HETATM   33  C9  UNL     1      28.405   2.378 -50.592  1.00  0.00     0.169 C
HETATM   34  C10 UNL     1      27.349   2.060 -49.542  1.00  0.00     0.215 C
HETATM   35  C11 UNL     1      26.364   1.054 -50.161  1.00  0.00     0.070 C
HETATM   36  C12 UNL     1      25.681   1.775 -51.297  1.00  0.00     0.215 C
HETATM   37  C13 UNL     1      26.703   2.069 -52.368  1.00  0.00     0.165 C
HETATM   38  C14 UNL     1      27.812   2.972 -51.813  1.00  0.00     0.121 C
BRANCH  34  39
HETATM   39  N5  UNL     1      26.605   3.274 -49.291  1.00  0.00    -0.072 N
ATOM     40  H53 UNL     1      26.626   3.557 -48.311  1.00  0.00     0.274 HD
ATOM     41  H52 UNL     1      27.054   4.104 -49.680  1.00  0.00     0.274 HD
ATOM     42  H51 UNL     1      25.658   3.133 -49.643  1.00  0.00     0.274 HD
ENDBRANCH  34  39
BRANCH  36  43
HETATM   43  N6  UNL     1      24.660   0.937 -51.854  1.00  0.00    -0.072 N
ATOM     44  H63 UNL     1      24.987   0.428 -52.676  1.00  0.00     0.274 HD
ATOM     45  H62 UNL     1      24.453   0.135 -51.258  1.00  0.00     0.274 HD
ATOM     46  H61 UNL     1      23.830   1.495 -52.052  1.00  0.00     0.274 HD
ENDBRANCH  36  43
BRANCH  37  47
HETATM   47  O4  UNL     1      27.203   0.911 -52.940  1.00  0.00    -0.392 OA
ATOM     48  H4  UNL     1      27.389   1.023 -53.864  1.00  0.00     0.210 HD
ENDBRANCH  37  47
BRANCH  38  49
HETATM   49  S1  UNL     1      27.092   4.611 -51.568  1.00  0.00    -0.075 SA
HETATM   50  S2  UNL     1      27.243   5.828 -53.287  1.00  0.00    -0.013 SA
ENDBRANCH  38  49
ENDBRANCH  32  33
ENDBRANCH   6  32
BRANCH   3  51
HETATM   51  N3  UNL     1      32.790  -0.126 -48.828  1.00  0.00    -0.072 N
ATOM     52  H33 UNL     1      33.230  -0.007 -47.915  1.00  0.00     0.274 HD
ATOM     53  H32 UNL     1      31.818  -0.234 -48.539  1.00  0.00     0.274 HD
ATOM     54  H31 UNL     1      33.125  -0.980 -49.276  1.00  0.00     0.274 HD
ENDBRANCH   3  51
BRANCH   5  55
HETATM   55  N4  UNL     1      30.161   0.105 -49.842  1.00  0.00    -0.072 N
ATOM     56  H43 UNL     1      30.638  -0.775 -50.043  1.00  0.00     0.274 HD
ATOM     57  H42 UNL     1      30.405   0.191 -48.856  1.00  0.00     0.274 HD
ATOM     58  H41 UNL     1      29.153   0.026 -49.974  1.00  0.00     0.274 HD
ENDBRANCH   5  55
TORSDOF 14
ENDMDL