MODEL 3
REMARK VINA RESULT: -7.875698589      1.635      2.169
REMARK  17 active torsions:
REMARK  status: ('A' for Active; 'I' for Inactive)
REMARK    1  A    between atoms: C2_2  and  C3_3
REMARK    2  A    between atoms: C2_2  and  O2_6
REMARK    3  A    between atoms: C3_3  and  O1_4
REMARK    4  A    between atoms: O2_6  and  C4_7
REMARK    5  A    between atoms: C4_7  and  C6_9
REMARK    6  A    between atoms: C6_9  and  O3_10
REMARK    7  A    between atoms: C8_13  and  O4_14
REMARK    8  A    between atoms: O4_14  and  C9_15
REMARK    9  A    between atoms: C10_19  and  O5_20
REMARK   10  A    between atoms: C11_24  and  O6_25
REMARK   11  A    between atoms: O6_25  and  C12_26
REMARK   12  A    between atoms: C13_27  and  O7_28
REMARK   13  A    between atoms: C14_30  and  O8_31
REMARK   14  A    between atoms: C15_33  and  O9_34
REMARK   15  A    between atoms: C16_36  and  O10_37
REMARK   16  A    between atoms: C17_39  and  C18_40
REMARK   17  A    between atoms: C18_40  and  O11_41
ROOT
HETATM    1  C9  UNL     1      26.992   2.778 -50.461  1.00  0.00     0.379 C
HETATM    2  N1  UNL     1      26.344   3.406 -51.630  1.00  0.00    -0.002 N
ATOM      3  H11 UNL     1      25.456   3.863 -51.421  1.00  0.00     0.285 HD
ATOM      4  H12 UNL     1      25.969   2.742 -52.308  1.00  0.00     0.285 HD
HETATM    5  C10 UNL     1      27.375   4.305 -52.171  1.00  0.00     0.435 C
HETATM    6  N2  UNL     1      28.429   3.479 -52.686  1.00  0.00    -0.086 NA
HETATM    7  N3  UNL     1      29.065   2.868 -51.575  1.00  0.00    -0.107 NA
HETATM    8  C11 UNL     1      28.090   1.927 -50.978  1.00  0.00     0.287 C
ENDROOT
BRANCH   1   9
HETATM    9  O4  UNL     1      25.965   2.123 -49.767  1.00  0.00    -0.293 OA
BRANCH   9  10
HETATM   10  C8  UNL     1      25.325   1.078 -50.416  1.00  0.00     0.186 C
HETATM   11  C7  UNL     1      24.688   0.114 -49.764  1.00  0.00     0.107 C
HETATM   12  C6  UNL     1      24.050  -0.937 -50.618  1.00  0.00     0.214 C
HETATM   13  O13 UNL     1      25.032  -1.307 -51.544  1.00  0.00    -0.319 OA
HETATM   14  C19 UNL     1      25.107  -0.260 -52.470  1.00  0.00     0.268 C
HETATM   15  O12 UNL     1      25.314   0.982 -51.816  1.00  0.00    -0.299 OA
HETATM   16  C20 UNL     1      26.286  -0.553 -53.371  1.00  0.00     0.071 C
BRANCH  12  17
HETATM   17  C4  UNL     1      23.566  -2.092 -49.829  1.00  0.00     0.184 C
HETATM   18  C5  UNL     1      24.042  -3.424 -50.473  1.00  0.00     0.046 C
BRANCH  17  19
HETATM   19  O2  UNL     1      22.179  -2.140 -49.842  1.00  0.00    -0.373 OA
BRANCH  19  20
HETATM   20  C2  UNL     1      21.600  -2.788 -48.789  1.00  0.00     0.141 C
HETATM   21  C1  UNL     1      21.013  -4.091 -49.423  1.00  0.00     0.042 C
BRANCH  20  22
HETATM   22  C3  UNL     1      20.402  -2.052 -48.277  1.00  0.00     0.195 C
BRANCH  22  23
HETATM   23  O1  UNL     1      19.207  -2.744 -48.369  1.00  0.00    -0.398 OA
ATOM     24  H1  UNL     1      18.577  -2.549 -47.685  1.00  0.00     0.209 HD
ENDBRANCH  22  23
ENDBRANCH  20  22
ENDBRANCH  19  20
ENDBRANCH  17  19
ENDBRANCH  12  17
BRANCH  12  25
HETATM   25  O3  UNL     1      23.020  -0.362 -51.332  1.00  0.00    -0.360 OA
ATOM     26  H3  UNL     1      22.180  -0.568 -50.939  1.00  0.00     0.213 HD
ENDBRANCH  12  25
ENDBRANCH   9  10
ENDBRANCH   1   9
BRANCH   8  27
HETATM   27  O6  UNL     1      28.725   1.156 -50.038  1.00  0.00    -0.355 OA
BRANCH  27  28
HETATM   28  C12 UNL     1      30.028   1.489 -49.797  1.00  0.00     0.164 C
HETATM   29  C13 UNL     1      30.896   0.260 -49.609  1.00  0.00     0.179 C
HETATM   30  C14 UNL     1      32.131   0.488 -48.798  1.00  0.00     0.180 C
HETATM   31  C15 UNL     1      32.695   1.869 -48.866  1.00  0.00     0.178 C
HETATM   32  C16 UNL     1      31.647   2.949 -48.797  1.00  0.00     0.158 C
HETATM   33  C17 UNL     1      30.278   2.330 -48.573  1.00  0.00     0.072 C
BRANCH  29  34
HETATM   34  O7  UNL     1      31.276  -0.169 -50.904  1.00  0.00    -0.390 OA
ATOM     35  H7  UNL     1      32.148  -0.535 -50.824  1.00  0.00     0.210 HD
ENDBRANCH  29  34
BRANCH  30  36
HETATM   36  O8  UNL     1      33.086  -0.446 -49.204  1.00  0.00    -0.390 OA
ATOM     37  H8  UNL     1      32.774  -0.848 -50.007  1.00  0.00     0.210 HD
ENDBRANCH  30  36
BRANCH  31  38
HETATM   38  O9  UNL     1      33.610   2.111 -47.849  1.00  0.00    -0.390 OA
ATOM     39  H9  UNL     1      33.890   1.309 -47.423  1.00  0.00     0.210 HD
ENDBRANCH  31  38
BRANCH  32  40
HETATM   40  O10 UNL     1      31.589   3.654 -49.991  1.00  0.00    -0.392 OA
ATOM     41  H10 UNL     1      31.385   3.073 -50.714  1.00  0.00     0.210 HD
ENDBRANCH  32  40
BRANCH  33  42
HETATM   42  C18 UNL     1      29.245   3.299 -48.191  1.00  0.00     0.174 C
BRANCH  42  43
HETATM   43  O11 UNL     1      28.207   2.660 -47.519  1.00  0.00    -0.400 OA
ATOM     44  H11 UNL     1      28.363   1.724 -47.484  1.00  0.00     0.209 HD
ENDBRANCH  42  43
ENDBRANCH  33  42
ENDBRANCH  27  28
ENDBRANCH   8  27
BRANCH   5  45
HETATM   45  O5  UNL     1      26.785   5.104 -53.129  1.00  0.00    -0.357 OA
ATOM     46  H5  UNL     1      27.324   5.074 -53.910  1.00  0.00     0.213 HD
ENDBRANCH   5  45
TORSDOF 17
ENDMDL