MODEL 1
REMARK VINA RESULT: -9.202057640      0.000      0.000
REMARK  16 active torsions:
REMARK  status: ('A' for Active; 'I' for Inactive)
REMARK    1  A    between atoms: N1_1  and  C1_5
REMARK    2  A    between atoms: C1_5  and  C2_6
REMARK    3  A    between atoms: C4_9  and  N2_10
REMARK    4  A    between atoms: C6_12  and  C7_13
REMARK    5  A    between atoms: C7_13  and  N3_14
REMARK    6  A    between atoms: N3_14  and  C8_16
REMARK    7  A    between atoms: C10_18  and  N4_19
REMARK    8  A    between atoms: C11_23  and  O1_24
REMARK    9  A    between atoms: C12_26  and  N5_27
REMARK       I    between atoms: N5_27  and  C13_29
REMARK   10  A    between atoms: N7_31  and  O2_33
REMARK   11  A    between atoms: C14_35  and  O3_36
REMARK   12  A    between atoms: C15_43  and  C16_44
REMARK   13  A    between atoms: C16_44  and  O5_45
REMARK   14  A    between atoms: C17_47  and  O6_48
REMARK   15  A    between atoms: C17_47  and  C18_50
REMARK   16  A    between atoms: N10_51  and  O7_53
ROOT
HETATM    1  N2  UNL     1      29.658   3.937 -48.823  1.00  0.00    -0.223 N
HETATM    2  C5  UNL     1      29.348   3.786 -50.120  1.00  0.00     0.149 A
HETATM    3  C6  UNL     1      28.065   4.311 -50.347  1.00  0.00     0.062 A
HETATM    4  N8  UNL     1      27.653   4.753 -49.185  1.00  0.00    -0.287 N
ATOM      5  H8  UNL     1      26.752   5.194 -49.000  1.00  0.00     0.188 HD
HETATM    6  N9  UNL     1      28.621   4.524 -48.277  1.00  0.00    -0.234 N
ATOM      7  H9  UNL     1      28.555   4.775 -47.291  1.00  0.00     0.209 HD
ENDROOT
BRANCH   3   8
HETATM    8  C7  UNL     1      27.415   4.392 -51.683  1.00  0.00     0.174 C
BRANCH   8   9
HETATM    9  N3  UNL     1      26.413   3.381 -51.815  1.00  0.00    -0.409 N
ATOM     10  H3  UNL     1      25.420   3.618 -51.813  1.00  0.00     0.154 HD
BRANCH   9  11
HETATM   11  C8  UNL     1      26.845   2.035 -51.948  1.00  0.00     0.109 C
HETATM   12  C9  UNL     1      27.255   1.492 -50.594  1.00  0.00     0.062 C
HETATM   13  C10 UNL     1      26.124   1.046 -49.732  1.00  0.00     0.216 C
HETATM   14  C11 UNL     1      25.143   0.218 -50.493  1.00  0.00     0.173 C
HETATM   15  C12 UNL     1      25.545  -0.112 -51.883  1.00  0.00     0.145 C
HETATM   16  C14 UNL     1      26.041   1.065 -52.699  1.00  0.00     0.165 C
BRANCH  13  17
HETATM   17  N4  UNL     1      25.433   2.133 -49.099  1.00  0.00    -0.072 N
ATOM     18  H43 UNL     1      26.085   2.731 -48.591  1.00  0.00     0.274 HD
ATOM     19  H42 UNL     1      25.096   2.803 -49.792  1.00  0.00     0.274 HD
ATOM     20  H41 UNL     1      24.673   1.827 -48.491  1.00  0.00     0.274 HD
ENDBRANCH  13  17
BRANCH  14  21
HETATM   21  O1  UNL     1      25.013  -1.011 -49.801  1.00  0.00    -0.391 OA
ATOM     22  H1  UNL     1      24.178  -0.988 -49.348  1.00  0.00     0.210 HD
ENDBRANCH  14  21
BRANCH  15  23
HETATM   23  N5  UNL     1      24.463  -0.747 -52.586  1.00  0.00    -0.353 N
HETATM   24  C13 UNL     1      23.149  -0.927 -52.135  1.00  0.00     0.208 C
HETATM   25  N6  UNL     1      22.070  -0.040 -52.257  1.00  0.00    -0.062 NA
HETATM   26  N7  UNL     1      22.906  -2.059 -51.523  1.00  0.00    -0.241 N
ATOM     27  H7  UNL     1      21.963  -2.233 -51.175  1.00  0.00     0.197 HD
ATOM     28  H5  UNL     1      24.676  -1.106 -53.516  1.00  0.00     0.162 HD
BRANCH  26  29
HETATM   29  O2  UNL     1      23.861  -3.020 -51.332  1.00  0.00    -0.287 OA
ATOM     30  H2  UNL     1      23.796  -3.684 -50.656  1.00  0.00     0.244 HD
ENDBRANCH  26  29
ENDBRANCH  15  23
BRANCH  16  31
HETATM   31  O3  UNL     1      26.867   0.462 -53.697  1.00  0.00    -0.391 OA
ATOM     32  H3  UNL     1      26.311   0.134 -54.394  1.00  0.00     0.210 HD
ENDBRANCH  16  31
ENDBRANCH   9  11
ENDBRANCH   8   9
ENDBRANCH   3   8
BRANCH   1  33
HETATM   33  C4  UNL     1      30.883   3.566 -48.155  1.00  0.00     0.205 C
HETATM   34  S1  UNL     1      30.514   2.959 -46.453  1.00  0.00    -0.084 SA
HETATM   35  C3  UNL     1      30.123   1.181 -46.700  1.00  0.00     0.092 C
HETATM   36  C2  UNL     1      31.474   0.595 -47.137  1.00  0.00     0.063 C
HETATM   37  C17 UNL     1      31.517   0.515 -48.624  1.00  0.00     0.126 C
HETATM   38  C15 UNL     1      31.915   1.756 -49.344  1.00  0.00     0.194 C
HETATM   39  O4  UNL     1      31.830   2.941 -48.799  1.00  0.00    -0.318 OA
BRANCH  36  40
HETATM   40  C1  UNL     1      31.533  -0.761 -46.472  1.00  0.00     0.238 C
BRANCH  40  41
HETATM   41  N1  UNL     1      32.117  -0.565 -45.146  1.00  0.00    -0.079 N
ATOM     42  H13 UNL     1      33.115  -0.358 -45.175  1.00  0.00     0.274 HD
ATOM     43  H12 UNL     1      31.816   0.301 -44.700  1.00  0.00     0.274 HD
ATOM     44  H11 UNL     1      31.898  -1.395 -44.595  1.00  0.00     0.274 HD
ENDBRANCH  40  41
ENDBRANCH  36  40
BRANCH  37  45
HETATM   45  O6  UNL     1      30.274   0.027 -49.069  1.00  0.00    -0.381 OA
ATOM     46  H6  UNL     1      30.042   0.496 -49.862  1.00  0.00     0.211 HD
ENDBRANCH  37  45
BRANCH  37  47
HETATM   47  C18 UNL     1      32.495  -0.593 -48.916  1.00  0.00     0.127 C
HETATM   48  N10 UNL     1      33.692  -0.406 -49.286  1.00  0.00    -0.281 N
ATOM     49  H10 UNL     1      34.076   0.531 -49.409  1.00  0.00     0.193 HD
BRANCH  48  50
HETATM   50  O7  UNL     1      34.460  -1.555 -49.515  1.00  0.00    -0.290 OA
ATOM     51  H7  UNL     1      35.261  -1.435 -50.012  1.00  0.00     0.244 HD
ENDBRANCH  48  50
ENDBRANCH  37  47
BRANCH  38  52
HETATM   52  C16 UNL     1      31.422   1.628 -50.798  1.00  0.00     0.200 C
BRANCH  52  53
HETATM   53  O5  UNL     1      32.130   0.652 -51.494  1.00  0.00    -0.398 OA
ATOM     54  H5  UNL     1      31.546   0.038 -51.924  1.00  0.00     0.209 HD
ENDBRANCH  52  53
ENDBRANCH  38  52
ENDBRANCH   1  33
TORSDOF 16
ENDMDL