MODEL 2
REMARK VINA RESULT: -6.753625885      1.012      1.299
REMARK  20 active torsions:
REMARK  status: ('A' for Active; 'I' for Inactive)
REMARK    1  A    between atoms: N1_1  and  N2_4
REMARK    2  A    between atoms: N3_6  and  C1_8
REMARK    3  A    between atoms: C1_8  and  C2_9
REMARK    4  A    between atoms: C3_11  and  N4_12
REMARK    5  A    between atoms: N4_12  and  O2_13
REMARK    6  A    between atoms: C4_15  and  N5_16
REMARK    7  A    between atoms: C5_20  and  O3_21
REMARK    8  A    between atoms: O3_21  and  C6_22
REMARK    9  A    between atoms: C7_23  and  N6_24
REMARK   10  A    between atoms: C9_29  and  N7_30
REMARK   11  A    between atoms: C10_34  and  O4_35
REMARK   12  A    between atoms: O4_35  and  C11_36
REMARK   13  A    between atoms: C12_37  and  N8_38
REMARK   14  A    between atoms: C14_43  and  N9_44
REMARK   15  A    between atoms: C15_48  and  O5_49
REMARK   16  A    between atoms: C16_51  and  O6_52
REMARK   17  A    between atoms: C17_54  and  O7_55
REMARK   18  A    between atoms: O7_55  and  C18_56
REMARK   19  A    between atoms: C18_56  and  O8_57
REMARK   20  A    between atoms: C18_56  and  O9_59
ROOT
HETATM    1  C6  UNL     1      28.899   3.125 -48.298  1.00  0.00     0.186 C
HETATM    2  C7  UNL     1      28.035   4.085 -47.460  1.00  0.00     0.217 C
HETATM    3  C8  UNL     1      26.785   3.310 -47.197  1.00  0.00     0.071 C
HETATM    4  C9  UNL     1      26.023   3.164 -48.465  1.00  0.00     0.217 C
HETATM    5  C10 UNL     1      26.805   2.760 -49.658  1.00  0.00     0.184 C
HETATM    6  C17 UNL     1      28.265   3.069 -49.640  1.00  0.00     0.189 C
ENDROOT
BRANCH   1   7
HETATM    7  O3  UNL     1      30.144   3.702 -48.328  1.00  0.00    -0.349 OA
BRANCH   7   8
HETATM    8  C5  UNL     1      31.175   2.855 -48.700  1.00  0.00     0.298 C
HETATM    9  C4  UNL     1      31.294   1.772 -47.652  1.00  0.00     0.284 C
HETATM   10  C3  UNL     1      32.331   0.802 -48.095  1.00  0.00     0.279 C
HETATM   11  O1  UNL     1      32.675   0.774 -49.391  1.00  0.00    -0.334 OA
HETATM   12  C2  UNL     1      32.023   1.504 -50.299  1.00  0.00     0.284 C
HETATM   13  O10 UNL     1      30.896   2.181 -49.890  1.00  0.00    -0.328 OA
BRANCH   9  14
HETATM   14  N5  UNL     1      31.600   2.278 -46.334  1.00  0.00    -0.067 N
ATOM     15  H53 UNL     1      30.833   2.117 -45.679  1.00  0.00     0.275 HD
ATOM     16  H52 UNL     1      32.316   1.718 -45.870  1.00  0.00     0.275 HD
ATOM     17  H51 UNL     1      31.859   3.263 -46.377  1.00  0.00     0.275 HD
ENDBRANCH   9  14
BRANCH  10  18
HETATM   18  N4  UNL     1      31.970  -0.564 -47.681  1.00  0.00    -0.069 NA
BRANCH  18  19
HETATM   19  O2  UNL     1      31.915  -1.398 -48.742  1.00  0.00    -0.294 OA
ATOM     20  H2  UNL     1      31.259  -1.114 -49.368  1.00  0.00     0.238 HD
ENDBRANCH  18  19
ENDBRANCH  10  18
BRANCH  12  21
HETATM   21  C1  UNL     1      31.641   0.650 -51.500  1.00  0.00     0.201 C
BRANCH  21  22
HETATM   22  N3  UNL     1      32.797  -0.028 -52.057  1.00  0.00    -0.318 N
HETATM   23  N2  UNL     1      33.678  -0.469 -51.293  1.00  0.00    -0.254 N
ATOM     24  H2  UNL     1      34.348   0.300 -51.308  1.00  0.00     0.207 HD
ATOM     25  H3  UNL     1      32.889  -0.144 -53.067  1.00  0.00     0.181 HD
BRANCH  23  26
HETATM   26  N1  UNL     1      34.249  -1.266 -50.523  1.00  0.00    -0.331 N
ATOM     27  H12 UNL     1      35.106  -0.732 -50.377  1.00  0.00     0.178 HD
ATOM     28  H11 UNL     1      34.385  -2.105 -49.960  1.00  0.00     0.178 HD
ENDBRANCH  23  26
ENDBRANCH  21  22
ENDBRANCH  12  21
ENDBRANCH   7   8
ENDBRANCH   1   7
BRANCH   2  29
HETATM   29  N6  UNL     1      28.749   4.444 -46.253  1.00  0.00    -0.072 N
ATOM     30  H63 UNL     1      28.122   4.747 -45.508  1.00  0.00     0.274 HD
ATOM     31  H62 UNL     1      29.148   3.630 -45.784  1.00  0.00     0.274 HD
ATOM     32  H61 UNL     1      29.454   5.147 -46.473  1.00  0.00     0.274 HD
ENDBRANCH   2  29
BRANCH   6  33
HETATM   33  O7  UNL     1      28.519   4.320 -50.249  1.00  0.00    -0.329 OA
BRANCH  33  34
HETATM   34  C18 UNL     1      27.777   4.531 -51.382  1.00  0.00     0.408 C
BRANCH  34  35
HETATM   35  O8  UNL     1      28.503   4.012 -52.472  1.00  0.00    -0.350 OA
ATOM     36  H8  UNL     1      29.080   4.698 -52.787  1.00  0.00     0.215 HD
ENDBRANCH  34  35
BRANCH  34  37
HETATM   37  O9  UNL     1      27.580   5.904 -51.560  1.00  0.00    -0.350 OA
ATOM     38  H9  UNL     1      27.059   6.050 -52.341  1.00  0.00     0.215 HD
ENDBRANCH  34  37
ENDBRANCH  33  34
ENDBRANCH   6  33
BRANCH   5  39
HETATM   39  O4  UNL     1      26.646   1.398 -49.913  1.00  0.00    -0.371 OA
BRANCH  39  40
HETATM   40  C11 UNL     1      25.757   1.140 -50.953  1.00  0.00     0.183 C
HETATM   41  C12 UNL     1      26.403   0.427 -52.111  1.00  0.00     0.217 C
HETATM   42  C13 UNL     1      25.468  -0.385 -52.940  1.00  0.00     0.071 C
HETATM   43  C14 UNL     1      24.487  -1.209 -52.184  1.00  0.00     0.216 C
HETATM   44  C15 UNL     1      23.700  -0.267 -51.292  1.00  0.00     0.179 C
HETATM   45  C16 UNL     1      24.643   0.328 -50.312  1.00  0.00     0.180 C
BRANCH  41  46
HETATM   46  N8  UNL     1      27.002   1.404 -53.034  1.00  0.00    -0.072 N
ATOM     47  H83 UNL     1      28.005   1.261 -53.143  1.00  0.00     0.274 HD
ATOM     48  H82 UNL     1      26.722   1.237 -54.002  1.00  0.00     0.274 HD
ATOM     49  H81 UNL     1      26.781   2.352 -52.730  1.00  0.00     0.274 HD
ENDBRANCH  41  46
BRANCH  43  50
HETATM   50  N9  UNL     1      23.581  -1.843 -53.094  1.00  0.00    -0.072 N
ATOM     51  H93 UNL     1      22.633  -1.476 -53.011  1.00  0.00     0.274 HD
ATOM     52  H92 UNL     1      23.759  -1.575 -54.061  1.00  0.00     0.274 HD
ATOM     53  H91 UNL     1      23.612  -2.855 -52.964  1.00  0.00     0.274 HD
ENDBRANCH  43  50
BRANCH  44  54
HETATM   54  O5  UNL     1      23.138   0.718 -52.089  1.00  0.00    -0.391 OA
ATOM     55  H5  UNL     1      22.623   1.293 -51.535  1.00  0.00     0.210 HD
ENDBRANCH  44  54
BRANCH  45  56
HETATM   56  O6  UNL     1      25.139  -0.609 -49.436  1.00  0.00    -0.390 OA
ATOM     57  H6  UNL     1      24.791  -1.474 -49.618  1.00  0.00     0.210 HD
ENDBRANCH  45  56
ENDBRANCH  39  40
ENDBRANCH   5  39
BRANCH   4  58
HETATM   58  N7  UNL     1      25.266   4.388 -48.664  1.00  0.00    -0.072 N
ATOM     59  H73 UNL     1      25.860   5.209 -48.775  1.00  0.00     0.274 HD
ATOM     60  H72 UNL     1      24.811   4.429 -49.576  1.00  0.00     0.274 HD
ATOM     61  H71 UNL     1      24.610   4.473 -47.887  1.00  0.00     0.274 HD
ENDBRANCH   4  58
TORSDOF 20
ENDMDL