MODEL 4
REMARK VINA RESULT: -6.264354132      1.436      2.654
REMARK  14 active torsions:
REMARK  status: ('A' for Active; 'I' for Inactive)
REMARK    1  A    between atoms: C2_2  and  O2_4
REMARK    2  A    between atoms: O2_4  and  C3_5
REMARK    3  A    between atoms: C3_5  and  C4_6
REMARK    4  A    between atoms: N2_13  and  C8_14
REMARK    5  A    between atoms: C8_14  and  N3_15
REMARK    6  A    between atoms: N3_15  and  C9_17
REMARK    7  A    between atoms: C12_20  and  C13_21
REMARK    8  A    between atoms: C15_28  and  O5_29
REMARK    9  A    between atoms: C16_33  and  O6_34
REMARK   10  A    between atoms: C17_39  and  C18_40
REMARK   11  A    between atoms: C17_39  and  C19_43
REMARK   12  A    between atoms: C18_40  and  O7_41
REMARK   13  A    between atoms: C19_43  and  O8_44
REMARK   14  A    between atoms: C20_46  and  O9_47
ROOT
HETATM    1  C13 UNL     1      28.290   4.041 -50.196  1.00  0.00     0.254 C
HETATM    2  N4  UNL     1      29.675   3.636 -50.504  1.00  0.00    -0.327 N
ATOM      3  H4  UNL     1      29.896   3.660 -51.499  1.00  0.00     0.165 HD
HETATM    4  C14 UNL     1      30.664   3.256 -49.766  1.00  0.00     0.189 C
HETATM    5  N5  UNL     1      31.858   2.954 -50.531  1.00  0.00    -0.064 NA
HETATM    6  N6  UNL     1      30.847   3.068 -48.362  1.00  0.00    -0.322 N
ATOM      7  H6  UNL     1      31.817   3.176 -48.068  1.00  0.00     0.166 HD
HETATM    8  C15 UNL     1      29.970   2.763 -47.284  1.00  0.00     0.328 C
HETATM    9  N7  UNL     1      28.632   2.536 -47.553  1.00  0.00    -0.325 N
ATOM     10  H7  UNL     1      28.219   1.691 -47.159  1.00  0.00     0.162 HD
HETATM   11  C16 UNL     1      27.810   3.343 -48.302  1.00  0.00     0.323 C
HETATM   12  N8  UNL     1      28.283   4.567 -48.819  1.00  0.00     0.009 N
ATOM     13  H81 UNL     1      27.769   5.424 -48.617  1.00  0.00     0.286 HD
ATOM     14  H82 UNL     1      29.138   4.970 -48.437  1.00  0.00     0.286 HD
HETATM   15  C17 UNL     1      27.471   2.910 -49.705  1.00  0.00     0.137 C
ENDROOT
BRANCH   1  16
HETATM   16  C12 UNL     1      27.737   5.018 -51.123  1.00  0.00     0.033 A
HETATM   17  C11 UNL     1      27.340   6.259 -50.688  1.00  0.00     0.017 A
HETATM   18  C10 UNL     1      26.819   7.224 -51.519  1.00  0.00     0.030 A
HETATM   19  C9  UNL     1      26.687   6.932 -52.855  1.00  0.00     0.031 A
HETATM   20  C21 UNL     1      27.067   5.717 -53.322  1.00  0.00     0.066 A
HETATM   21  C20 UNL     1      27.597   4.741 -52.469  1.00  0.00     0.078 A
BRANCH  19  22
HETATM   22  N3  UNL     1      26.138   7.955 -53.714  1.00  0.00    -0.372 N
ATOM     23  H3  UNL     1      26.718   8.391 -54.432  1.00  0.00     0.161 HD
BRANCH  22  24
HETATM   24  C8  UNL     1      24.738   8.363 -53.545  1.00  0.00     0.264 C
BRANCH  24  25
HETATM   25  N2  UNL     1      24.009   7.941 -54.687  1.00  0.00    -0.269 N
HETATM   26  C3  UNL     1      22.792   8.591 -54.970  1.00  0.00     0.247 C
HETATM   27  C5  UNL     1      22.473   8.252 -56.392  1.00  0.00     0.097 C
HETATM   28  C6  UNL     1      23.730   7.594 -56.881  1.00  0.00     0.100 C
HETATM   29  C7  UNL     1      23.477   6.141 -57.261  1.00  0.00     0.030 C
HETATM   30  N1  UNL     1      24.644   7.610 -55.802  1.00  0.00    -0.134 NA
BRANCH  26  31
HETATM   31  O2  UNL     1      22.790   9.988 -54.737  1.00  0.00    -0.277 OA
BRANCH  31  32
HETATM   32  C2  UNL     1      21.755  10.714 -54.231  1.00  0.00     0.257 C
HETATM   33  C1  UNL     1      20.599  11.083 -55.096  1.00  0.00     0.126 C
HETATM   34  O1  UNL     1      21.732  11.088 -53.049  1.00  0.00    -0.266 OA
ENDBRANCH  31  32
ENDBRANCH  26  31
BRANCH  26  35
HETATM   35  C4  UNL     1      21.677   8.028 -54.129  1.00  0.00     0.233 C
HETATM   36  O3  UNL     1      21.861   7.908 -52.909  1.00  0.00    -0.644 OA
HETATM   37  O4  UNL     1      20.506   7.666 -54.723  1.00  0.00    -0.644 OA
ENDBRANCH  26  35
ENDBRANCH  24  25
ENDBRANCH  22  24
ENDBRANCH  19  22
BRANCH  21  38
HETATM   38  O9  UNL     1      27.967   3.519 -53.014  1.00  0.00    -0.360 OA
ATOM     39  H9  UNL     1      27.339   2.941 -53.429  1.00  0.00     0.217 HD
ENDBRANCH  21  38
ENDBRANCH   1  16
BRANCH  15  40
HETATM   40  C18 UNL     1      27.888   1.506 -50.058  1.00  0.00     0.187 C
BRANCH  40  41
HETATM   41  O7  UNL     1      27.549   1.325 -51.411  1.00  0.00    -0.400 OA
ATOM     42  H7  UNL     1      28.290   0.886 -51.812  1.00  0.00     0.209 HD
ENDBRANCH  40  41
ENDBRANCH  15  40
BRANCH  15  43
HETATM   43  C19 UNL     1      26.006   3.055 -50.051  1.00  0.00     0.187 C
BRANCH  43  44
HETATM   44  O8  UNL     1      25.285   1.893 -50.010  1.00  0.00    -0.400 OA
ATOM     45  H8  UNL     1      24.391   1.964 -50.325  1.00  0.00     0.209 HD
ENDBRANCH  43  44
ENDBRANCH  15  43
BRANCH  11  46
HETATM   46  O6  UNL     1      26.624   3.586 -47.588  1.00  0.00    -0.348 OA
ATOM     47  H6  UNL     1      26.111   4.240 -48.046  1.00  0.00     0.214 HD
ENDBRANCH  11  46
BRANCH   8  48
HETATM   48  O5  UNL     1      30.060   3.848 -46.373  1.00  0.00    -0.360 OA
ATOM     49  H5  UNL     1      29.191   3.966 -46.008  1.00  0.00     0.214 HD
ENDBRANCH   8  48
TORSDOF 14
ENDMDL