MODEL 4
REMARK VINA RESULT: -7.911509031      2.884      4.759
REMARK  19 active torsions:
REMARK  status: ('A' for Active; 'I' for Inactive)
REMARK    1  A    between atoms: C2_2  and  O2_4
REMARK    2  A    between atoms: O2_4  and  C3_5
REMARK    3  A    between atoms: C3_5  and  O3_6
REMARK    4  A    between atoms: C3_5  and  C4_8
REMARK    5  A    between atoms: C4_8  and  N1_9
REMARK    6  A    between atoms: C4_8  and  C5_13
REMARK    7  A    between atoms: C5_13  and  N2_14
REMARK    8  A    between atoms: C5_13  and  O4_18
REMARK    9  A    between atoms: O4_18  and  C6_19
REMARK   10  A    between atoms: C10_24  and  O6_25
REMARK   11  A    between atoms: C11_27  and  O7_28
REMARK   12  A    between atoms: C11_27  and  O8_30
REMARK   13  A    between atoms: N3_34  and  O9_36
REMARK   14  A    between atoms: C14_39  and  C15_40
REMARK   15  A    between atoms: C15_40  and  O11_41
REMARK   16  A    between atoms: C15_40  and  C16_43
REMARK   17  A    between atoms: C16_43  and  O12_45
REMARK   18  A    between atoms: C18_47  and  O13_48
REMARK   19  A    between atoms: C19_50  and  O14_51
ROOT
HETATM    1  C6  UNL     1      28.700   2.940 -50.275  1.00  0.00     0.240 C
HETATM    2  O5  UNL     1      28.775   2.689 -51.629  1.00  0.00    -0.311 OA
HETATM    3  C7  UNL     1      28.845   1.536 -52.209  1.00  0.00     0.167 C
HETATM    4  C8  UNL     1      29.374   1.888 -53.641  1.00  0.00     0.079 C
HETATM    5  C9  UNL     1      29.812   0.461 -51.775  1.00  0.00     0.105 C
HETATM    6  C10 UNL     1      31.206   0.882 -51.511  1.00  0.00     0.185 C
HETATM    7  C11 UNL     1      31.504   0.594 -50.056  1.00  0.00     0.191 C
HETATM    8  C12 UNL     1      30.819   1.528 -49.090  1.00  0.00     0.131 C
HETATM    9  C13 UNL     1      30.068   2.603 -49.769  1.00  0.00     0.079 C
HETATM   10  N3  UNL     1      30.867   3.570 -50.037  1.00  0.00    -0.272 N
ATOM     11  H3  UNL     1      30.453   4.364 -50.525  1.00  0.00     0.193 HD
HETATM   12  O10 UNL     1      27.701   0.822 -52.497  1.00  0.00    -0.345 OA
HETATM   13  C14 UNL     1      26.770   0.717 -51.504  1.00  0.00     0.187 C
HETATM   14  C18 UNL     1      26.536   1.962 -50.743  1.00  0.00     0.184 C
HETATM   15  C19 UNL     1      27.591   2.216 -49.664  1.00  0.00     0.218 C
ENDROOT
BRANCH   1  16
HETATM   16  O4  UNL     1      28.553   4.293 -50.188  1.00  0.00    -0.312 OA
BRANCH  16  17
HETATM   17  C5  UNL     1      27.433   4.954 -50.015  1.00  0.00     0.357 C
BRANCH  17  18
HETATM   18  C4  UNL     1      27.163   5.888 -51.169  1.00  0.00     0.294 C
BRANCH  18  19
HETATM   19  C3  UNL     1      27.209   5.123 -52.485  1.00  0.00     0.301 C
BRANCH  19  20
HETATM   20  O2  UNL     1      26.354   5.729 -53.440  1.00  0.00    -0.288 OA
BRANCH  20  21
HETATM   21  C2  UNL     1      26.609   6.961 -54.016  1.00  0.00     0.257 C
HETATM   22  C1  UNL     1      25.510   7.757 -54.605  1.00  0.00     0.126 C
HETATM   23  O1  UNL     1      27.794   7.372 -54.020  1.00  0.00    -0.266 OA
ENDBRANCH  20  21
ENDBRANCH  19  20
BRANCH  19  24
HETATM   24  O3  UNL     1      28.516   5.049 -52.960  1.00  0.00    -0.368 OA
ATOM     25  H3  UNL     1      28.701   4.188 -53.317  1.00  0.00     0.212 HD
ENDBRANCH  19  24
ENDBRANCH  18  19
BRANCH  18  26
HETATM   26  N1  UNL     1      27.947   7.069 -51.217  1.00  0.00    -0.066 N
ATOM     27  H13 UNL     1      28.554   7.144 -50.401  1.00  0.00     0.275 HD
ATOM     28  H12 UNL     1      28.661   7.010 -51.942  1.00  0.00     0.275 HD
ATOM     29  H11 UNL     1      27.371   7.903 -51.330  1.00  0.00     0.275 HD
ENDBRANCH  18  26
ENDBRANCH  17  18
BRANCH  17  30
HETATM   30  N2  UNL     1      27.426   5.901 -48.868  1.00  0.00    -0.051 N
ATOM     31  H23 UNL     1      27.334   6.886 -49.115  1.00  0.00     0.277 HD
ATOM     32  H22 UNL     1      26.589   5.875 -48.285  1.00  0.00     0.277 HD
ATOM     33  H21 UNL     1      28.295   5.649 -48.396  1.00  0.00     0.277 HD
ENDBRANCH  17  30
ENDBRANCH  16  17
ENDBRANCH   1  16
BRANCH  15  34
HETATM   34  O14 UNL     1      27.906   1.043 -48.983  1.00  0.00    -0.387 OA
ATOM     35  H14 UNL     1      27.644   0.993 -48.071  1.00  0.00     0.210 HD
ENDBRANCH  15  34
BRANCH  10  36
HETATM   36  O9  UNL     1      32.180   3.677 -49.758  1.00  0.00    -0.290 OA
ATOM     37  H9  UNL     1      32.681   4.458 -49.553  1.00  0.00     0.244 HD
ENDBRANCH  10  36
BRANCH  14  38
HETATM   38  O13 UNL     1      25.254   1.977 -50.222  1.00  0.00    -0.390 OA
ATOM     39  H13 UNL     1      25.188   2.613 -49.520  1.00  0.00     0.210 HD
ENDBRANCH  14  38
BRANCH   7  40
HETATM   40  O7  UNL     1      30.978  -0.682 -49.800  1.00  0.00    -0.363 OA
ATOM     41  H7  UNL     1      30.523  -0.615 -48.968  1.00  0.00     0.213 HD
ENDBRANCH   7  40
BRANCH   7  42
HETATM   42  O8  UNL     1      32.872   0.487 -49.826  1.00  0.00    -0.363 OA
ATOM     43  H8  UNL     1      33.226   1.287 -49.454  1.00  0.00     0.213 HD
ENDBRANCH   7  42
BRANCH  13  44
HETATM   44  C15 UNL     1      25.490   0.191 -52.075  1.00  0.00     0.178 C
BRANCH  44  45
HETATM   45  O11 UNL     1      24.707   1.215 -52.660  1.00  0.00    -0.390 OA
ATOM     46  H11 UNL     1      24.480   1.892 -52.033  1.00  0.00     0.210 HD
ENDBRANCH  44  45
BRANCH  44  47
HETATM   47  C16 UNL     1      24.632  -0.581 -51.108  1.00  0.00     0.145 C
HETATM   48  C17 UNL     1      24.151  -1.904 -51.641  1.00  0.00     0.042 C
BRANCH  47  49
HETATM   49  O12 UNL     1      25.159  -0.751 -49.862  1.00  0.00    -0.393 OA
ATOM     50  H12 UNL     1      25.489   0.037 -49.446  1.00  0.00     0.210 HD
ENDBRANCH  47  49
ENDBRANCH  44  47
ENDBRANCH  13  44
BRANCH   6  51
HETATM   51  O6  UNL     1      32.126   0.040 -52.207  1.00  0.00    -0.390 OA
ATOM     52  H6  UNL     1      33.007   0.160 -51.873  1.00  0.00     0.210 HD
ENDBRANCH   6  51
TORSDOF 19
ENDMDL