MODEL 1
REMARK VINA RESULT: -9.769360569      0.000      0.000
REMARK  16 active torsions:
REMARK  status: ('A' for Active; 'I' for Inactive)
REMARK    1  A    between atoms: C1_4  and  O1_6
REMARK    2  A    between atoms: O1_6  and  N3_7
REMARK    3  A    between atoms: C2_9  and  C3_11
REMARK    4  A    between atoms: C3_11  and  C4_12
REMARK    5  A    between atoms: C4_12  and  N5_13
REMARK    6  A    between atoms: C4_12  and  C5_17
REMARK       I    between atoms: C5_17  and  N6_19
REMARK       I    between atoms: N6_19  and  C6_21
REMARK    7  A    between atoms: C6_21  and  C7_23
REMARK    8  A    between atoms: C7_23  and  O4_24
REMARK    9  A    between atoms: O4_24  and  C8_25
REMARK   10  A    between atoms: C9_26  and  N7_27
REMARK   11  A    between atoms: C10_31  and  O5_32
REMARK   12  A    between atoms: C11_34  and  O6_35
REMARK   13  A    between atoms: C12_37  and  S1_38
REMARK   14  A    between atoms: C14_42  and  O8_43
REMARK   15  A    between atoms: C15_45  and  N8_46
REMARK   16  A    between atoms: C16_50  and  O9_51
ROOT
HETATM    1  C8  UNL     1      30.248   2.043 -49.639  1.00  0.00     0.193 C
HETATM    2  C9  UNL     1      31.459   1.525 -50.339  1.00  0.00     0.246 C
HETATM    3  C10 UNL     1      32.519   0.967 -49.468  1.00  0.00     0.181 C
HETATM    4  C11 UNL     1      32.027   0.070 -48.369  1.00  0.00     0.166 C
HETATM    5  C12 UNL     1      30.705   0.459 -47.816  1.00  0.00     0.131 C
HETATM    6  C13 UNL     1      30.290   1.867 -48.136  1.00  0.00     0.135 C
HETATM    7  O7  UNL     1      29.000   2.025 -47.682  1.00  0.00    -0.342 OA
HETATM    8  C14 UNL     1      28.902   3.106 -46.883  1.00  0.00     0.291 C
HETATM    9  C15 UNL     1      30.167   3.891 -46.910  1.00  0.00     0.269 C
HETATM   10  C16 UNL     1      31.147   2.920 -47.522  1.00  0.00     0.192 C
ENDROOT
BRANCH   1  11
HETATM   11  O4  UNL     1      29.144   1.351 -50.137  1.00  0.00    -0.371 OA
BRANCH  11  12
HETATM   12  C7  UNL     1      28.054   2.199 -50.327  1.00  0.00     0.271 C
BRANCH  12  13
HETATM   13  C6  UNL     1      26.835   1.378 -50.651  1.00  0.00     0.247 C
HETATM   14  N6  UNL     1      26.712   0.766 -51.902  1.00  0.00    -0.294 N
HETATM   15  C5  UNL     1      25.657  -0.020 -52.358  1.00  0.00     0.255 C
ATOM     16  H6  UNL     1      27.482   0.912 -52.555  1.00  0.00     0.171 HD
HETATM   17  O2  UNL     1      25.789  -0.557 -53.521  1.00  0.00    -0.271 OA
HETATM   18  O3  UNL     1      25.976   1.282 -49.766  1.00  0.00    -0.271 OA
BRANCH  15  19
HETATM   19  C4  UNL     1      24.429  -0.261 -51.594  1.00  0.00     0.281 C
BRANCH  19  20
HETATM   20  C3  UNL     1      24.049  -1.726 -51.523  1.00  0.00     0.117 C
BRANCH  20  21
HETATM   21  C2  UNL     1      23.643  -2.178 -50.188  1.00  0.00     0.116 C
HETATM   22  N3  UNL     1      22.414  -2.051 -49.823  1.00  0.00    -0.248 N
ATOM     23  H3  UNL     1      21.749  -1.633 -50.473  1.00  0.00     0.196 HD
HETATM   24  N4  UNL     1      24.557  -2.761 -49.270  1.00  0.00    -0.086 NA
BRANCH  22  25
HETATM   25  O1  UNL     1      21.966  -2.461 -48.583  1.00  0.00    -0.203 OA
BRANCH  25  26
HETATM   26  C1  UNL     1      20.826  -3.267 -48.441  1.00  0.00     0.249 C
HETATM   27  N1  UNL     1      19.820  -2.786 -47.796  1.00  0.00    -0.366 N
ATOM     28  H12 UNL     1      18.992  -3.372 -47.692  1.00  0.00     0.159 HD
ATOM     29  H11 UNL     1      19.850  -1.846 -47.400  1.00  0.00     0.159 HD
HETATM   30  N2  UNL     1      20.785  -4.572 -48.990  1.00  0.00    -0.055 NA
ENDBRANCH  25  26
ENDBRANCH  22  25
ENDBRANCH  20  21
ENDBRANCH  19  20
BRANCH  19  31
HETATM   31  N5  UNL     1      23.343   0.548 -52.068  1.00  0.00    -0.066 N
ATOM     32  H53 UNL     1      22.509  -0.013 -52.241  1.00  0.00     0.275 HD
ATOM     33  H52 UNL     1      22.979   1.150 -51.330  1.00  0.00     0.275 HD
ATOM     34  H51 UNL     1      23.605   1.087 -52.892  1.00  0.00     0.275 HD
ENDBRANCH  19  31
ENDBRANCH  15  19
ENDBRANCH  12  13
ENDBRANCH  11  12
ENDBRANCH   1  11
BRANCH   2  35
HETATM   35  N7  UNL     1      31.123   0.520 -51.359  1.00  0.00    -0.070 N
ATOM     36  H73 UNL     1      31.080  -0.416 -50.955  1.00  0.00     0.274 HD
ATOM     37  H72 UNL     1      30.152   0.611 -51.661  1.00  0.00     0.274 HD
ATOM     38  H71 UNL     1      31.761   0.552 -52.154  1.00  0.00     0.274 HD
ENDBRANCH   2  35
BRANCH   3  39
HETATM   39  O5  UNL     1      33.361   0.170 -50.281  1.00  0.00    -0.391 OA
ATOM     40  H5  UNL     1      33.512  -0.647 -49.821  1.00  0.00     0.210 HD
ENDBRANCH   3  39
BRANCH   5  41
HETATM   41  S1  UNL     1      30.667   0.139 -46.045  1.00  0.00    -0.074 SA
HETATM   42  S2  UNL     1      31.541  -1.745 -45.574  1.00  0.00    -0.013 SA
ENDBRANCH   5  41
BRANCH  10  43
HETATM   43  O9  UNL     1      31.985   2.478 -46.523  1.00  0.00    -0.390 OA
ATOM     44  H9  UNL     1      32.013   3.029 -45.751  1.00  0.00     0.210 HD
ENDBRANCH  10  43
BRANCH   4  45
HETATM   45  O6  UNL     1      31.948  -1.246 -48.829  1.00  0.00    -0.392 OA
ATOM     46  H6  UNL     1      32.373  -1.830 -48.213  1.00  0.00     0.210 HD
ENDBRANCH   4  45
BRANCH   8  47
HETATM   47  O8  UNL     1      28.497   2.724 -45.617  1.00  0.00    -0.369 OA
ATOM     48  H8  UNL     1      28.654   3.428 -44.999  1.00  0.00     0.212 HD
ENDBRANCH   8  47
BRANCH   9  49
HETATM   49  N8  UNL     1      30.550   4.306 -45.575  1.00  0.00    -0.068 N
ATOM     50  H83 UNL     1      31.280   5.019 -45.599  1.00  0.00     0.275 HD
ATOM     51  H82 UNL     1      29.815   4.851 -45.126  1.00  0.00     0.275 HD
ATOM     52  H81 UNL     1      30.825   3.505 -45.007  1.00  0.00     0.275 HD
ENDBRANCH   9  49
TORSDOF 16
ENDMDL