MODEL 1
REMARK VINA RESULT: -8.474793787      0.000      0.000
REMARK  14 active torsions:
REMARK  status: ('A' for Active; 'I' for Inactive)
REMARK    1  A    between atoms: S1_2  and  C2_3
REMARK    2  A    between atoms: C3_5  and  O2_6
REMARK    3  A    between atoms: O2_6  and  C4_7
REMARK    4  A    between atoms: C4_7  and  C5_8
REMARK    5  A    between atoms: C4_7  and  C6_11
REMARK    6  A    between atoms: C6_11  and  O5_12
REMARK    7  A    between atoms: C6_11  and  C7_14
REMARK    8  A    between atoms: C7_14  and  O6_15
REMARK    9  A    between atoms: C8_17  and  O7_18
REMARK   10  A    between atoms: O7_18  and  C9_19
REMARK   11  A    between atoms: C9_19  and  N1_20
REMARK   12  A    between atoms: C10_28  and  N6_29
REMARK   13  A    between atoms: C13_38  and  N10_39
REMARK   14  A    between atoms: C15_45  and  O8_46
ROOT
HETATM    1  C2  UNL     1      29.793   1.039 -51.478  1.00  0.00     0.216 C
HETATM    2  O1  UNL     1      28.965   1.425 -52.497  1.00  0.00    -0.340 OA
HETATM    3  C3  UNL     1      27.687   1.766 -52.136  1.00  0.00     0.293 C
HETATM    4  C8  UNL     1      27.651   2.806 -50.990  1.00  0.00     0.210 C
HETATM    5  C10 UNL     1      28.414   2.145 -49.863  1.00  0.00     0.177 C
HETATM    6  C15 UNL     1      29.843   2.051 -50.320  1.00  0.00     0.184 C
ENDROOT
BRANCH   5   7
HETATM    7  N6  UNL     1      28.197   2.733 -48.593  1.00  0.00    -0.249 N
HETATM    8  N7  UNL     1      26.973   3.025 -48.127  1.00  0.00    -0.238 N
HETATM    9  N8  UNL     1      27.075   3.549 -46.935  1.00  0.00    -0.281 N
ATOM     10  H7  UNL     1      26.098   2.864 -48.626  1.00  0.00     0.208 HD
HETATM   11  C11 UNL     1      28.366   3.625 -46.562  1.00  0.00     0.111 A
ATOM     12  H8  UNL     1      26.287   3.857 -46.366  1.00  0.00     0.188 HD
HETATM   13  C12 UNL     1      29.036   4.075 -45.444  1.00  0.00     0.141 A
HETATM   14  C14 UNL     1      29.059   3.087 -47.661  1.00  0.00     0.169 A
HETATM   15  N9  UNL     1      30.377   3.987 -45.426  1.00  0.00    -0.200 N
HETATM   16  C13 UNL     1      31.081   3.477 -46.463  1.00  0.00     0.677 A
ATOM     17  H9  UNL     1      30.882   4.317 -44.604  1.00  0.00     0.183 HD
HETATM   18  N11 UNL     1      30.378   3.054 -47.527  1.00  0.00    -0.173 N
ATOM     19  H11 UNL     1      30.911   2.671 -48.307  1.00  0.00     0.186 HD
BRANCH  16  20
HETATM   20  N10 UNL     1      32.385   3.396 -46.438  1.00  0.00    -0.234 N
ATOM     21 2H10 UNL     1      32.945   4.048 -45.889  1.00  0.00     0.174 HD
ATOM     22 1H10 UNL     1      32.890   2.681 -46.963  1.00  0.00     0.174 HD
ENDBRANCH  16  20
ENDBRANCH   5   7
BRANCH   4  23
HETATM   23  O7  UNL     1      28.210   3.972 -51.421  1.00  0.00    -0.314 OA
BRANCH  23  24
HETATM   24  C9  UNL     1      27.406   5.067 -51.522  1.00  0.00     0.412 C
HETATM   25  N2  UNL     1      26.919   5.144 -52.905  1.00  0.00    -0.044 NA
HETATM   26  N3  UNL     1      26.762   6.492 -53.200  1.00  0.00    -0.015 NA
HETATM   27  N4  UNL     1      27.242   7.197 -52.105  1.00  0.00    -0.015 NA
HETATM   28  N5  UNL     1      28.104   6.329 -51.423  1.00  0.00    -0.044 NA
BRANCH  24  29
HETATM   29  N1  UNL     1      26.274   5.050 -50.618  1.00  0.00    -0.012 N
ATOM     30  H13 UNL     1      25.552   4.416 -50.960  1.00  0.00     0.281 HD
ATOM     31  H12 UNL     1      26.518   4.580 -49.746  1.00  0.00     0.281 HD
ATOM     32  H11 UNL     1      25.881   5.973 -50.430  1.00  0.00     0.281 HD
ENDBRANCH  24  29
ENDBRANCH  23  24
ENDBRANCH   4  23
BRANCH   6  33
HETATM   33  O8  UNL     1      30.362   3.223 -50.831  1.00  0.00    -0.390 OA
ATOM     34  H8  UNL     1      30.319   3.872 -50.138  1.00  0.00     0.210 HD
ENDBRANCH   6  33
BRANCH   3  35
HETATM   35  O2  UNL     1      26.931   0.700 -51.678  1.00  0.00    -0.340 OA
BRANCH  35  36
HETATM   36  C4  UNL     1      25.612   0.981 -51.456  1.00  0.00     0.256 C
BRANCH  36  37
HETATM   37  C5  UNL     1      25.162   0.644 -50.082  1.00  0.00     0.206 C
HETATM   38  O3  UNL     1      24.874   1.560 -49.271  1.00  0.00    -0.646 OA
HETATM   39  O4  UNL     1      25.055  -0.659 -49.678  1.00  0.00    -0.646 OA
ENDBRANCH  36  37
BRANCH  36  40
HETATM   40  C6  UNL     1      24.805   0.140 -52.455  1.00  0.00     0.181 C
BRANCH  40  41
HETATM   41  O5  UNL     1      23.487   0.013 -52.075  1.00  0.00    -0.390 OA
ATOM     42  H5  UNL     1      23.375   0.129 -51.139  1.00  0.00     0.210 HD
ENDBRANCH  40  41
BRANCH  40  43
HETATM   43  C7  UNL     1      25.446  -1.230 -52.618  1.00  0.00     0.199 C
BRANCH  43  44
HETATM   44  O6  UNL     1      24.751  -2.208 -51.930  1.00  0.00    -0.398 OA
ATOM     45  H6  UNL     1      24.962  -3.079 -52.246  1.00  0.00     0.209 HD
ENDBRANCH  43  44
ENDBRANCH  40  43
ENDBRANCH  36  40
ENDBRANCH  35  36
ENDBRANCH   3  35
BRANCH   1  46
HETATM   46  S1  UNL     1      31.430   0.647 -52.077  1.00  0.00    -0.139 SA
HETATM   47  C1  UNL     1      32.541   0.093 -50.765  1.00  0.00     0.092 C
ENDBRANCH   1  46
TORSDOF 14
ENDMDL