MODEL 4
REMARK VINA RESULT: -9.674488210      1.454      1.973
REMARK  17 active torsions:
REMARK  status: ('A' for Active; 'I' for Inactive)
REMARK    1  A    between atoms: C2_2  and  O1_3
REMARK    2  A    between atoms: C3_5  and  C4_6
REMARK    3  A    between atoms: C4_6  and  N2_11
REMARK    4  A    between atoms: N1_7  and  O2_9
REMARK    5  A    between atoms: N2_11  and  C5_13
REMARK    6  A    between atoms: C5_13  and  C6_14
REMARK    7  A    between atoms: N6_21  and  C7_22
REMARK    8  A    between atoms: C7_22  and  O3_23
REMARK    9  A    between atoms: C7_22  and  N7_25
REMARK   10  A    between atoms: N7_25  and  C8_28
REMARK   11  A    between atoms: C8_28  and  C9_29
REMARK   12  A    between atoms: C9_29  and  N8_30
REMARK   13  A    between atoms: C11_32  and  O4_33
REMARK   14  A    between atoms: C12_35  and  O5_36
REMARK   15  A    between atoms: C13_38  and  O6_39
REMARK   16  A    between atoms: C16_43  and  O7_44
REMARK   17  A    between atoms: C17_46  and  O8_47
ROOT
HETATM    1  C6  UNL     1      27.557   5.097 -50.784  1.00  0.00     0.138 A
HETATM    2  N3  UNL     1      27.583   6.424 -50.682  1.00  0.00    -0.271 N
ATOM      3  H3  UNL     1      27.602   6.971 -49.821  1.00  0.00     0.190 HD
HETATM    4  N4  UNL     1      27.581   6.886 -51.910  1.00  0.00    -0.226 N
ATOM      5  H4  UNL     1      27.598   7.873 -52.163  1.00  0.00     0.210 HD
HETATM    6  N5  UNL     1      27.553   5.883 -52.769  1.00  0.00    -0.221 N
ATOM      7  H5  UNL     1      27.543   5.960 -53.786  1.00  0.00     0.210 HD
HETATM    8  N6  UNL     1      27.539   4.780 -52.080  1.00  0.00    -0.208 N
ENDROOT
BRANCH   1   9
HETATM    9  C5  UNL     1      27.549   4.121 -49.673  1.00  0.00     0.200 C
BRANCH   9  10
HETATM   10  N2  UNL     1      28.820   3.598 -49.335  1.00  0.00    -0.371 N
ATOM     11  H2  UNL     1      29.512   3.557 -50.084  1.00  0.00     0.161 HD
BRANCH  10  12
HETATM   12  C4  UNL     1      29.229   3.125 -48.065  1.00  0.00     0.104 C
HETATM   13  N1  UNL     1      29.301   3.936 -47.089  1.00  0.00    -0.257 N
ATOM     14  H1  UNL     1      29.602   3.512 -46.212  1.00  0.00     0.195 HD
BRANCH  12  15
HETATM   15  C3  UNL     1      29.574   1.666 -47.880  1.00  0.00     0.092 C
HETATM   16  C2  UNL     1      30.741   1.404 -47.039  1.00  0.00     0.080 C
HETATM   17  C1  UNL     1      30.506   0.144 -46.168  1.00  0.00     0.048 C
HETATM   18  C18 UNL     1      32.037   1.173 -47.765  1.00  0.00     0.124 C
HETATM   19  C17 UNL     1      31.873   0.252 -48.954  1.00  0.00     0.164 C
HETATM   20  S1  UNL     1      32.873   2.712 -48.227  1.00  0.00    -0.086 SA
HETATM   21  C16 UNL     1      30.893   0.881 -49.890  1.00  0.00     0.149 C
HETATM   22  C15 UNL     1      29.573   0.992 -49.224  1.00  0.00     0.050 C
BRANCH  16  23
HETATM   23  O1  UNL     1      30.938   2.419 -46.120  1.00  0.00    -0.388 OA
ATOM     24  H1  UNL     1      31.812   2.262 -45.783  1.00  0.00     0.210 HD
ENDBRANCH  16  23
BRANCH  19  25
HETATM   25  O8  UNL     1      33.143   0.136 -49.547  1.00  0.00    -0.392 OA
ATOM     26  H8  UNL     1      33.094   0.247 -50.490  1.00  0.00     0.210 HD
ENDBRANCH  19  25
BRANCH  21  27
HETATM   27  O7  UNL     1      30.724   0.006 -50.988  1.00  0.00    -0.393 OA
ATOM     28  H7  UNL     1      31.407  -0.650 -50.925  1.00  0.00     0.210 HD
ENDBRANCH  21  27
ENDBRANCH  12  15
BRANCH  13  29
HETATM   29  O2  UNL     1      29.051   5.244 -47.010  1.00  0.00    -0.288 OA
ATOM     30  H2  UNL     1      28.288   5.719 -46.704  1.00  0.00     0.244 HD
ENDBRANCH  13  29
ENDBRANCH  10  12
ENDBRANCH   9  10
ENDBRANCH   1   9
BRANCH   8  31
HETATM   31  C7  UNL     1      27.506   3.427 -52.634  1.00  0.00     0.450 C
BRANCH  31  32
HETATM   32  O3  UNL     1      28.641   2.762 -52.129  1.00  0.00    -0.353 OA
ATOM     33  H3  UNL     1      28.983   3.307 -51.429  1.00  0.00     0.214 HD
ENDBRANCH  31  32
BRANCH  31  34
HETATM   34  N7  UNL     1      26.362   2.689 -52.169  1.00  0.00    -0.027 N
ATOM     35  H72 UNL     1      25.974   3.117 -51.329  1.00  0.00     0.282 HD
ATOM     36  H71 UNL     1      25.572   2.812 -52.802  1.00  0.00     0.282 HD
BRANCH  34  37
HETATM   37  C8  UNL     1      26.626   1.285 -51.951  1.00  0.00     0.268 C
BRANCH  37  38
HETATM   38  C9  UNL     1      26.142   0.945 -50.565  1.00  0.00     0.300 C
BRANCH  38  39
HETATM   39  N8  UNL     1      24.802   0.402 -50.651  1.00  0.00     0.095 N
HETATM   40  C10 UNL     1      24.498   0.160 -52.020  1.00  0.00     0.306 C
HETATM   41  C11 UNL     1      23.418  -0.823 -52.303  1.00  0.00     0.177 C
HETATM   42  C12 UNL     1      23.506  -2.051 -51.391  1.00  0.00     0.179 C
HETATM   43  C13 UNL     1      23.398  -1.497 -49.987  1.00  0.00     0.177 C
HETATM   44  C14 UNL     1      24.684  -0.695 -49.756  1.00  0.00     0.306 C
BRANCH  41  45
HETATM   45  O4  UNL     1      22.163  -0.255 -52.096  1.00  0.00    -0.391 OA
ATOM     46  H4  UNL     1      21.707  -0.690 -51.386  1.00  0.00     0.210 HD
ENDBRANCH  41  45
BRANCH  42  47
HETATM   47  O5  UNL     1      24.728  -2.692 -51.543  1.00  0.00    -0.390 OA
ATOM     48  H5  UNL     1      24.638  -3.628 -51.405  1.00  0.00     0.210 HD
ENDBRANCH  42  47
BRANCH  43  49
HETATM   49  O6  UNL     1      23.254  -2.467 -49.027  1.00  0.00    -0.391 OA
ATOM     50  H6  UNL     1      23.154  -2.118 -48.148  1.00  0.00     0.210 HD
ENDBRANCH  43  49
ENDBRANCH  38  39
ENDBRANCH  37  38
ENDBRANCH  34  37
ENDBRANCH  31  34
ENDBRANCH   8  31
TORSDOF 17
ENDMDL