MODEL 2
REMARK VINA RESULT: -7.796578614      1.987      2.688
REMARK  14 active torsions:
REMARK  status: ('A' for Active; 'I' for Inactive)
REMARK    1  A    between atoms: O1_2  and  N1_3
REMARK    2  A    between atoms: C2_5  and  S1_7
REMARK    3  A    between atoms: S1_7  and  C3_8
REMARK    4  A    between atoms: C4_10  and  O3_11
REMARK    5  A    between atoms: O3_11  and  N3_12
REMARK    6  A    between atoms: C5_15  and  O4_16
REMARK    7  A    between atoms: C6_18  and  O5_19
REMARK    8  A    between atoms: C7_21  and  N4_22
REMARK    9  A    between atoms: C8_26  and  O6_27
REMARK   10  A    between atoms: O6_27  and  C9_28
REMARK   11  A    between atoms: C10_29  and  O7_30
REMARK   12  A    between atoms: C11_32  and  N5_33
REMARK   13  A    between atoms: C13_38  and  N6_39
REMARK   14  A    between atoms: C14_43  and  O8_44
ROOT
HETATM    1  C3  UNL     1     -18.662   0.570  44.258  1.00  0.00     0.224 C
HETATM    2  O2  UNL     1     -17.379   0.033  44.322  1.00  0.00    -0.338 OA
HETATM    3  C4  UNL     1     -17.346  -1.345  44.373  1.00  0.00     0.320 C
HETATM    4  C5  UNL     1     -16.858  -1.826  43.020  1.00  0.00     0.206 C
HETATM    5  C6  UNL     1     -17.926  -1.413  42.001  1.00  0.00     0.184 C
HETATM    6  C7  UNL     1     -18.021   0.076  41.888  1.00  0.00     0.246 C
HETATM    7  C8  UNL     1     -19.052   0.689  42.805  1.00  0.00     0.194 C
ENDROOT
BRANCH   7   8
HETATM    8  O6  UNL     1     -20.334   0.266  42.552  1.00  0.00    -0.370 OA
BRANCH   8   9
HETATM    9  C9  UNL     1     -21.254   1.264  42.390  1.00  0.00     0.183 C
HETATM   10  C10 UNL     1     -22.630   0.652  42.700  1.00  0.00     0.180 C
HETATM   11  C11 UNL     1     -23.646   1.780  42.910  1.00  0.00     0.216 C
HETATM   12  C12 UNL     1     -23.165   3.030  42.239  1.00  0.00     0.071 C
HETATM   13  C13 UNL     1     -22.588   2.693  40.875  1.00  0.00     0.216 C
HETATM   14  C14 UNL     1     -21.365   1.811  40.993  1.00  0.00     0.180 C
BRANCH  10  15
HETATM   15  O7  UNL     1     -23.080  -0.085  41.609  1.00  0.00    -0.391 OA
ATOM     16  H7  UNL     1     -22.624  -0.917  41.569  1.00  0.00     0.210 HD
ENDBRANCH  10  15
BRANCH  11  17
HETATM   17  N5  UNL     1     -23.812   2.014  44.348  1.00  0.00    -0.072 N
ATOM     18  H53 UNL     1     -23.812   1.147  44.885  1.00  0.00     0.274 HD
ATOM     19  H52 UNL     1     -22.989   2.443  44.769  1.00  0.00     0.274 HD
ATOM     20  H51 UNL     1     -24.657   2.564  44.501  1.00  0.00     0.274 HD
ENDBRANCH  11  17
BRANCH  13  21
HETATM   21  N6  UNL     1     -22.202   3.928  40.223  1.00  0.00    -0.072 N
ATOM     22  H63 UNL     1     -22.318   3.890  39.211  1.00  0.00     0.274 HD
ATOM     23  H62 UNL     1     -22.854   4.690  40.410  1.00  0.00     0.274 HD
ATOM     24  H61 UNL     1     -21.246   4.154  40.500  1.00  0.00     0.274 HD
ENDBRANCH  13  21
BRANCH  14  25
HETATM   25  O8  UNL     1     -21.496   0.807  40.038  1.00  0.00    -0.391 OA
ATOM     26  H8  UNL     1     -22.231   0.956  39.455  1.00  0.00     0.210 HD
ENDBRANCH  14  25
ENDBRANCH   8   9
ENDBRANCH   7   8
BRANCH   1  27
HETATM   27  S1  UNL     1     -18.571   2.192  45.068  1.00  0.00    -0.061 SA
BRANCH  27  28
HETATM   28  C2  UNL     1     -20.210   2.684  45.534  1.00  0.00     0.176 C
HETATM   29  N1  UNL     1     -20.760   2.060  46.523  1.00  0.00    -0.248 N
ATOM     30  H1  UNL     1     -20.264   1.314  47.012  1.00  0.00     0.196 HD
HETATM   31  N2  UNL     1     -20.881   3.725  44.840  1.00  0.00    -0.073 NA
BRANCH  29  32
HETATM   32  O1  UNL     1     -22.015   2.423  46.896  1.00  0.00    -0.284 OA
HETATM   33  C1  UNL     1     -22.339   3.091  48.090  1.00  0.00     0.237 C
ENDBRANCH  29  32
ENDBRANCH  27  28
ENDBRANCH   1  27
BRANCH   6  34
HETATM   34  N4  UNL     1     -18.235   0.420  40.518  1.00  0.00    -0.070 N
ATOM     35  H43 UNL     1     -17.845  -0.271  39.877  1.00  0.00     0.274 HD
ATOM     36  H42 UNL     1     -19.213   0.332  40.242  1.00  0.00     0.274 HD
ATOM     37  H41 UNL     1     -17.866   1.357  40.353  1.00  0.00     0.274 HD
ENDBRANCH   6  34
BRANCH   5  38
HETATM   38  O5  UNL     1     -19.144  -2.024  42.259  1.00  0.00    -0.391 OA
ATOM     39  H5  UNL     1     -19.871  -1.432  42.111  1.00  0.00     0.210 HD
ENDBRANCH   5  38
BRANCH   3  40
HETATM   40  O3  UNL     1     -18.540  -1.945  44.664  1.00  0.00    -0.252 OA
BRANCH  40  41
HETATM   41  N3  UNL     1     -18.504  -2.506  45.892  1.00  0.00    -0.308 N
ATOM     42  H32 UNL     1     -17.651  -2.839  46.340  1.00  0.00     0.184 HD
ATOM     43  H31 UNL     1     -19.440  -2.548  46.296  1.00  0.00     0.184 HD
ENDBRANCH  40  41
ENDBRANCH   3  40
BRANCH   4  44
HETATM   44  O4  UNL     1     -15.692  -1.161  42.660  1.00  0.00    -0.388 OA
ATOM     45  H4  UNL     1     -15.397  -1.447  41.804  1.00  0.00     0.210 HD
ENDBRANCH   4  44
TORSDOF 14
ENDMDL