MODEL 2
REMARK VINA RESULT: -6.873833974      2.327      3.638
REMARK  13 active torsions:
REMARK  status: ('A' for Active; 'I' for Inactive)
REMARK    1  A    between atoms: N1_2  and  C2_5
REMARK    2  A    between atoms: C3_7  and  O2_8
REMARK    3  A    between atoms: O2_8  and  C4_9
REMARK    4  A    between atoms: C5_10  and  N2_11
REMARK    5  A    between atoms: C7_16  and  N3_17
REMARK    6  A    between atoms: C8_21  and  O3_22
REMARK    7  A    between atoms: O3_22  and  C9_23
REMARK    8  A    between atoms: C12_27  and  N4_28
REMARK    9  A    between atoms: C13_32  and  O5_33
REMARK   10  A    between atoms: C14_35  and  O6_36
REMARK   11  A    between atoms: C15_38  and  N5_39
REMARK   12  A    between atoms: N5_39  and  O7_40
REMARK   13  A    between atoms: C17_44  and  O9_45
ROOT
HETATM    1  C4  UNL     1     -22.326   0.559  41.327  1.00  0.00     0.181 C
HETATM    2  C5  UNL     1     -21.281   1.051  40.303  1.00  0.00     0.216 C
HETATM    3  C6  UNL     1     -19.889   0.768  40.868  1.00  0.00     0.070 C
HETATM    4  C7  UNL     1     -19.741   1.685  42.060  1.00  0.00     0.216 C
HETATM    5  C8  UNL     1     -20.769   1.359  43.131  1.00  0.00     0.179 C
HETATM    6  C15 UNL     1     -22.184   1.316  42.575  1.00  0.00     0.168 C
ENDROOT
BRANCH   5   7
HETATM    7  O3  UNL     1     -20.741   2.418  44.026  1.00  0.00    -0.349 OA
BRANCH   7   8
HETATM    8  C9  UNL     1     -20.595   2.016  45.354  1.00  0.00     0.292 C
HETATM    9  O4  UNL     1     -19.761   2.905  45.943  1.00  0.00    -0.351 OA
HETATM   10  C10 UNL     1     -18.478   3.017  45.560  1.00  0.00     0.153 C
HETATM   11  C11 UNL     1     -17.516   3.358  46.682  1.00  0.00     0.042 C
HETATM   12  C12 UNL     1     -18.024   1.871  44.735  1.00  0.00     0.243 C
HETATM   13  C13 UNL     1     -18.587   0.540  45.165  1.00  0.00     0.184 C
HETATM   14  C14 UNL     1     -20.089   0.595  45.328  1.00  0.00     0.204 C
BRANCH  12  15
HETATM   15  N4  UNL     1     -16.571   1.744  44.691  1.00  0.00    -0.070 N
ATOM     16  H43 UNL     1     -16.233   1.752  43.729  1.00  0.00     0.274 HD
ATOM     17  H42 UNL     1     -16.121   2.594  45.031  1.00  0.00     0.274 HD
ATOM     18  H41 UNL     1     -16.230   0.924  45.192  1.00  0.00     0.274 HD
ENDBRANCH  12  15
BRANCH  13  19
HETATM   19  O5  UNL     1     -17.940   0.119  46.326  1.00  0.00    -0.391 OA
ATOM     20  H5  UNL     1     -18.514  -0.459  46.813  1.00  0.00     0.210 HD
ENDBRANCH  13  19
BRANCH  14  21
HETATM   21  O6  UNL     1     -20.385   0.012  46.555  1.00  0.00    -0.388 OA
ATOM     22  H6  UNL     1     -21.296  -0.256  46.539  1.00  0.00     0.210 HD
ENDBRANCH  14  21
ENDBRANCH   7   8
ENDBRANCH   5   7
BRANCH   4  23
HETATM   23  N3  UNL     1     -19.866   3.054  41.615  1.00  0.00    -0.072 N
ATOM     24  H33 UNL     1     -18.966   3.533  41.571  1.00  0.00     0.274 HD
ATOM     25  H32 UNL     1     -20.111   3.122  40.628  1.00  0.00     0.274 HD
ATOM     26  H31 UNL     1     -20.535   3.537  42.216  1.00  0.00     0.274 HD
ENDBRANCH   4  23
BRANCH   6  27
HETATM   27  N5  UNL     1     -23.030   0.885  43.635  1.00  0.00    -0.094 NA
BRANCH  27  28
HETATM   28  O7  UNL     1     -24.274   1.363  43.540  1.00  0.00    -0.295 OA
ATOM     29  H7  UNL     1     -24.932   0.680  43.482  1.00  0.00     0.238 HD
ENDBRANCH  27  28
ENDBRANCH   6  27
BRANCH   1  30
HETATM   30  O2  UNL     1     -23.543   0.817  40.714  1.00  0.00    -0.330 OA
BRANCH  30  31
HETATM   31  C3  UNL     1     -24.291  -0.278  40.386  1.00  0.00     0.415 C
HETATM   32  O1  UNL     1     -24.778  -0.816  41.598  1.00  0.00    -0.303 OA
HETATM   33  C2  UNL     1     -25.678  -1.834  41.425  1.00  0.00     0.355 C
HETATM   34  C17 UNL     1     -25.774  -2.420  40.060  1.00  0.00     0.198 C
HETATM   35  C16 UNL     1     -24.577  -2.170  39.201  1.00  0.00     0.209 C
HETATM   36  O8  UNL     1     -23.663  -1.315  39.757  1.00  0.00    -0.336 OA
BRANCH  33  37
HETATM   37  N1  UNL     1     -25.317  -2.888  42.365  1.00  0.00    -0.050 N
HETATM   38  C1  UNL     1     -26.462  -3.555  42.934  1.00  0.00     0.270 C
ATOM     39  H12 UNL     1     -24.705  -2.527  43.097  1.00  0.00     0.279 HD
ATOM     40  H11 UNL     1     -24.682  -3.558  41.932  1.00  0.00     0.279 HD
ENDBRANCH  33  37
BRANCH  34  41
HETATM   41  O9  UNL     1     -26.096  -3.795  40.101  1.00  0.00    -0.389 OA
ATOM     42  H9  UNL     1     -26.426  -4.055  40.953  1.00  0.00     0.210 HD
ENDBRANCH  34  41
ENDBRANCH  30  31
ENDBRANCH   1  30
BRANCH   2  43
HETATM   43  N2  UNL     1     -21.409   0.402  39.044  1.00  0.00    -0.072 N
ATOM     44  H23 UNL     1     -20.515   0.024  38.732  1.00  0.00     0.274 HD
ATOM     45  H22 UNL     1     -21.933  -0.468  39.131  1.00  0.00     0.274 HD
ATOM     46  H21 UNL     1     -21.820   1.009  38.334  1.00  0.00     0.274 HD
ENDBRANCH   2  43
TORSDOF 13
ENDMDL