MODEL 4
REMARK VINA RESULT: -9.665728642      1.115      1.320
REMARK  8 active torsions:
REMARK  status: ('A' for Active; 'I' for Inactive)
REMARK    1  A    between atoms: N3_10  and  C6_11
REMARK    2  A    between atoms: C6_11  and  C7_12
REMARK    3  A    between atoms: C7_12  and  O2_13
REMARK    4  A    between atoms: C7_12  and  C8_15
REMARK       I    between atoms: C8_15  and  N4_17
REMARK    5  A    between atoms: N4_17  and  N5_19
REMARK    6  A    between atoms: N5_19  and  C9_21
REMARK    7  A    between atoms: C10_22  and  C11_23
REMARK    8  A    between atoms: C12_27  and  N7_28
ROOT
HETATM    1  N7  UNL     1     -19.026  -0.262  44.827  1.00  0.00    -0.125 N
ATOM      2  H7  UNL     1     -19.810   0.385  44.915  1.00  0.00     0.197 HD
HETATM    3  C13 UNL     1     -18.488  -0.969  45.941  1.00  0.00     0.196 C
HETATM    4  N8  UNL     1     -18.060  -1.532  46.856  1.00  0.00    -0.171 NA
ENDROOT
BRANCH   1   5
HETATM    5  C12 UNL     1     -18.390  -0.525  43.591  1.00  0.00     0.700 A
HETATM    6  N6  UNL     1     -18.919  -0.096  42.370  1.00  0.00    -0.132 N
HETATM    7  C10 UNL     1     -20.133   0.552  41.941  1.00  0.00     0.176 C
HETATM    8  C15 UNL     1     -18.233  -0.349  41.078  1.00  0.00     0.317 A
HETATM    9  C9  UNL     1     -20.454   0.006  40.754  1.00  0.00     0.154 C
HETATM   10  N12 UNL     1     -19.382  -0.909  40.384  1.00  0.00    -0.335 N
ATOM     11  H12 UNL     1     -19.425  -1.735  39.788  1.00  0.00     0.165 HD
HETATM   12  N11 UNL     1     -17.070  -1.115  41.174  1.00  0.00    -0.325 N
HETATM   13  C14 UNL     1     -16.619  -1.519  42.338  1.00  0.00     0.205 A
ATOM     14  H11 UNL     1     -16.563  -1.365  40.325  1.00  0.00     0.166 HD
HETATM   15  N9  UNL     1     -17.274  -1.217  43.538  1.00  0.00    -0.162 N
HETATM   16  N10 UNL     1     -15.415  -2.285  42.270  1.00  0.00    -0.063 NA
ATOM     17  H9  UNL     1     -16.867  -1.551  44.412  1.00  0.00     0.187 HD
BRANCH   7  18
HETATM   18  C11 UNL     1     -20.845   1.540  42.713  1.00  0.00     0.231 C
HETATM   19  O4  UNL     1     -22.073   1.631  42.843  1.00  0.00    -0.643 OA
HETATM   20  O5  UNL     1     -20.130   2.542  43.425  1.00  0.00    -0.643 OA
ENDBRANCH   7  18
BRANCH   9  21
HETATM   21  N5  UNL     1     -21.611   0.304  39.996  1.00  0.00    -0.281 N
ATOM     22  H5  UNL     1     -21.535   0.643  39.037  1.00  0.00     0.188 HD
BRANCH  21  23
HETATM   23  N4  UNL     1     -22.862   0.123  40.593  1.00  0.00    -0.266 N
HETATM   24  C8  UNL     1     -23.702  -0.891  40.102  1.00  0.00     0.266 C
HETATM   25  O3  UNL     1     -23.346  -1.613  39.143  1.00  0.00    -0.269 OA
ATOM     26  H4  UNL     1     -23.159   0.715  41.369  1.00  0.00     0.190 HD
BRANCH  24  27
HETATM   27  C7  UNL     1     -25.062  -1.170  40.692  1.00  0.00     0.230 C
BRANCH  27  28
HETATM   28  C6  UNL     1     -25.270  -2.649  40.636  1.00  0.00     0.173 C
BRANCH  28  29
HETATM   29  N3  UNL     1     -26.484  -3.094  41.241  1.00  0.00    -0.319 N
HETATM   30  C2  UNL     1     -27.734  -2.859  40.662  1.00  0.00     0.101 A
HETATM   31  C1  UNL     1     -27.930  -2.384  39.440  1.00  0.00     0.064 C
HETATM   32  N1  UNL     1     -28.914  -3.226  41.404  1.00  0.00    -0.310 N
HETATM   33  C3  UNL     1     -28.734  -3.807  42.675  1.00  0.00     0.250 A
ATOM     34  H1  UNL     1     -29.846  -3.071  41.022  1.00  0.00     0.170 HD
HETATM   35  O1  UNL     1     -29.714  -4.157  43.392  1.00  0.00    -0.268 OA
HETATM   36  C4  UNL     1     -27.404  -4.023  43.210  1.00  0.00     0.119 A
HETATM   37  C5  UNL     1     -26.325  -3.694  42.551  1.00  0.00     0.125 A
HETATM   38  N2  UNL     1     -25.006  -3.907  43.074  1.00  0.00    -0.082 NA
ENDBRANCH  28  29
ENDBRANCH  27  28
BRANCH  27  39
HETATM   39  O2  UNL     1     -25.952  -0.415  39.993  1.00  0.00    -0.384 OA
ATOM     40  H2  UNL     1     -26.762  -0.204  40.442  1.00  0.00     0.210 HD
ENDBRANCH  27  39
ENDBRANCH  24  27
ENDBRANCH  21  23
ENDBRANCH   9  21
ENDBRANCH   1   5
TORSDOF 8
ENDMDL