MODEL 2
REMARK VINA RESULT: -8.028991400      2.146      3.239
REMARK  16 active torsions:
REMARK  status: ('A' for Active; 'I' for Inactive)
REMARK    1  A    between atoms: C2_2  and  O1_4
REMARK    2  A    between atoms: C2_2  and  C4_6
REMARK    3  A    between atoms: C4_6  and  C5_7
REMARK    4  A    between atoms: C5_7  and  C6_8
REMARK    5  A    between atoms: C8_14  and  N3_15
REMARK    6  A    between atoms: N3_15  and  C9_17
REMARK    7  A    between atoms: C9_17  and  C10_18
REMARK    8  A    between atoms: C10_18  and  O2_19
REMARK    9  A    between atoms: C10_18  and  C11_21
REMARK   10  A    between atoms: C11_21  and  O3_22
REMARK   11  A    between atoms: C11_21  and  C12_24
REMARK   12  A    between atoms: C11_21  and  N4_27
REMARK   13  A    between atoms: C12_24  and  O4_25
REMARK   14  A    between atoms: C14_35  and  N8_36
REMARK   15  A    between atoms: N8_36  and  N9_38
REMARK   16  A    between atoms: C16_44  and  N11_45
ROOT
HETATM    1  C6  UNL     1     -21.837   3.332  39.820  1.00  0.00     0.164 A
HETATM    2  N1  UNL     1     -21.979   3.194  41.145  1.00  0.00    -0.319 N
ATOM      3  H1  UNL     1     -22.575   3.847  41.653  1.00  0.00     0.169 HD
HETATM    4  C7  UNL     1     -21.352   2.212  41.822  1.00  0.00     0.140 A
HETATM    5  N2  UNL     1     -21.515   2.096  43.174  1.00  0.00    -0.324 N
ATOM      6  H2  UNL     1     -22.115   2.756  43.668  1.00  0.00     0.169 HD
HETATM    7  C8  UNL     1     -20.899   1.129  43.853  1.00  0.00     0.149 A
HETATM    8  C14 UNL     1     -20.077   0.222  43.171  1.00  0.00     0.165 A
HETATM    9  N10 UNL     1     -19.938   0.364  41.847  1.00  0.00    -0.332 N
ATOM     10  H10 UNL     1     -19.340  -0.295  41.349  1.00  0.00     0.168 HD
HETATM   11  C15 UNL     1     -20.548   1.328  41.144  1.00  0.00     0.122 A
HETATM   12  C16 UNL     1     -20.397   1.462  39.780  1.00  0.00     0.132 A
HETATM   13  N12 UNL     1     -21.048   2.460  39.170  1.00  0.00    -0.320 N
ATOM     14  H12 UNL     1     -20.939   2.564  38.161  1.00  0.00     0.169 HD
ENDROOT
BRANCH   7  15
HETATM   15  N3  UNL     1     -21.001   0.958  45.125  1.00  0.00    -0.370 N
ATOM     16  H3  UNL     1     -21.360   0.049  45.418  1.00  0.00     0.161 HD
BRANCH  15  17
HETATM   17  C9  UNL     1     -20.684   1.851  46.171  1.00  0.00     0.158 C
BRANCH  17  18
HETATM   18  C10 UNL     1     -19.652   2.885  45.916  1.00  0.00     0.197 C
BRANCH  18  19
HETATM   19  O2  UNL     1     -19.922   3.716  44.825  1.00  0.00    -0.389 OA
ATOM     20  H2  UNL     1     -19.161   4.161  44.471  1.00  0.00     0.210 HD
ENDBRANCH  18  19
BRANCH  18  21
HETATM   21  C11 UNL     1     -18.231   2.429  45.805  1.00  0.00     0.218 C
BRANCH  21  22
HETATM   22  O3  UNL     1     -18.260   1.074  46.283  1.00  0.00    -0.364 OA
ATOM     23  H3  UNL     1     -17.346   0.867  46.443  1.00  0.00     0.213 HD
ENDBRANCH  21  22
BRANCH  21  24
HETATM   24  C12 UNL     1     -17.666   2.352  44.434  1.00  0.00     0.231 C
BRANCH  24  25
HETATM   25  O4  UNL     1     -16.440   1.706  44.349  1.00  0.00    -0.396 OA
ATOM     26  H4  UNL     1     -15.995   1.589  45.181  1.00  0.00     0.209 HD
ENDBRANCH  24  25
ENDBRANCH  21  24
BRANCH  21  27
HETATM   27  N4  UNL     1     -17.323   3.139  46.711  1.00  0.00    -0.177 N
HETATM   28  N5  UNL     1     -17.476   4.407  47.070  1.00  0.00    -0.274 N
HETATM   29  C13 UNL     1     -16.460   4.707  47.879  1.00  0.00     0.217 A
ATOM     30  H5  UNL     1     -18.228   5.033  46.781  1.00  0.00     0.189 HD
HETATM   31  N6  UNL     1     -15.672   3.609  48.021  1.00  0.00    -0.279 N
HETATM   32  N7  UNL     1     -16.240   2.672  47.287  1.00  0.00    -0.222 N
ATOM     33  H6  UNL     1     -14.820   3.527  48.577  1.00  0.00     0.189 HD
ATOM     34  H7  UNL     1     -15.888   1.720  47.182  1.00  0.00     0.210 HD
ENDBRANCH  21  27
ENDBRANCH  18  21
ENDBRANCH  17  18
ENDBRANCH  15  17
ENDBRANCH   7  15
BRANCH   8  35
HETATM   35  N8  UNL     1     -19.422  -0.826  43.887  1.00  0.00    -0.289 N
ATOM     36  H8  UNL     1     -19.952  -1.448  44.497  1.00  0.00     0.188 HD
BRANCH  35  37
HETATM   37  N9  UNL     1     -18.053  -0.982  43.739  1.00  0.00    -0.344 N
ATOM     38  H92 UNL     1     -17.543  -0.376  43.097  1.00  0.00     0.176 HD
ATOM     39  H91 UNL     1     -17.579  -1.706  44.280  1.00  0.00     0.176 HD
ENDBRANCH  35  37
ENDBRANCH   8  35
BRANCH   1  40
HETATM   40  C5  UNL     1     -22.525   4.402  39.117  1.00  0.00    -0.027 C
BRANCH  40  41
HETATM   41  C4  UNL     1     -23.115   5.278  38.533  1.00  0.00    -0.061 C
BRANCH  41  42
HETATM   42  C2  UNL     1     -23.853   6.331  37.818  1.00  0.00     0.114 C
HETATM   43  C1  UNL     1     -24.848   5.715  36.839  1.00  0.00     0.060 C
HETATM   44  C3  UNL     1     -24.659   7.195  38.760  1.00  0.00     0.060 C
BRANCH  42  45
HETATM   45  O1  UNL     1     -22.951   7.129  37.128  1.00  0.00    -0.378 OA
ATOM     46  H1  UNL     1     -22.064   6.865  37.339  1.00  0.00     0.211 HD
ENDBRANCH  42  45
ENDBRANCH  41  42
ENDBRANCH  40  41
ENDBRANCH   1  40
BRANCH  12  47
HETATM   47  N11 UNL     1     -19.634   0.618  39.171  1.00  0.00    -0.383 N
ATOM     48 2H11 UNL     1     -18.704   0.841  38.818  1.00  0.00     0.157 HD
ATOM     49 1H11 UNL     1     -19.985  -0.330  39.035  1.00  0.00     0.157 HD
ENDBRANCH  12  47
TORSDOF 16
ENDMDL