MODEL 1
REMARK VINA RESULT: -10.276719605      0.000      0.000
REMARK  9 active torsions:
REMARK  status: ('A' for Active; 'I' for Inactive)
REMARK    1  A    between atoms: C1_2  and  O2_7
REMARK    2  A    between atoms: N2_3  and  O1_5
REMARK    3  A    between atoms: O2_7  and  C2_8
REMARK    4  A    between atoms: C2_8  and  N3_9
REMARK    5  A    between atoms: N3_9  and  C3_12
REMARK    6  A    between atoms: C4_15  and  N5_16
REMARK    7  A    between atoms: N5_16  and  C5_18
REMARK    8  A    between atoms: C5_18  and  C6_19
REMARK    9  A    between atoms: C6_19  and  C7_20
ROOT
HETATM    1  C3  UNL     1     -20.235   2.541  42.238  1.00  0.00     0.530 C
HETATM    2  N4  UNL     1     -20.846   2.749  43.479  1.00  0.00    -0.319 N
ATOM      3  H4  UNL     1     -21.258   3.674  43.600  1.00  0.00     0.165 HD
HETATM    4  C4  UNL     1     -20.976   1.969  44.493  1.00  0.00     0.141 C
HETATM    5  S1  UNL     1     -20.253   0.356  44.271  1.00  0.00    -0.054 SA
HETATM    6  C8  UNL     1     -20.099   0.124  42.492  1.00  0.00     0.357 A
HETATM    7  N10 UNL     1     -19.960   1.290  41.733  1.00  0.00     0.189 N
HETATM    8  C9  UNL     1     -18.767   0.526  41.858  1.00  0.00     0.364 A
HETATM    9  C10 UNL     1     -18.244  -0.272  40.751  1.00  0.00     0.278 C
HETATM   10  O3  UNL     1     -18.563  -0.042  39.564  1.00  0.00    -0.269 OA
HETATM   11  N11 UNL     1     -17.349  -1.332  41.058  1.00  0.00    -0.276 N
ATOM     12  H11 UNL     1     -17.233  -2.099  40.397  1.00  0.00     0.173 HD
HETATM   13  C11 UNL     1     -16.603  -1.338  42.290  1.00  0.00     0.329 C
HETATM   14  O4  UNL     1     -15.808  -2.287  42.553  1.00  0.00    -0.247 OA
HETATM   15  N12 UNL     1     -16.799  -0.246  43.178  1.00  0.00    -0.276 N
ATOM     16  H12 UNL     1     -16.294  -0.206  44.063  1.00  0.00     0.173 HD
HETATM   17  C12 UNL     1     -17.706   0.792  42.822  1.00  0.00     0.278 C
HETATM   18  O5  UNL     1     -17.511   1.903  43.392  1.00  0.00    -0.269 OA
ENDROOT
BRANCH   1  19
HETATM   19  N3  UNL     1     -21.056   3.265  41.242  1.00  0.00    -0.004 N
ATOM     20  H32 UNL     1     -20.868   2.936  40.295  1.00  0.00     0.284 HD
ATOM     21  H31 UNL     1     -20.749   4.231  41.138  1.00  0.00     0.284 HD
BRANCH  19  22
HETATM   22  C2  UNL     1     -22.447   3.190  41.554  1.00  0.00     0.414 C
BRANCH  22  23
HETATM   23  O2  UNL     1     -22.986   1.966  41.076  1.00  0.00    -0.295 OA
BRANCH  23  24
HETATM   24  C1  UNL     1     -23.690   1.127  41.926  1.00  0.00     0.253 C
HETATM   25  N1  UNL     1     -24.015   1.537  43.240  1.00  0.00    -0.054 NA
HETATM   26  N2  UNL     1     -24.055  -0.029  41.533  1.00  0.00    -0.235 N
ATOM     27  H2  UNL     1     -23.800  -0.287  40.579  1.00  0.00     0.197 HD
BRANCH  26  28
HETATM   28  O1  UNL     1     -24.744  -0.952  42.245  1.00  0.00    -0.287 OA
ATOM     29  H1  UNL     1     -25.178  -1.727  41.907  1.00  0.00     0.244 HD
ENDBRANCH  26  28
ENDBRANCH  23  24
ENDBRANCH  22  23
ENDBRANCH  19  22
ENDBRANCH   1  19
BRANCH   4  30
HETATM   30  N5  UNL     1     -21.643   2.443  45.623  1.00  0.00    -0.370 N
ATOM     31  H5  UNL     1     -22.657   2.530  45.565  1.00  0.00     0.161 HD
BRANCH  30  32
HETATM   32  C5  UNL     1     -21.024   2.817  46.855  1.00  0.00     0.129 C
BRANCH  32  33
HETATM   33  C6  UNL     1     -22.023   3.376  47.839  1.00  0.00     0.098 C
BRANCH  33  34
HETATM   34  C7  UNL     1     -22.955   2.298  48.261  1.00  0.00     0.108 C
HETATM   35  N6  UNL     1     -24.210   2.369  48.528  1.00  0.00    -0.274 N
HETATM   36  N7  UNL     1     -24.666   1.100  48.882  1.00  0.00    -0.007 NA
ATOM     37  H6  UNL     1     -24.779   3.214  48.488  1.00  0.00     0.185 HD
HETATM   38  N8  UNL     1     -23.541   0.324  49.195  1.00  0.00    -0.007 NA
HETATM   39  N9  UNL     1     -22.545   0.942  48.442  1.00  0.00    -0.274 N
ATOM     40  H9  UNL     1     -21.690   0.511  48.089  1.00  0.00     0.185 HD
ENDBRANCH  33  34
ENDBRANCH  32  33
ENDBRANCH  30  32
ENDBRANCH   4  30
TORSDOF 9
ENDMDL