MODEL 3
REMARK VINA RESULT: -7.329520526      3.586      7.642
REMARK  13 active torsions:
REMARK  status: ('A' for Active; 'I' for Inactive)
REMARK    1  A    between atoms: C2_2  and  S1_6
REMARK    2  A    between atoms: S1_6  and  S2_7
REMARK    3  A    between atoms: S2_7  and  C3_8
REMARK    4  A    between atoms: C6_14  and  N3_15
REMARK    5  A    between atoms: C7_19  and  N4_20
REMARK    6  A    between atoms: N4_20  and  C8_22
REMARK    7  A    between atoms: C9_26  and  C10_27
REMARK    8  A    between atoms: C10_27  and  O1_28
REMARK    9  A    between atoms: O1_28  and  C11_29
REMARK   10  A    between atoms: C12_31  and  N6_32
REMARK   11  A    between atoms: C13_36  and  O3_37
REMARK   12  A    between atoms: C14_39  and  N7_40
REMARK   13  A    between atoms: C15_45  and  O5_46
ROOT
HETATM    1  C8  UNL     1     -19.438   2.035  41.077  1.00  0.00     0.339 C
HETATM    2  N5  UNL     1     -20.401   3.015  41.547  1.00  0.00    -0.021 N
ATOM      3  H51 UNL     1     -20.263   3.942  41.143  1.00  0.00     0.283 HD
ATOM      4  H52 UNL     1     -20.264   3.280  42.522  1.00  0.00     0.283 HD
HETATM    5  C9  UNL     1     -21.700   2.470  41.285  1.00  0.00     0.349 C
HETATM    6  O4  UNL     1     -21.556   1.089  41.404  1.00  0.00    -0.323 OA
HETATM    7  C15 UNL     1     -20.343   0.818  40.820  1.00  0.00     0.309 C
ENDROOT
BRANCH   1   8
HETATM    8  N4  UNL     1     -18.522   1.662  42.056  1.00  0.00    -0.382 N
ATOM      9  H4  UNL     1     -17.637   2.166  42.114  1.00  0.00     0.155 HD
BRANCH   8  10
HETATM   10  C7  UNL     1     -18.766   0.625  42.964  1.00  0.00     0.151 C
HETATM   11  C3  UNL     1     -19.078   1.115  44.349  1.00  0.00     0.087 C
HETATM   12  C4  UNL     1     -18.324   0.352  45.418  1.00  0.00     0.045 C
HETATM   13  C5  UNL     1     -18.326  -1.132  45.205  1.00  0.00     0.236 C
HETATM   14  N2  UNL     1     -18.294  -1.529  43.838  1.00  0.00    -0.044 N
HETATM   15  C6  UNL     1     -17.710  -0.469  42.994  1.00  0.00     0.403 C
ATOM     16  H22 UNL     1     -17.809  -2.418  43.716  1.00  0.00     0.279 HD
ATOM     17  H21 UNL     1     -19.217  -1.809  43.506  1.00  0.00     0.279 HD
BRANCH  11  18
HETATM   18  S2  UNL     1     -20.861   1.064  44.737  1.00  0.00    -0.084 SA
BRANCH  18  19
HETATM   19  S1  UNL     1     -21.374   2.895  45.672  1.00  0.00    -0.045 SA
BRANCH  19  20
HETATM   20  C2  UNL     1     -21.934   2.577  47.303  1.00  0.00     0.047 C
HETATM   21  C1  UNL     1     -22.187   3.685  48.282  1.00  0.00     0.076 C
HETATM   22  N1  UNL     1     -22.190   1.383  47.699  1.00  0.00    -0.397 N
ATOM     23  H12 UNL     1     -22.515   1.198  48.648  1.00  0.00     0.156 HD
ATOM     24  H11 UNL     1     -22.018   0.630  47.034  1.00  0.00     0.156 HD
ENDBRANCH  19  20
ENDBRANCH  18  19
ENDBRANCH  11  18
BRANCH  15  25
HETATM   25  N3  UNL     1     -17.612  -1.058  41.690  1.00  0.00    -0.048 N
ATOM     26  H33 UNL     1     -18.464  -1.524  41.379  1.00  0.00     0.276 HD
ATOM     27  H32 UNL     1     -17.570  -0.379  40.930  1.00  0.00     0.276 HD
ATOM     28  H31 UNL     1     -16.799  -1.671  41.745  1.00  0.00     0.276 HD
ENDBRANCH  15  25
ENDBRANCH   8  10
ENDBRANCH   1   8
BRANCH   7  29
HETATM   29  O5  UNL     1     -20.371   0.431  39.505  1.00  0.00    -0.367 OA
ATOM     30  H5  UNL     1     -20.083  -0.464  39.372  1.00  0.00     0.212 HD
ENDBRANCH   7  29
BRANCH   5  31
HETATM   31  C10 UNL     1     -22.231   2.748  39.897  1.00  0.00     0.232 C
BRANCH  31  32
HETATM   32  O1  UNL     1     -22.880   3.983  39.909  1.00  0.00    -0.355 OA
BRANCH  32  33
HETATM   33  C11 UNL     1     -22.443   4.867  38.956  1.00  0.00     0.295 C
HETATM   34  O2  UNL     1     -23.499   5.168  38.132  1.00  0.00    -0.324 OA
HETATM   35  C12 UNL     1     -23.886   6.463  38.240  1.00  0.00     0.352 C
HETATM   36  C13 UNL     1     -23.274   6.977  39.513  1.00  0.00     0.209 C
HETATM   37  C14 UNL     1     -21.986   6.153  39.602  1.00  0.00     0.271 C
BRANCH  35  38
HETATM   38  N6  UNL     1     -23.507   7.266  37.090  1.00  0.00    -0.050 N
ATOM     39  H63 UNL     1     -22.815   6.779  36.519  1.00  0.00     0.277 HD
ATOM     40  H62 UNL     1     -24.271   7.321  36.416  1.00  0.00     0.277 HD
ATOM     41  H61 UNL     1     -23.178   8.196  37.346  1.00  0.00     0.277 HD
ENDBRANCH  35  38
BRANCH  36  42
HETATM   42  O3  UNL     1     -24.106   6.663  40.567  1.00  0.00    -0.389 OA
ATOM     43  H3  UNL     1     -24.519   7.459  40.880  1.00  0.00     0.210 HD
ENDBRANCH  36  42
BRANCH  37  44
HETATM   44  N7  UNL     1     -21.013   6.789  38.739  1.00  0.00    -0.068 N
ATOM     45  H73 UNL     1     -20.153   7.029  39.232  1.00  0.00     0.275 HD
ATOM     46  H72 UNL     1     -20.611   6.141  38.061  1.00  0.00     0.275 HD
ATOM     47  H71 UNL     1     -21.448   7.598  38.294  1.00  0.00     0.275 HD
ENDBRANCH  37  44
ENDBRANCH  32  33
ENDBRANCH  31  32
ENDBRANCH   5  31
TORSDOF 13
ENDMDL