MODEL 4
REMARK VINA RESULT: -7.930184370      1.387      2.103
REMARK  14 active torsions:
REMARK  status: ('A' for Active; 'I' for Inactive)
REMARK    1  A    between atoms: C2_3  and  O1_4
REMARK    2  A    between atoms: C3_6  and  O2_7
REMARK    3  A    between atoms: C4_9  and  N2_10
REMARK    4  A    between atoms: C6_15  and  N3_16
REMARK    5  A    between atoms: C7_20  and  O3_21
REMARK    6  A    between atoms: O3_21  and  C8_22
REMARK    7  A    between atoms: C10_24  and  S1_25
REMARK    8  A    between atoms: S1_25  and  N4_26
REMARK    9  A    between atoms: N4_26  and  C11_28
REMARK   10  A    between atoms: C11_28  and  C12_29
REMARK   11  A    between atoms: C11_28  and  C13_34
REMARK   12  A    between atoms: N5_30  and  O4_32
REMARK   13  A    between atoms: C15_39  and  O8_40
REMARK   14  A    between atoms: C15_39  and  O9_42
ROOT
HETATM    1  N1  UNL     1     -18.239   2.331  41.875  1.00  0.00    -0.194 NA
HETATM    2  C1  UNL     1     -18.656   1.572  42.663  1.00  0.00     0.103 C
HETATM    3  C2  UNL     1     -19.187   0.611  43.627  1.00  0.00     0.202 C
HETATM    4  C3  UNL     1     -18.211   0.411  44.761  1.00  0.00     0.200 C
HETATM    5  C4  UNL     1     -18.103   1.642  45.585  1.00  0.00     0.218 C
HETATM    6  C5  UNL     1     -19.174   2.651  45.385  1.00  0.00     0.071 C
HETATM    7  C6  UNL     1     -20.543   2.051  45.153  1.00  0.00     0.218 C
HETATM    8  C7  UNL     1     -20.574   0.991  44.109  1.00  0.00     0.204 C
ENDROOT
BRANCH   3   9
HETATM    9  O1  UNL     1     -19.351  -0.610  42.936  1.00  0.00    -0.371 OA
ATOM     10  H1  UNL     1     -19.810  -0.407  42.128  1.00  0.00     0.212 HD
ENDBRANCH   3   9
BRANCH   4  11
HETATM   11  O2  UNL     1     -16.980   0.083  44.153  1.00  0.00    -0.389 OA
ATOM     12  H2  UNL     1     -16.471  -0.360  44.822  1.00  0.00     0.210 HD
ENDBRANCH   4  11
BRANCH   8  13
HETATM   13  O3  UNL     1     -21.306   1.313  42.989  1.00  0.00    -0.369 OA
BRANCH  13  14
HETATM   14  C8  UNL     1     -22.518   0.709  42.853  1.00  0.00     0.189 C
HETATM   15  C9  UNL     1     -22.562  -0.414  41.844  1.00  0.00     0.082 C
HETATM   16  C10 UNL     1     -22.480   0.096  40.423  1.00  0.00     0.206 C
HETATM   17  O7  UNL     1     -22.099   1.413  40.334  1.00  0.00    -0.368 OA
HETATM   18  C14 UNL     1     -22.866   2.300  41.049  1.00  0.00     0.240 C
HETATM   19  C15 UNL     1     -23.474   1.773  42.287  1.00  0.00     0.208 C
BRANCH  16  20
HETATM   20  S1  UNL     1     -23.995  -0.252  39.486  1.00  0.00    -0.026 SA
BRANCH  20  21
HETATM   21  N4  UNL     1     -25.250  -0.923  40.467  1.00  0.00    -0.343 N
ATOM     22  H4  UNL     1     -25.580  -0.469  41.320  1.00  0.00     0.169 HD
BRANCH  21  23
HETATM   23  C11 UNL     1     -25.795  -2.160  39.998  1.00  0.00     0.230 C
BRANCH  23  24
HETATM   24  C12 UNL     1     -25.442  -3.235  40.983  1.00  0.00     0.123 C
HETATM   25  N5  UNL     1     -25.396  -2.945  42.237  1.00  0.00    -0.282 N
ATOM     26  H5  UNL     1     -25.600  -1.992  42.536  1.00  0.00     0.193 HD
BRANCH  25  27
HETATM   27  O4  UNL     1     -25.077  -3.891  43.179  1.00  0.00    -0.290 OA
ATOM     28  H4  UNL     1     -25.114  -4.820  42.982  1.00  0.00     0.244 HD
ENDBRANCH  25  27
ENDBRANCH  23  24
BRANCH  23  29
HETATM   29  C13 UNL     1     -27.298  -2.094  39.994  1.00  0.00     0.202 C
HETATM   30  O5  UNL     1     -27.919  -1.306  39.270  1.00  0.00    -0.646 OA
HETATM   31  O6  UNL     1     -27.965  -2.953  40.837  1.00  0.00    -0.646 OA
ENDBRANCH  23  29
ENDBRANCH  21  23
ENDBRANCH  20  21
ENDBRANCH  16  20
BRANCH  19  32
HETATM   32  O8  UNL     1     -23.542   2.787  43.238  1.00  0.00    -0.362 OA
ATOM     33  H8  UNL     1     -24.219   3.385  42.945  1.00  0.00     0.213 HD
ENDBRANCH  19  32
BRANCH  19  34
HETATM   34  O9  UNL     1     -24.753   1.261  42.142  1.00  0.00    -0.362 OA
ATOM     35  H9  UNL     1     -25.401   1.953  42.186  1.00  0.00     0.213 HD
ENDBRANCH  19  34
ENDBRANCH  13  14
ENDBRANCH   8  13
BRANCH   5  36
HETATM   36  N2  UNL     1     -16.798   2.267  45.332  1.00  0.00    -0.072 N
ATOM     37  H23 UNL     1     -16.857   3.283  45.272  1.00  0.00     0.274 HD
ATOM     38  H22 UNL     1     -16.176   2.210  46.138  1.00  0.00     0.274 HD
ATOM     39  H21 UNL     1     -16.391   1.850  44.495  1.00  0.00     0.274 HD
ENDBRANCH   5  36
BRANCH   7  40
HETATM   40  N3  UNL     1     -20.991   1.553  46.465  1.00  0.00    -0.072 N
ATOM     41  H33 UNL     1     -20.343   1.763  47.224  1.00  0.00     0.274 HD
ATOM     42  H32 UNL     1     -21.791   2.060  46.842  1.00  0.00     0.274 HD
ATOM     43  H31 UNL     1     -21.162   0.555  46.339  1.00  0.00     0.274 HD
ENDBRANCH   7  40
TORSDOF 14
ENDMDL