MODEL 5
REMARK VINA RESULT: -7.673819232      1.894      2.923
REMARK  13 active torsions:
REMARK  status: ('A' for Active; 'I' for Inactive)
REMARK    1  A    between atoms: C2_5  and  C3_6
REMARK       I    between atoms: C3_6  and  N3_8
REMARK    2  A    between atoms: N3_8  and  N4_10
REMARK    3  A    between atoms: C5_14  and  N5_15
REMARK    4  A    between atoms: N5_15  and  C6_17
REMARK    5  A    between atoms: C6_17  and  C7_18
REMARK    6  A    between atoms: C7_18  and  O2_19
REMARK    7  A    between atoms: C7_18  and  C8_21
REMARK    8  A    between atoms: C8_21  and  O3_22
REMARK    9  A    between atoms: C9_26  and  N7_27
REMARK   10  A    between atoms: N7_27  and  N8_29
REMARK   11  A    between atoms: N8_29  and  C10_30
REMARK   12  A    between atoms: C10_30  and  C11_31
REMARK   13  A    between atoms: N10_37  and  N11_38
ROOT
HETATM    1  C1  UNL     1     -22.126  -0.041  39.159  1.00  0.00     0.179 C
HETATM    2  N1  UNL     1     -21.494   0.393  40.405  1.00  0.00    -0.279 N
HETATM    3  N2  UNL     1     -20.819  -0.310  41.272  1.00  0.00    -0.291 N
ATOM      4  H2  UNL     1     -20.639  -1.310  41.183  1.00  0.00     0.187 HD
HETATM    5  C2  UNL     1     -20.384   0.462  42.316  1.00  0.00     0.135 A
HETATM    6  C4  UNL     1     -20.830   1.723  42.058  1.00  0.00     0.088 A
HETATM    7  C5  UNL     1     -20.746   2.954  42.694  1.00  0.00     0.133 A
HETATM    8  N6  UNL     1     -21.328   4.020  42.134  1.00  0.00    -0.174 N
ATOM      9  H6  UNL     1     -21.257   4.917  42.616  1.00  0.00     0.186 HD
HETATM   10  C9  UNL     1     -21.998   3.978  40.976  1.00  0.00     0.710 A
HETATM   11  N13 UNL     1     -22.079   2.792  40.362  1.00  0.00    -0.172 N
ATOM     12  H13 UNL     1     -22.587   2.745  39.478  1.00  0.00     0.186 HD
HETATM   13  C14 UNL     1     -21.535   1.661  40.836  1.00  0.00     0.154 A
ENDROOT
BRANCH  10  14
HETATM   14  N7  UNL     1     -22.538   5.054  40.470  1.00  0.00    -0.065 N
ATOM     15  H7  UNL     1     -22.779   5.799  41.125  1.00  0.00     0.221 HD
BRANCH  14  16
HETATM   16  N8  UNL     1     -22.797   5.268  39.231  1.00  0.00    -0.322 NA
BRANCH  16  17
HETATM   17  C10 UNL     1     -22.962   5.623  38.102  1.00  0.00     0.232 C
BRANCH  17  18
HETATM   18  C11 UNL     1     -24.294   6.029  37.569  1.00  0.00     0.082 A
HETATM   19  S1  UNL     1     -25.115   5.379  36.208  1.00  0.00    -0.047 SA
HETATM   20  C12 UNL     1     -26.502   6.364  36.264  1.00  0.00     0.165 A
HETATM   21  N9  UNL     1     -27.554   6.370  35.470  1.00  0.00    -0.378 N
HETATM   22  N10 UNL     1     -26.282   7.148  37.317  1.00  0.00    -0.225 N
ATOM     23  H92 UNL     1     -27.723   5.770  34.663  1.00  0.00     0.158 HD
ATOM     24  H91 UNL     1     -28.385   6.961  35.503  1.00  0.00     0.158 HD
HETATM   25  C13 UNL     1     -25.159   6.987  37.993  1.00  0.00     0.159 A
HETATM   26  N12 UNL     1     -24.860   7.809  39.163  1.00  0.00    -0.079 NA
BRANCH  22  27
HETATM   27  N11 UNL     1     -27.273   8.134  37.669  1.00  0.00    -0.335 N
ATOM     28 2H11 UNL     1     -27.387   9.010  37.159  1.00  0.00     0.177 HD
ATOM     29 1H11 UNL     1     -27.890   7.950  38.459  1.00  0.00     0.177 HD
ENDBRANCH  22  27
ENDBRANCH  17  18
ENDBRANCH  16  17
ENDBRANCH  14  16
ENDBRANCH  10  14
BRANCH   7  30
HETATM   30  N5  UNL     1     -20.113   3.028  43.807  1.00  0.00    -0.372 N
ATOM     31  H5  UNL     1     -19.098   2.925  43.839  1.00  0.00     0.161 HD
BRANCH  30  32
HETATM   32  C6  UNL     1     -20.873   3.261  45.014  1.00  0.00     0.155 C
BRANCH  32  33
HETATM   33  C7  UNL     1     -20.237   2.684  46.236  1.00  0.00     0.159 C
BRANCH  33  34
HETATM   34  O2  UNL     1     -20.670   1.426  46.573  1.00  0.00    -0.392 OA
ATOM     35  H2  UNL     1     -20.101   0.719  46.293  1.00  0.00     0.210 HD
ENDBRANCH  33  34
BRANCH  33  36
HETATM   36  C8  UNL     1     -18.736   2.705  46.207  1.00  0.00     0.197 C
BRANCH  36  37
HETATM   37  O3  UNL     1     -18.203   1.414  46.072  1.00  0.00    -0.398 OA
ATOM     38  H3  UNL     1     -17.559   1.230  46.746  1.00  0.00     0.209 HD
ENDBRANCH  36  37
ENDBRANCH  33  36
ENDBRANCH  32  33
ENDBRANCH  30  32
ENDBRANCH   7  30
BRANCH   5  39
HETATM   39  C3  UNL     1     -19.612  -0.028  43.433  1.00  0.00     0.288 C
HETATM   40  O1  UNL     1     -20.046  -0.272  44.552  1.00  0.00    -0.264 OA
HETATM   41  N3  UNL     1     -18.190  -0.265  43.260  1.00  0.00    -0.271 N
ATOM     42  H3  UNL     1     -17.735  -0.094  42.363  1.00  0.00     0.189 HD
BRANCH  41  43
HETATM   43  N4  UNL     1     -17.469  -0.730  44.344  1.00  0.00    -0.342 N
ATOM     44  H42 UNL     1     -17.703  -1.629  44.764  1.00  0.00     0.176 HD
ATOM     45  H41 UNL     1     -16.709  -0.151  44.701  1.00  0.00     0.176 HD
ENDBRANCH  41  43
ENDBRANCH   5  39
TORSDOF 13
ENDMDL