MODEL 4
REMARK VINA RESULT: -4.572036792      3.993      7.072
REMARK  13 active torsions:
REMARK  status: ('A' for Active; 'I' for Inactive)
REMARK    1  A    between atoms: O1_2  and  C2_3
REMARK    2  A    between atoms: C2_3  and  O2_4
REMARK    3  A    between atoms: C2_3  and  C3_6
REMARK    4  A    between atoms: C5_8  and  O3_9
REMARK    5  A    between atoms: C9_15  and  N1_16
REMARK    6  A    between atoms: N2_18  and  C10_20
REMARK    7  A    between atoms: C11_21  and  N3_22
REMARK    8  A    between atoms: C11_21  and  N4_26
REMARK    9  A    between atoms: C12_30  and  N5_31
REMARK   10  A    between atoms: C13_35  and  N6_36
REMARK   11  A    between atoms: C13_35  and  O5_40
REMARK   12  A    between atoms: C15_44  and  O7_45
REMARK   13  A    between atoms: C15_44  and  C16_47
ROOT
HETATM    1  N1  UNL     1     -22.022   3.081  40.683  1.00  0.00    -0.300 N
ATOM      2  H1  UNL     1     -22.979   2.754  40.552  1.00  0.00     0.186 HD
HETATM    3  N2  UNL     1     -21.737   4.285  40.402  1.00  0.00    -0.322 N
ATOM      4  H2  UNL     1     -20.790   4.646  40.522  1.00  0.00     0.180 HD
ENDROOT
BRANCH   1   5
HETATM    5  C9  UNL     1     -21.049   2.183  41.174  1.00  0.00     0.112 C
HETATM    6  C3  UNL     1     -20.558   1.248  40.277  1.00  0.00     0.031 C
HETATM    7  C4  UNL     1     -19.496   0.399  40.483  1.00  0.00     0.052 C
HETATM    8  C5  UNL     1     -19.022  -0.089  41.684  1.00  0.00     0.083 C
HETATM    9  C6  UNL     1     -19.203   0.457  42.961  1.00  0.00     0.084 C
HETATM   10  C7  UNL     1     -19.959   1.548  43.319  1.00  0.00     0.138 C
HETATM   11  C17 UNL     1     -18.484  -0.255  43.999  1.00  0.00     0.212 C
HETATM   12  C8  UNL     1     -20.709   2.349  42.490  1.00  0.00     0.234 C
HETATM   13  O6  UNL     1     -19.985   1.899  44.653  1.00  0.00    -0.342 OA
HETATM   14  O4  UNL     1     -21.148   3.407  43.050  1.00  0.00    -0.283 OA
HETATM   15  C14 UNL     1     -18.894   1.671  45.524  1.00  0.00     0.234 C
HETATM   16  C15 UNL     1     -18.292   0.310  45.380  1.00  0.00     0.233 C
HETATM   17  O10 UNL     1     -18.000  -1.373  43.758  1.00  0.00    -0.288 OA
BRANCH   6  18
HETATM   18  C2  UNL     1     -21.220   1.134  38.973  1.00  0.00     0.293 C
BRANCH  18  19
HETATM   19  O1  UNL     1     -22.602   1.054  39.101  1.00  0.00    -0.362 OA
HETATM   20  C1  UNL     1     -23.048  -0.205  39.483  1.00  0.00     0.205 C
ENDBRANCH  18  19
BRANCH  18  21
HETATM   21  O2  UNL     1     -20.898   2.285  38.232  1.00  0.00    -0.367 OA
ATOM     22  H2  UNL     1     -19.976   2.255  38.003  1.00  0.00     0.213 HD
ENDBRANCH  18  21
ENDBRANCH   6  18
BRANCH   8  23
HETATM   23  O3  UNL     1     -18.274  -1.251  41.689  1.00  0.00    -0.360 OA
ATOM     24  H3  UNL     1     -18.041  -1.647  42.520  1.00  0.00     0.217 HD
ENDBRANCH   8  23
BRANCH  16  25
HETATM   25  O7  UNL     1     -16.906   0.413  45.561  1.00  0.00    -0.370 OA
ATOM     26  H7  UNL     1     -16.666   1.332  45.535  1.00  0.00     0.212 HD
ENDBRANCH  16  25
BRANCH  16  27
HETATM   27  C16 UNL     1     -18.792  -0.631  46.406  1.00  0.00     0.219 C
HETATM   28  O8  UNL     1     -18.048  -1.311  47.133  1.00  0.00    -0.645 OA
HETATM   29  O9  UNL     1     -20.184  -0.744  46.547  1.00  0.00    -0.645 OA
ENDBRANCH  16  27
ENDBRANCH   1   5
BRANCH   3  30
HETATM   30  C10 UNL     1     -22.801   5.127  39.905  1.00  0.00     0.231 C
HETATM   31  C11 UNL     1     -22.934   5.231  38.424  1.00  0.00     0.340 C
HETATM   32  C12 UNL     1     -23.164   6.712  38.587  1.00  0.00     0.314 C
HETATM   33  C13 UNL     1     -22.530   6.605  39.957  1.00  0.00     0.280 C
BRANCH  31  34
HETATM   34  N3  UNL     1     -24.109   4.521  37.931  1.00  0.00    -0.040 N
ATOM     35  H33 UNL     1     -24.917   5.142  37.869  1.00  0.00     0.277 HD
ATOM     36  H32 UNL     1     -24.012   4.285  36.944  1.00  0.00     0.277 HD
ATOM     37  H31 UNL     1     -24.318   3.695  38.492  1.00  0.00     0.277 HD
ENDBRANCH  31  34
BRANCH  31  38
HETATM   38  N4  UNL     1     -21.780   4.858  37.644  1.00  0.00    -0.040 N
ATOM     39  H43 UNL     1     -21.231   5.690  37.424  1.00  0.00     0.277 HD
ATOM     40  H42 UNL     1     -21.121   4.347  38.231  1.00  0.00     0.277 HD
ATOM     41  H41 UNL     1     -21.957   4.330  36.788  1.00  0.00     0.277 HD
ENDBRANCH  31  38
BRANCH  32  42
HETATM   42  N5  UNL     1     -22.437   7.548  37.653  1.00  0.00    -0.066 N
ATOM     43  H53 UNL     1     -21.505   7.753  38.014  1.00  0.00     0.275 HD
ATOM     44  H52 UNL     1     -22.192   7.015  36.819  1.00  0.00     0.275 HD
ATOM     45  H51 UNL     1     -22.912   8.412  37.392  1.00  0.00     0.275 HD
ENDBRANCH  32  42
BRANCH  33  46
HETATM   46  N6  UNL     1     -23.301   7.342  40.933  1.00  0.00    -0.043 N
ATOM     47  H63 UNL     1     -24.286   7.350  40.666  1.00  0.00     0.278 HD
ATOM     48  H62 UNL     1     -23.355   6.818  41.805  1.00  0.00     0.278 HD
ATOM     49  H61 UNL     1     -22.980   8.293  41.115  1.00  0.00     0.278 HD
ENDBRANCH  33  46
BRANCH  33  50
HETATM   50  O5  UNL     1     -21.195   6.974  40.016  1.00  0.00    -0.362 OA
ATOM     51  H5  UNL     1     -20.565   6.267  39.930  1.00  0.00     0.212 HD
ENDBRANCH  33  50
ENDBRANCH   3  30
TORSDOF 13
ENDMDL