MODEL 4
REMARK VINA RESULT: -6.295627058      6.811      7.992
REMARK  13 active torsions:
REMARK  status: ('A' for Active; 'I' for Inactive)
REMARK    1  A    between atoms: N1_1  and  C1_5
REMARK    2  A    between atoms: C1_5  and  C2_6
REMARK    3  A    between atoms: C5_9  and  N2_10
REMARK    4  A    between atoms: C6_14  and  O1_15
REMARK    5  A    between atoms: O1_15  and  C7_16
REMARK    6  A    between atoms: C8_17  and  N3_18
REMARK    7  A    between atoms: C10_23  and  N4_24
REMARK    8  A    between atoms: N4_24  and  C11_27
REMARK    9  A    between atoms: C12_30  and  C13_31
REMARK   10  A    between atoms: C14_33  and  O3_34
REMARK   11  A    between atoms: C15_36  and  N6_37
REMARK   12  A    between atoms: C16_41  and  N7_42
REMARK   13  A    between atoms: C17_46  and  O4_47
ROOT
HETATM    1  C7  UNL     1     -25.037   6.821  37.344  1.00  0.00     0.185 C
HETATM    2  C8  UNL     1     -24.179   5.752  36.716  1.00  0.00     0.217 C
HETATM    3  C9  UNL     1     -23.692   4.804  37.789  1.00  0.00     0.070 C
HETATM    4  C10 UNL     1     -22.547   5.488  38.515  1.00  0.00     0.223 C
HETATM    5  C16 UNL     1     -23.061   6.892  38.878  1.00  0.00     0.245 C
HETATM    6  C17 UNL     1     -24.564   6.943  38.800  1.00  0.00     0.181 C
ENDROOT
BRANCH   4   7
HETATM    7  N4  UNL     1     -22.147   4.783  39.700  1.00  0.00    -0.046 N
ATOM      8  H42 UNL     1     -21.222   5.084  40.009  1.00  0.00     0.279 HD
ATOM      9  H41 UNL     1     -22.696   5.082  40.506  1.00  0.00     0.279 HD
BRANCH   7  10
HETATM   10  C11 UNL     1     -22.198   3.357  39.541  1.00  0.00     0.338 C
HETATM   11  N5  UNL     1     -23.236   2.774  40.384  1.00  0.00    -0.065 NA
HETATM   12  O2  UNL     1     -22.821   2.667  41.666  1.00  0.00    -0.276 OA
HETATM   13  C12 UNL     1     -21.929   1.600  41.711  1.00  0.00     0.188 C
HETATM   14  C14 UNL     1     -20.690   1.968  40.980  1.00  0.00     0.183 C
HETATM   15  C15 UNL     1     -20.904   2.638  39.646  1.00  0.00     0.263 C
BRANCH  13  16
HETATM   16  C13 UNL     1     -22.561   0.304  41.259  1.00  0.00     0.122 C
HETATM   17  S1  UNL     1     -24.056  -0.017  42.264  1.00  0.00    -0.095 SA
ENDBRANCH  13  16
BRANCH  14  18
HETATM   18  O3  UNL     1     -19.958   2.848  41.803  1.00  0.00    -0.391 OA
ATOM     19  H3  UNL     1     -19.534   3.483  41.237  1.00  0.00     0.210 HD
ENDBRANCH  14  18
BRANCH  15  20
HETATM   20  N6  UNL     1     -20.759   1.595  38.625  1.00  0.00    -0.069 N
ATOM     21  H63 UNL     1     -21.654   1.149  38.426  1.00  0.00     0.275 HD
ATOM     22  H62 UNL     1     -20.571   2.001  37.709  1.00  0.00     0.275 HD
ATOM     23  H61 UNL     1     -20.052   0.903  38.874  1.00  0.00     0.275 HD
ENDBRANCH  15  20
ENDBRANCH   7  10
ENDBRANCH   4   7
BRANCH   5  24
HETATM   24  N7  UNL     1     -22.715   7.118  40.276  1.00  0.00    -0.070 N
ATOM     25  H73 UNL     1     -23.530   7.260  40.874  1.00  0.00     0.274 HD
ATOM     26  H72 UNL     1     -22.358   6.284  40.742  1.00  0.00     0.274 HD
ATOM     27  H71 UNL     1     -22.061   7.901  40.295  1.00  0.00     0.274 HD
ENDBRANCH   5  24
BRANCH   2  28
HETATM   28  N3  UNL     1     -24.923   4.964  35.748  1.00  0.00    -0.072 N
ATOM     29  H33 UNL     1     -25.893   5.273  35.684  1.00  0.00     0.274 HD
ATOM     30  H32 UNL     1     -24.626   5.171  34.795  1.00  0.00     0.274 HD
ATOM     31  H31 UNL     1     -24.865   3.966  35.948  1.00  0.00     0.274 HD
ENDBRANCH   2  28
BRANCH   6  32
HETATM   32  O4  UNL     1     -24.942   8.198  39.313  1.00  0.00    -0.391 OA
ATOM     33  H4  UNL     1     -25.050   8.136  40.254  1.00  0.00     0.210 HD
ENDBRANCH   6  32
BRANCH   1  34
HETATM   34  O1  UNL     1     -26.330   6.446  37.347  1.00  0.00    -0.349 OA
BRANCH  34  35
HETATM   35  C6  UNL     1     -27.282   7.423  37.200  1.00  0.00     0.291 C
HETATM   36  C5  UNL     1     -28.153   7.322  36.015  1.00  0.00     0.238 C
HETATM   37  C4  UNL     1     -29.298   8.312  36.171  1.00  0.00     0.040 C
HETATM   38  C3  UNL     1     -30.149   7.849  37.341  1.00  0.00     0.036 C
HETATM   39  C2  UNL     1     -29.284   7.185  38.391  1.00  0.00     0.150 C
HETATM   40  O5  UNL     1     -27.985   7.585  38.351  1.00  0.00    -0.352 OA
BRANCH  36  41
HETATM   41  N2  UNL     1     -28.782   6.007  35.851  1.00  0.00    -0.070 N
ATOM     42  H23 UNL     1     -28.626   5.378  36.639  1.00  0.00     0.274 HD
ATOM     43  H22 UNL     1     -29.800   6.030  35.914  1.00  0.00     0.274 HD
ATOM     44  H21 UNL     1     -28.437   5.642  34.963  1.00  0.00     0.274 HD
ENDBRANCH  36  41
BRANCH  39  45
HETATM   45  C1  UNL     1     -29.855   7.598  39.748  1.00  0.00     0.261 C
BRANCH  45  46
HETATM   46  N1  UNL     1     -28.744   7.949  40.609  1.00  0.00    -0.077 N
ATOM     47  H13 UNL     1     -27.870   8.072  40.096  1.00  0.00     0.274 HD
ATOM     48  H12 UNL     1     -28.816   8.895  40.981  1.00  0.00     0.274 HD
ATOM     49  H11 UNL     1     -28.678   7.240  41.339  1.00  0.00     0.274 HD
ENDBRANCH  45  46
ENDBRANCH  39  45
ENDBRANCH  34  35
ENDBRANCH   1  34
TORSDOF 13
ENDMDL