MODEL 2
REMARK VINA RESULT: -4.992637145      2.024      5.413
REMARK  2 active torsions:
REMARK  status: ('A' for Active; 'I' for Inactive)
REMARK    1  A    between atoms: N1_2  and  C2_5
REMARK    2  A    between atoms: C2_5  and  C3_6
ROOT
HETATM    1  C3  UNL     1       0.599 -16.610   7.773  1.00  0.00     0.017 C
HETATM    2  C4  UNL     1       1.708 -16.832   8.781  1.00  0.00     0.048 C
HETATM    3  C5  UNL     1       2.507 -17.483   7.714  1.00  0.00     0.079 C
HETATM    4  C6  UNL     1       1.681 -16.693   6.690  1.00  0.00     0.048 C
HETATM    5  N2  UNL     1       2.411 -18.854   7.495  1.00  0.00    -0.384 N
ATOM      6  H2  UNL     1       1.508 -19.323   7.411  1.00  0.00     0.160 HD
HETATM    7  C7  UNL     1       3.597 -19.545   7.396  1.00  0.00     0.067 C
HETATM    8  C8  UNL     1       4.755 -18.726   6.992  1.00  0.00     0.120 C
HETATM    9  S1  UNL     1       4.267 -17.081   7.661  1.00  0.00    -0.133 SA
ENDROOT
BRANCH   1  10
HETATM   10  C2  UNL     1       0.028 -15.209   7.768  1.00  0.00     0.236 C
BRANCH  10  11
HETATM   11  N1  UNL     1       0.030 -14.763   9.165  1.00  0.00    -0.079 N
HETATM   12  C1  UNL     1      -1.275 -14.385   9.622  1.00  0.00     0.267 C
ATOM     13  H12 UNL     1       0.701 -14.009   9.308  1.00  0.00     0.276 HD
ATOM     14  H11 UNL     1       0.442 -15.469   9.775  1.00  0.00     0.276 HD
ENDBRANCH  10  11
ENDBRANCH   1  10
TORSDOF 2
ENDMDL