MODEL 3
REMARK VINA RESULT: -5.113633420      1.296      1.636
REMARK  2 active torsions:
REMARK  status: ('A' for Active; 'I' for Inactive)
REMARK    1  A    between atoms: C2_2  and  C3_3
REMARK    2  A    between atoms: C5_7  and  C6_8
ROOT
HETATM    1  C3  UNL     1       1.801 -18.163   7.692  1.00  0.00     0.160 C
HETATM    2  C4  UNL     1       2.146 -17.126   8.716  1.00  0.00     0.150 C
HETATM    3  N1  UNL     1       1.241 -16.032   8.752  1.00  0.00    -0.412 N
ATOM      4  H1  UNL     1       1.058 -15.514   9.612  1.00  0.00     0.153 HD
HETATM    5  C5  UNL     1       0.602 -15.698   7.525  1.00  0.00     0.110 C
HETATM    6  C7  UNL     1       0.182 -16.901   6.719  1.00  0.00     0.194 C
HETATM    7  O1  UNL     1       1.318 -17.646   6.494  1.00  0.00    -0.378 OA
ENDROOT
BRANCH   1   8
HETATM    8  C2  UNL     1       2.974 -19.019   7.451  1.00  0.00    -0.004 C
HETATM    9  C1  UNL     1       4.176 -18.464   7.415  1.00  0.00     0.009 C
ENDBRANCH   1   8
BRANCH   5  10
HETATM   10  C6  UNL     1      -0.587 -14.800   7.851  1.00  0.00     0.113 C
HETATM   11  S1  UNL     1      -0.504 -14.444   9.623  1.00  0.00    -0.096 SA
ENDBRANCH   5  10
TORSDOF 2
ENDMDL