MODEL 3
REMARK VINA RESULT: -4.437979180      1.365      2.268
REMARK  3 active torsions:
REMARK  status: ('A' for Active; 'I' for Inactive)
REMARK    1  A    between atoms: C2_2  and  C3_3
REMARK    2  A    between atoms: C5_8  and  C6_9
REMARK    3  A    between atoms: C6_9  and  N2_10
ROOT
HETATM    1  C3  UNL     1       2.211 -16.597   8.082  1.00  0.00     0.316 C
HETATM    2  C4  UNL     1       2.206 -17.989   8.641  1.00  0.00     0.082 C
HETATM    3  N1  UNL     1       1.383 -15.713   8.882  1.00  0.00    -0.031 N
ATOM      4  H11 UNL     1       1.759 -14.773   9.013  1.00  0.00     0.280 HD
ATOM      5  H12 UNL     1       1.343 -15.944   9.875  1.00  0.00     0.280 HD
HETATM    6  C5  UNL     1       0.126 -15.766   8.202  1.00  0.00     0.242 C
HETATM    7  C7  UNL     1       0.512 -15.759   6.738  1.00  0.00     0.309 C
HETATM    8  N3  UNL     1       1.760 -16.475   6.747  1.00  0.00     0.123 N
HETATM    9  C8  UNL     1       1.708 -17.673   5.975  1.00  0.00     0.313 C
ENDROOT
BRANCH   6  10
HETATM   10  C6  UNL     1      -0.736 -14.546   8.419  1.00  0.00     0.264 C
BRANCH  10  11
HETATM   11  N2  UNL     1      -1.303 -14.498   9.745  1.00  0.00    -0.077 N
ATOM     12  H23 UNL     1      -2.302 -14.294   9.710  1.00  0.00     0.274 HD
ATOM     13  H22 UNL     1      -1.339 -15.428  10.163  1.00  0.00     0.274 HD
ATOM     14  H21 UNL     1      -0.817 -13.840  10.355  1.00  0.00     0.274 HD
ENDBRANCH  10  11
ENDBRANCH   6  10
BRANCH   1  15
HETATM   15  C2  UNL     1       3.673 -16.125   8.098  1.00  0.00     0.068 C
HETATM   16  C1  UNL     1       4.618 -17.279   7.848  1.00  0.00     0.009 C
ENDBRANCH   1  15
TORSDOF 3
ENDMDL