MODEL 2
REMARK VINA RESULT: -4.585941238      0.758      1.242
REMARK  3 active torsions:
REMARK  status: ('A' for Active; 'I' for Inactive)
REMARK    1  A    between atoms: N1_2  and  C2_5
REMARK    2  A    between atoms: C5_11  and  O1_12
REMARK    3  A    between atoms: O1_12  and  C6_13
ROOT
HETATM    1  C2  UNL     1       1.416 -15.655   7.865  1.00  0.00     0.241 C
HETATM    2  C3  UNL     1       1.819 -16.923   7.144  1.00  0.00     0.268 C
HETATM    3  N2  UNL     1       0.812 -17.016   6.075  1.00  0.00    -0.071 N
ATOM      4  H21 UNL     1       0.777 -17.911   5.585  1.00  0.00     0.277 HD
ATOM      5  H22 UNL     1       1.009 -16.464   5.240  1.00  0.00     0.277 HD
HETATM    6  C4  UNL     1      -0.406 -16.649   6.795  1.00  0.00     0.266 C
HETATM    7  C5  UNL     1      -0.002 -15.335   7.427  1.00  0.00     0.180 C
ENDROOT
BRANCH   7   8
HETATM    8  O1  UNL     1      -0.730 -14.997   8.522  1.00  0.00    -0.372 OA
BRANCH   8   9
HETATM    9  C6  UNL     1      -1.258 -13.769   8.621  1.00  0.00     0.051 C
HETATM   10  C7  UNL     1      -0.418 -12.600   8.274  1.00  0.00     0.045 C
HETATM   11  C8  UNL     1      -1.802 -13.587  10.024  1.00  0.00     0.045 C
HETATM   12  C9  UNL     1      -2.487 -13.720   7.700  1.00  0.00     0.045 C
ENDBRANCH   8   9
ENDBRANCH   7   8
BRANCH   1  13
HETATM   13  N1  UNL     1       1.522 -15.888   9.282  1.00  0.00    -0.071 N
HETATM   14  C1  UNL     1       2.551 -16.920   9.449  1.00  0.00     0.267 C
ATOM     15  H12 UNL     1       0.633 -16.125   9.722  1.00  0.00     0.277 HD
ATOM     16  H11 UNL     1       1.704 -15.041   9.820  1.00  0.00     0.277 HD
ENDBRANCH   1  13
TORSDOF 3
ENDMDL