MODEL 5
REMARK VINA RESULT: -4.787474570      1.294      2.273
REMARK  4 active torsions:
REMARK  status: ('A' for Active; 'I' for Inactive)
REMARK    1  A    between atoms: C2_3  and  C3_4
REMARK    2  A    between atoms: C3_4  and  N2_5
REMARK    3  A    between atoms: N2_5  and  N3_6
REMARK    4  A    between atoms: N2_5  and  N4_9
ROOT
HETATM    1  N1  UNL     1       1.124 -15.942   5.538  1.00  0.00    -0.196 NA
HETATM    2  C1  UNL     1       1.392 -16.375   6.577  1.00  0.00     0.070 C
HETATM    3  C2  UNL     1       1.715 -16.940   7.908  1.00  0.00     0.064 C
HETATM    4  C4  UNL     1       3.085 -16.446   8.325  1.00  0.00     0.026 C
HETATM    5  C5  UNL     1       4.163 -16.821   7.358  1.00  0.00     0.002 C
HETATM    6  C6  UNL     1       3.891 -18.130   6.653  1.00  0.00     0.000 C
HETATM    7  C7  UNL     1       3.111 -18.996   7.620  1.00  0.00     0.002 C
HETATM    8  C8  UNL     1       1.741 -18.429   7.915  1.00  0.00     0.026 C
ENDROOT
BRANCH   3   9
HETATM    9  C3  UNL     1       0.726 -16.333   8.873  1.00  0.00     0.162 C
BRANCH   9  10
HETATM   10  N2  UNL     1       0.927 -14.925   9.083  1.00  0.00    -0.151 NA
BRANCH  10  11
HETATM   11  N3  UNL     1       0.305 -14.112   8.163  1.00  0.00    -0.346 NA
ATOM     12  H32 UNL     1       0.204 -14.614   7.280  1.00  0.00     0.172 HD
ATOM     13  H31 UNL     1       0.769 -13.219   8.000  1.00  0.00     0.172 HD
ENDBRANCH  10  11
BRANCH  10  14
HETATM   14  N4  UNL     1       0.516 -14.580  10.351  1.00  0.00    -0.346 NA
ATOM     15  H42 UNL     1       0.678 -13.584  10.501  1.00  0.00     0.172 HD
ATOM     16  H41 UNL     1      -0.447 -14.882  10.496  1.00  0.00     0.172 HD
ENDBRANCH  10  14
ENDBRANCH   9  10
ENDBRANCH   3   9
TORSDOF 4
ENDMDL