MODEL 5
REMARK VINA RESULT: -3.963636062      2.082      4.562
REMARK  3 active torsions:
REMARK  status: ('A' for Active; 'I' for Inactive)
REMARK    1  A    between atoms: N1_2  and  C2_5
REMARK    2  A    between atoms: C2_5  and  C3_6
REMARK    3  A    between atoms: C5_8  and  N2_9
ROOT
HETATM    1  C3  UNL     1       1.953 -17.349   6.762  1.00  0.00     0.150 C
HETATM    2  C4  UNL     1       2.091 -18.859   6.999  1.00  0.00     0.066 C
HETATM    3  C5  UNL     1       3.475 -19.120   7.529  1.00  0.00     0.188 C
HETATM    4  C6  UNL     1       4.186 -17.902   8.004  1.00  0.00     0.070 C
HETATM    5  C7  UNL     1       3.342 -16.774   8.442  1.00  0.00     0.056 C
HETATM    6  C8  UNL     1       3.955 -15.430   8.031  1.00  0.00     0.045 C
HETATM    7  C9  UNL     1       3.291 -16.747   9.978  1.00  0.00     0.045 C
HETATM    8  O1  UNL     1       2.044 -16.772   8.007  1.00  0.00    -0.374 OA
ENDROOT
BRANCH   1   9
HETATM    9  C2  UNL     1       0.634 -17.100   6.086  1.00  0.00     0.263 C
BRANCH   9  10
HETATM   10  N1  UNL     1      -0.445 -16.915   7.014  1.00  0.00    -0.077 N
HETATM   11  C1  UNL     1      -0.588 -15.512   7.355  1.00  0.00     0.267 C
ATOM     12  H12 UNL     1      -0.335 -17.498   7.844  1.00  0.00     0.276 HD
ATOM     13  H11 UNL     1      -1.318 -17.312   6.664  1.00  0.00     0.276 HD
ENDBRANCH   9  10
ENDBRANCH   1   9
BRANCH   3  14
HETATM   14  N2  UNL     1       4.302 -19.720   6.472  1.00  0.00    -0.075 N
ATOM     15  H23 UNL     1       4.766 -20.573   6.783  1.00  0.00     0.274 HD
ATOM     16  H22 UNL     1       3.737 -20.125   5.725  1.00  0.00     0.274 HD
ATOM     17  H21 UNL     1       4.963 -19.027   6.121  1.00  0.00     0.274 HD
ENDBRANCH   3  14
TORSDOF 3
ENDMDL