MODEL 3
REMARK VINA RESULT: -4.003071778     12.435     14.083
REMARK  3 active torsions:
REMARK  status: ('A' for Active; 'I' for Inactive)
REMARK    1  A    between atoms: N1_2  and  C2_5
REMARK    2  A    between atoms: C4_7  and  N2_8
REMARK    3  A    between atoms: C6_14  and  C7_15
ROOT
HETATM    1  C2  UNL     1       4.194  -5.203  12.735  1.00  0.00     0.196 C
HETATM    2  C3  UNL     1       3.894  -3.947  13.574  1.00  0.00     0.088 C
HETATM    3  C4  UNL     1       3.560  -4.933  14.697  1.00  0.00     0.218 C
HETATM    4  C5  UNL     1       2.404  -4.451  15.441  1.00  0.00     0.099 C
HETATM    5  N3  UNL     1       1.488  -4.054  16.040  1.00  0.00    -0.195 NA
HETATM    6  C6  UNL     1       3.209  -5.901  13.562  1.00  0.00     0.070 C
ENDROOT
BRANCH   3   7
HETATM    7  N2  UNL     1       4.641  -5.299  15.535  1.00  0.00    -0.057 N
ATOM      8  H23 UNL     1       4.537  -6.269  15.833  1.00  0.00     0.276 HD
ATOM      9  H22 UNL     1       5.498  -5.369  14.986  1.00  0.00     0.276 HD
ATOM     10  H21 UNL     1       4.795  -4.701  16.346  1.00  0.00     0.276 HD
ENDBRANCH   3   7
BRANCH   6  11
HETATM   11  C7  UNL     1       3.224  -7.320  13.867  1.00  0.00    -0.013 C
HETATM   12  C8  UNL     1       3.321  -8.329  12.795  1.00  0.00     0.010 C
HETATM   13  C9  UNL     1       1.988  -7.690  14.707  1.00  0.00     0.010 C
ENDBRANCH   6  11
BRANCH   1  14
HETATM   14  N1  UNL     1       5.554  -5.584  12.711  1.00  0.00    -0.074 N
HETATM   15  C1  UNL     1       6.471  -4.505  12.397  1.00  0.00     0.267 C
ATOM     16  H12 UNL     1       5.693  -6.367  12.073  1.00  0.00     0.277 HD
ATOM     17  H11 UNL     1       5.815  -6.028  13.592  1.00  0.00     0.277 HD
ENDBRANCH   1  14
TORSDOF 3
ENDMDL