MODEL 4
REMARK VINA RESULT: -4.785671837      3.628      5.697
REMARK  2 active torsions:
REMARK  status: ('A' for Active; 'I' for Inactive)
REMARK    1  A    between atoms: N1_2  and  C2_4
REMARK    2  A    between atoms: C7_12  and  O1_13
ROOT
HETATM    1  C2  UNL     1       0.884 -15.426   8.340  1.00  0.00     0.110 C
HETATM    2  C3  UNL     1      -0.296 -15.429   7.362  1.00  0.00     0.257 C
HETATM    3  N2  UNL     1       0.127 -16.405   6.378  1.00  0.00    -0.069 N
ATOM      4  H21 UNL     1       0.689 -16.001   5.628  1.00  0.00     0.277 HD
ATOM      5  H22 UNL     1      -0.638 -16.746   5.796  1.00  0.00     0.277 HD
HETATM    6  C4  UNL     1       0.805 -17.452   7.093  1.00  0.00     0.194 C
HETATM    7  C5  UNL     1       1.797 -18.117   6.159  1.00  0.00     0.036 C
HETATM    8  C6  UNL     1       3.074 -17.346   6.274  1.00  0.00     0.034 C
HETATM    9  C7  UNL     1       3.007 -16.544   7.557  1.00  0.00     0.129 C
HETATM   10  C9  UNL     1       1.631 -16.698   8.112  1.00  0.00     0.069 C
ENDROOT
BRANCH   1  11
HETATM   11  N1  UNL     1       0.500 -15.174   9.673  1.00  0.00    -0.419 N
HETATM   12  C1  UNL     1      -0.662 -14.407   9.895  1.00  0.00     0.140 C
ATOM     13  H1  UNL     1       1.046 -15.537  10.455  1.00  0.00     0.153 HD
ENDBRANCH   1  11
BRANCH   9  14
HETATM   14  O1  UNL     1       3.986 -16.999   8.444  1.00  0.00    -0.390 OA
HETATM   15  C8  UNL     1       5.018 -17.650   7.778  1.00  0.00     0.202 C
ENDBRANCH   9  14
TORSDOF 2
ENDMDL