MODEL 3
REMARK VINA RESULT: -3.948048874      2.261      3.503
REMARK  3 active torsions:
REMARK  status: ('A' for Active; 'I' for Inactive)
REMARK    1  A    between atoms: C2_2  and  C3_3
REMARK    2  A    between atoms: C3_3  and  C4_4
REMARK    3  A    between atoms: C4_4  and  N1_6
ROOT
HETATM    1  C3  UNL     1       2.703 -17.910   7.491  1.00  0.00     0.011 C
HETATM    2  C6  UNL     1       1.542 -17.548   8.330  1.00  0.00     0.135 C
HETATM    3  N2  UNL     1       1.112 -16.206   8.004  1.00  0.00    -0.178 NA
HETATM    4  S1  UNL     1       1.028 -16.388   6.232  1.00  0.00    -0.065 SA
HETATM    5  C7  UNL     1       2.543 -17.386   6.109  1.00  0.00     0.105 C
ENDROOT
BRANCH   1   6
HETATM    6  C2  UNL     1       2.780 -19.424   7.413  1.00  0.00     0.009 C
HETATM    7  C1  UNL     1       4.148 -19.911   7.032  1.00  0.00     0.006 C
ENDBRANCH   1   6
BRANCH   1   8
HETATM    8  C4  UNL     1       3.985 -17.396   8.117  1.00  0.00     0.190 C
HETATM    9  C5  UNL     1       4.791 -16.567   7.164  1.00  0.00     0.040 C
BRANCH   8  10
HETATM   10  N1  UNL     1       3.599 -16.655   9.307  1.00  0.00    -0.075 N
ATOM     11  H13 UNL     1       2.968 -17.175   9.918  1.00  0.00     0.274 HD
ATOM     12  H12 UNL     1       4.361 -16.542   9.976  1.00  0.00     0.274 HD
ATOM     13  H11 UNL     1       3.210 -15.769   8.985  1.00  0.00     0.274 HD
ENDBRANCH   8  10
ENDBRANCH   1   8
TORSDOF 3
ENDMDL