MODEL 4
REMARK VINA RESULT: -5.188469758      1.583      2.103
REMARK  3 active torsions:
REMARK  status: ('A' for Active; 'I' for Inactive)
REMARK    1  A    between atoms: C2_3  and  S1_4
REMARK    2  A    between atoms: S1_4  and  C3_5
REMARK    3  A    between atoms: C5_7  and  N2_8
ROOT
HETATM    1  N1  UNL     1      -0.473 -12.152   8.308  1.00  0.00    -0.197 NA
HETATM    2  C1  UNL     1      -0.516 -13.287   8.472  1.00  0.00     0.069 C
HETATM    3  C2  UNL     1      -0.650 -14.729   8.706  1.00  0.00     0.197 C
ENDROOT
BRANCH   3   4
HETATM    4  S1  UNL     1       0.107 -15.701   7.377  1.00  0.00    -0.150 SA
BRANCH   4   5
HETATM    5  C3  UNL     1       1.378 -16.801   7.998  1.00  0.00     0.054 C
HETATM    6  C4  UNL     1       2.653 -16.031   8.368  1.00  0.00     0.048 C
HETATM    7  C5  UNL     1       3.752 -17.083   8.216  1.00  0.00     0.189 C
HETATM    8  C6  UNL     1       2.958 -18.313   8.071  1.00  0.00     0.022 A
HETATM    9  C7  UNL     1       2.432 -19.042   6.983  1.00  0.00     0.013 A
HETATM   10  C8  UNL     1       1.984 -17.702   6.996  1.00  0.00     0.006 A
BRANCH   7  11
HETATM   11  N2  UNL     1       4.682 -16.793   7.181  1.00  0.00    -0.075 N
ATOM     12  H23 UNL     1       4.884 -17.629   6.634  1.00  0.00     0.274 HD
ATOM     13  H22 UNL     1       4.249 -16.217   6.459  1.00  0.00     0.274 HD
ATOM     14  H21 UNL     1       5.546 -16.364   7.513  1.00  0.00     0.274 HD
ENDBRANCH   7  11
ENDBRANCH   4   5
ENDBRANCH   3   4
TORSDOF 3
ENDMDL