MODEL 5
REMARK VINA RESULT: -4.678148766      5.744      6.576
REMARK  5 active torsions:
REMARK  status: ('A' for Active; 'I' for Inactive)
REMARK    1  A    between atoms: C2_2  and  C4_4
REMARK    2  A    between atoms: C5_7  and  C6_8
REMARK       I    between atoms: C6_8  and  N1_10
REMARK    3  A    between atoms: N1_10  and  C7_12
REMARK    4  A    between atoms: C7_12  and  N2_13
REMARK    5  A    between atoms: C7_12  and  O2_17
ROOT
HETATM    1  C6  UNL     1     -27.768  -9.814  14.133  1.00  0.00     0.263 C
HETATM    2  O1  UNL     1     -26.724  -9.807  13.408  1.00  0.00    -0.267 OA
HETATM    3  N1  UNL     1     -28.108 -11.028  14.731  1.00  0.00    -0.308 N
ATOM      4  H1  UNL     1     -28.941 -11.084  15.320  1.00  0.00     0.167 HD
ENDROOT
BRANCH   1   5
HETATM    5  C5  UNL     1     -28.542  -8.599  14.305  1.00  0.00     0.093 A
HETATM    6  C4  UNL     1     -28.296  -7.238  14.263  1.00  0.00     0.016 A
HETATM    7  S1  UNL     1     -29.857  -6.586  14.607  1.00  0.00    -0.055 SA
HETATM    8  S2  UNL     1     -30.236  -8.535  14.673  1.00  0.00    -0.046 SA
BRANCH   6   9
HETATM    9  C2  UNL     1     -27.083  -6.424  13.978  1.00  0.00     0.019 C
HETATM   10  C1  UNL     1     -27.138  -5.120  14.783  1.00  0.00     0.015 C
HETATM   11  C3  UNL     1     -27.090  -5.977  12.500  1.00  0.00     0.015 C
ENDBRANCH   6   9
ENDBRANCH   1   5
BRANCH   3  12
HETATM   12  C7  UNL     1     -27.294 -12.213  14.527  1.00  0.00     0.426 C
BRANCH  12  13
HETATM   13  N2  UNL     1     -25.987 -12.009  15.125  1.00  0.00    -0.035 N
ATOM     14  H23 UNL     1     -26.029 -11.407  15.948  1.00  0.00     0.279 HD
ATOM     15  H22 UNL     1     -25.635 -12.851  15.579  1.00  0.00     0.279 HD
ATOM     16  H21 UNL     1     -25.342 -11.652  14.419  1.00  0.00     0.279 HD
ENDBRANCH  12  13
BRANCH  12  17
HETATM   17  O2  UNL     1     -27.202 -12.599  13.207  1.00  0.00    -0.355 OA
ATOM     18  H2  UNL     1     -26.599 -12.071  12.698  1.00  0.00     0.213 HD
ENDBRANCH  12  17
ENDBRANCH   3  12
TORSDOF 5
ENDMDL