MODEL 3
REMARK VINA RESULT: -5.305685763      1.719      2.389
REMARK  4 active torsions:
REMARK  status: ('A' for Active; 'I' for Inactive)
REMARK    1  A    between atoms: C2_2  and  C3_3
REMARK    2  A    between atoms: C3_3  and  N1_5
REMARK    3  A    between atoms: C7_8  and  O1_9
REMARK    4  A    between atoms: N2_11  and  N3_12
ROOT
HETATM    1  N1  UNL     1     -31.658  -7.872  12.881  1.00  0.00    -0.177 N
HETATM    2  C5  UNL     1     -30.738  -8.712  12.391  1.00  0.00     0.079 A
HETATM    3  C6  UNL     1     -31.059 -10.041  11.863  1.00  0.00     0.074 C
HETATM    4  C7  UNL     1     -29.469  -8.129  12.465  1.00  0.00     0.203 A
HETATM    5  N2  UNL     1     -29.671  -6.918  13.015  1.00  0.00    -0.062 N
HETATM    6  C11 UNL     1     -30.986  -6.770  13.262  1.00  0.00     0.702 A
HETATM    7  N4  UNL     1     -31.472  -5.686  13.797  1.00  0.00    -0.233 N
ATOM      8  H41 UNL     1     -30.962  -4.851  14.085  1.00  0.00     0.174 HD
ATOM      9  H42 UNL     1     -32.468  -5.574  13.984  1.00  0.00     0.174 HD
ENDROOT
BRANCH   5  10
HETATM   10  N3  UNL     1     -28.655  -6.003  13.268  1.00  0.00    -0.286 N
HETATM   11  C8  UNL     1     -27.879  -6.037  14.276  1.00  0.00    -0.003 C
HETATM   12  C9  UNL     1     -26.834  -5.018  14.446  1.00  0.00     0.064 C
HETATM   13  C10 UNL     1     -28.034  -7.107  15.273  1.00  0.00     0.064 C
ATOM     14  H3  UNL     1     -28.521  -5.248  12.595  1.00  0.00     0.187 HD
ENDBRANCH   5  10
BRANCH   4  15
HETATM   15  O1  UNL     1     -28.284  -8.722  12.045  1.00  0.00    -0.343 OA
ATOM     16  H1  UNL     1     -27.591  -8.287  11.563  1.00  0.00     0.219 HD
ENDBRANCH   4  15
BRANCH   1  17
HETATM   17  C3  UNL     1     -33.075  -7.990  13.027  1.00  0.00     0.103 C
HETATM   18  C4  UNL     1     -33.829  -8.349  11.805  1.00  0.00     0.033 C
BRANCH  17  19
HETATM   19  C2  UNL     1     -33.396  -9.017  14.097  1.00  0.00     0.021 C
HETATM   20  C1  UNL     1     -34.862  -9.403  14.066  1.00  0.00     0.007 C
ENDBRANCH  17  19
ENDBRANCH   1  17
TORSDOF 4
ENDMDL