MODEL 2
REMARK VINA RESULT: -5.696502095      0.912      1.165
REMARK  5 active torsions:
REMARK  status: ('A' for Active; 'I' for Inactive)
REMARK    1  A    between atoms: C2_2  and  C3_3
REMARK    2  A    between atoms: C5_5  and  O1_6
REMARK    3  A    between atoms: O1_6  and  O2_7
REMARK    4  A    between atoms: C7_10  and  O3_11
REMARK    5  A    between atoms: O3_11  and  C8_12
REMARK       I    between atoms: C8_12  and  N1_14
ROOT
HETATM    1  C3  UNL     1     -33.333  -9.089  13.024  1.00  0.00    -0.010 C
HETATM    2  C4  UNL     1     -32.541 -10.254  12.549  1.00  0.00     0.039 C
HETATM    3  C5  UNL     1     -31.360 -10.627  13.352  1.00  0.00     0.163 C
HETATM    4  C6  UNL     1     -31.130  -9.737  14.557  1.00  0.00     0.067 C
HETATM    5  C7  UNL     1     -31.140  -8.312  13.983  1.00  0.00     0.136 C
HETATM    6  C9  UNL     1     -32.599  -8.024  13.727  1.00  0.00     0.037 C
ENDROOT
BRANCH   5   7
HETATM    7  O3  UNL     1     -30.656  -7.385  14.902  1.00  0.00    -0.298 OA
BRANCH   7   8
HETATM    8  C8  UNL     1     -29.319  -7.024  14.866  1.00  0.00     0.371 C
HETATM    9  O4  UNL     1     -28.552  -7.571  15.697  1.00  0.00    -0.238 OA
HETATM   10  N1  UNL     1     -28.842  -6.071  13.923  1.00  0.00    -0.266 N
HETATM   11  S1  UNL     1     -27.146  -5.653  13.924  1.00  0.00     0.046 SA
ATOM     12  H1  UNL     1     -29.481  -5.638  13.256  1.00  0.00     0.180 HD
ENDBRANCH   7   8
ENDBRANCH   5   7
BRANCH   3  13
HETATM   13  O1  UNL     1     -31.423 -11.933  13.818  1.00  0.00    -0.238 OA
BRANCH  13  14
HETATM   14  O2  UNL     1     -32.181 -12.708  13.081  1.00  0.00    -0.250 OA
ATOM     15  H2  UNL     1     -32.671 -13.345  13.588  1.00  0.00     0.253 HD
ENDBRANCH  13  14
ENDBRANCH   3  13
BRANCH   1  16
HETATM   16  C2  UNL     1     -34.096  -8.446  11.857  1.00  0.00     0.000 C
HETATM   17  C1  UNL     1     -34.482  -9.483  10.824  1.00  0.00     0.005 C
ENDBRANCH   1  16
TORSDOF 5
ENDMDL