MODEL 1
REMARK VINA RESULT: -5.512417674      0.000      0.000
REMARK  6 active torsions:
REMARK  status: ('A' for Active; 'I' for Inactive)
REMARK    1  A    between atoms: C2_2  and  C4_4
REMARK    2  A    between atoms: C4_4  and  O1_5
REMARK    3  A    between atoms: C4_4  and  C5_7
REMARK    4  A    between atoms: C6_9  and  N1_10
REMARK    5  A    between atoms: N2_13  and  C7_14
REMARK    6  A    between atoms: C10_17  and  O2_18
ROOT
HETATM    1  C5  UNL     1     -34.842  -9.478  12.203  1.00  0.00     0.088 A
HETATM    2  S1  UNL     1     -34.305  -8.817  10.691  1.00  0.00    -0.047 SA
HETATM    3  C6  UNL     1     -32.966  -7.916  11.293  1.00  0.00     0.147 A
HETATM    4  N2  UNL     1     -32.996  -8.148  12.584  1.00  0.00    -0.303 N
HETATM    5  C10 UNL     1     -33.937  -8.936  13.065  1.00  0.00     0.164 A
ENDROOT
BRANCH   1   6
HETATM    6  C4  UNL     1     -35.852 -10.519  12.420  1.00  0.00     0.068 C
BRANCH   6   7
HETATM    7  C2  UNL     1     -37.267 -10.103  12.430  1.00  0.00     0.035 C
HETATM    8  C1  UNL     1     -37.854  -9.604  11.146  1.00  0.00     0.016 C
HETATM    9  C3  UNL     1     -37.540  -9.204  13.615  1.00  0.00     0.016 C
ENDBRANCH   6   7
BRANCH   6  10
HETATM   10  O1  UNL     1     -35.449 -11.605  13.141  1.00  0.00    -0.363 OA
ATOM     11  H1  UNL     1     -34.649 -12.063  12.911  1.00  0.00     0.217 HD
ENDBRANCH   6  10
ENDBRANCH   1   6
BRANCH   5  12
HETATM   12  O2  UNL     1     -34.083  -9.243  14.448  1.00  0.00    -0.345 OA
ATOM     13  H2  UNL     1     -33.289  -9.387  14.950  1.00  0.00     0.219 HD
ENDBRANCH   5  12
BRANCH   3  14
HETATM   14  N1  UNL     1     -32.142  -7.229  10.545  1.00  0.00    -0.379 N
ATOM     15  H12 UNL     1     -32.104  -7.070   9.538  1.00  0.00     0.158 HD
ATOM     16  H11 UNL     1     -31.367  -6.671  10.903  1.00  0.00     0.158 HD
ENDBRANCH   3  14
BRANCH   4  17
HETATM   17  C7  UNL     1     -32.028  -7.429  13.467  1.00  0.00     0.086 C
HETATM   18  C8  UNL     1     -32.075  -5.948  13.186  1.00  0.00     0.032 C
HETATM   19  C9  UNL     1     -30.667  -8.015  13.236  1.00  0.00     0.032 C
ENDBRANCH   4  17
TORSDOF 6
ENDMDL