MODEL 2
REMARK VINA RESULT: -6.216834729      1.111      1.450
REMARK  7 active torsions:
REMARK  status: ('A' for Active; 'I' for Inactive)
REMARK    1  A    between atoms: C2_2  and  C3_3
REMARK    2  A    between atoms: C3_3  and  C4_4
REMARK    3  A    between atoms: C4_4  and  C9_18
REMARK    4  A    between atoms: C5_5  and  O1_6
REMARK    5  A    between atoms: C5_5  and  N1_8
REMARK    6  A    between atoms: C6_11  and  O2_12
REMARK    7  A    between atoms: C8_15  and  O3_16
ROOT
HETATM    1  C4  UNL     1     -33.301  -9.188  10.395  1.00  0.00    -0.020 C
HETATM    2  C5  UNL     1     -34.198 -10.050  11.115  1.00  0.00     0.167 C
ENDROOT
BRANCH   2   3
HETATM    3  O1  UNL     1     -33.593 -11.156  11.557  1.00  0.00    -0.344 OA
ATOM      4  H1  UNL     1     -32.649 -11.110  11.466  1.00  0.00     0.219 HD
ENDBRANCH   2   3
BRANCH   2   5
HETATM    5  N1  UNL     1     -35.553 -10.008  11.463  1.00  0.00    -0.209 N
HETATM    6  N2  UNL     1     -36.503  -9.421  10.677  1.00  0.00    -0.269 N
HETATM    7  C6  UNL     1     -37.700  -9.519  11.234  1.00  0.00     0.159 A
ATOM      8  H2  UNL     1     -36.316  -8.969   9.783  1.00  0.00     0.190 HD
HETATM    9  C7  UNL     1     -37.557 -10.183  12.419  1.00  0.00     0.115 A
HETATM   10  C8  UNL     1     -36.182 -10.475  12.526  1.00  0.00     0.168 A
BRANCH   7  11
HETATM   11  O2  UNL     1     -38.864  -9.017  10.674  1.00  0.00    -0.345 OA
ATOM     12  H2  UNL     1     -39.478  -8.454  11.131  1.00  0.00     0.219 HD
ENDBRANCH   7  11
BRANCH  10  13
HETATM   13  O3  UNL     1     -35.742 -11.156  13.649  1.00  0.00    -0.345 OA
ATOM     14  H3  UNL     1     -35.630 -10.894  14.556  1.00  0.00     0.219 HD
ENDBRANCH  10  13
ENDBRANCH   2   5
BRANCH   1  15
HETATM   15  C3  UNL     1     -33.638  -8.717   9.029  1.00  0.00     0.039 C
BRANCH  15  16
HETATM   16  C2  UNL     1     -33.806  -9.939   8.108  1.00  0.00     0.000 C
HETATM   17  C1  UNL     1     -34.468  -9.550   6.819  1.00  0.00     0.005 C
ENDBRANCH  15  16
ENDBRANCH   1  15
BRANCH   1  18
HETATM   18  C9  UNL     1     -32.542  -8.170  11.237  1.00  0.00    -0.024 C
HETATM   19  C10 UNL     1     -32.329  -6.946  10.327  1.00  0.00     0.019 C
HETATM   20  C11 UNL     1     -33.237  -7.693  12.451  1.00  0.00     0.019 C
HETATM   21  C12 UNL     1     -31.184  -8.694  11.571  1.00  0.00     0.019 C
ENDBRANCH   1  18
TORSDOF 7
ENDMDL