MODEL 3
REMARK VINA RESULT: -5.296155696      1.752      5.402
REMARK  5 active torsions:
REMARK  status: ('A' for Active; 'I' for Inactive)
REMARK    1  A    between atoms: C2_2  and  O1_4
REMARK    2  A    between atoms: C2_2  and  C4_6
REMARK    3  A    between atoms: C4_6  and  O2_7
REMARK    4  A    between atoms: O2_7  and  N1_8
REMARK    5  A    between atoms: C11_16  and  O3_17
ROOT
HETATM    1  N1  UNL     1     -32.762  -8.829  11.662  1.00  0.00    -0.272 N
ATOM      2  H1  UNL     1     -32.710  -8.287  10.800  1.00  0.00     0.193 HD
HETATM    3  C5  UNL     1     -31.854  -8.663  12.563  1.00  0.00     0.038 C
HETATM    4  C6  UNL     1     -30.839  -7.649  12.151  1.00  0.00     0.057 C
HETATM    5  C7  UNL     1     -29.936  -7.254  13.285  1.00  0.00     0.006 C
HETATM    6  C8  UNL     1     -30.727  -6.933  14.512  1.00  0.00     0.000 C
HETATM    7  C9  UNL     1     -30.820  -8.107  15.455  1.00  0.00     0.003 C
HETATM    8  C10 UNL     1     -30.895  -9.426  14.725  1.00  0.00     0.038 C
HETATM    9  C11 UNL     1     -32.028  -9.493  13.756  1.00  0.00     0.165 C
ENDROOT
BRANCH   1  10
HETATM   10  O2  UNL     1     -33.793  -9.714  11.831  1.00  0.00    -0.278 OA
BRANCH  10  11
HETATM   11  C4  UNL     1     -35.115  -9.298  12.127  1.00  0.00     0.238 C
BRANCH  11  12
HETATM   12  C2  UNL     1     -35.812 -10.265  13.048  1.00  0.00     0.074 C
HETATM   13  C1  UNL     1     -35.813  -9.673  14.440  1.00  0.00     0.047 C
HETATM   14  C3  UNL     1     -37.250 -10.428  12.627  1.00  0.00     0.047 C
BRANCH  12  15
HETATM   15  O1  UNL     1     -35.202 -11.495  13.095  1.00  0.00    -0.388 OA
ATOM     16  H1  UNL     1     -35.509 -11.957  13.866  1.00  0.00     0.210 HD
ENDBRANCH  12  15
ENDBRANCH  11  12
ENDBRANCH  10  11
ENDBRANCH   1  10
BRANCH   9  17
HETATM   17  O3  UNL     1     -32.143 -10.827  13.326  1.00  0.00    -0.390 OA
ATOM     18  H3  UNL     1     -33.067 -11.002  13.188  1.00  0.00     0.210 HD
ENDBRANCH   9  17
TORSDOF 5
ENDMDL