MODEL 5
REMARK VINA RESULT: -6.070992936      1.631      2.185
REMARK  5 active torsions:
REMARK  status: ('A' for Active; 'I' for Inactive)
REMARK    1  A    between atoms: C4_4  and  C5_5
REMARK    2  A    between atoms: C5_5  and  C6_6
REMARK    3  A    between atoms: C8_14  and  C9_15
REMARK    4  A    between atoms: C9_15  and  O2_16
REMARK    5  A    between atoms: N3_18  and  O3_20
ROOT
HETATM    1  C6  UNL     1     -31.954  -9.044  14.267  1.00  0.00     0.015 C
HETATM    2  N1  UNL     1     -31.515 -10.188  13.927  1.00  0.00    -0.267 N
ATOM      3  H1  UNL     1     -32.184 -10.925  13.701  1.00  0.00     0.194 HD
HETATM    4  O1  UNL     1     -30.195 -10.459  13.854  1.00  0.00    -0.224 OA
HETATM    5  C7  UNL     1     -29.249  -9.516  14.144  1.00  0.00     0.152 C
HETATM    6  N2  UNL     1     -28.034  -9.817  14.480  1.00  0.00    -0.381 N
ATOM      7  H21 UNL     1     -27.328  -9.114  14.696  1.00  0.00     0.158 HD
ATOM      8  H22 UNL     1     -27.758 -10.797  14.534  1.00  0.00     0.158 HD
HETATM    9  C8  UNL     1     -29.650  -8.091  14.065  1.00  0.00     0.144 C
HETATM   10  C10 UNL     1     -31.032  -7.947  14.605  1.00  0.00     0.076 C
ENDROOT
BRANCH   9  11
HETATM   11  C9  UNL     1     -28.686  -7.272  14.832  1.00  0.00     0.147 C
HETATM   12  N3  UNL     1     -28.257  -6.179  14.318  1.00  0.00    -0.250 N
ATOM     13  H3  UNL     1     -27.592  -5.621  14.853  1.00  0.00     0.196 HD
BRANCH  11  14
HETATM   14  O2  UNL     1     -28.266  -7.682  16.062  1.00  0.00    -0.347 OA
ATOM     15  H2  UNL     1     -27.446  -8.152  16.155  1.00  0.00     0.219 HD
ENDBRANCH  11  14
BRANCH  12  16
HETATM   16  O3  UNL     1     -28.642  -5.727  13.098  1.00  0.00    -0.288 OA
ATOM     17  H3  UNL     1     -28.287  -4.943  12.695  1.00  0.00     0.244 HD
ENDBRANCH  12  16
ENDBRANCH   9  11
BRANCH   1  18
HETATM   18  C5  UNL     1     -33.406  -8.806  14.329  1.00  0.00     0.081 C
BRANCH  18  19
HETATM   19  C4  UNL     1     -34.158  -9.671  13.375  1.00  0.00    -0.019 C
HETATM   20  C2  UNL     1     -35.384  -9.989  13.683  1.00  0.00    -0.091 C
HETATM   21  C1  UNL     1     -36.011  -9.515  14.925  1.00  0.00     0.042 C
HETATM   22  C3  UNL     1     -36.162 -10.845  12.765  1.00  0.00     0.042 C
ENDBRANCH  18  19
ENDBRANCH   1  18
TORSDOF 5
ENDMDL