MODEL 4
REMARK VINA RESULT: -5.613372986      1.743      2.446
REMARK  5 active torsions:
REMARK  status: ('A' for Active; 'I' for Inactive)
REMARK    1  A    between atoms: O1_2  and  C2_3
REMARK    2  A    between atoms: C2_3  and  C3_4
REMARK    3  A    between atoms: C3_4  and  C4_5
REMARK    4  A    between atoms: C5_6  and  C6_7
REMARK    5  A    between atoms: C6_7  and  C7_8
ROOT
HETATM    1  C7  UNL     1     -31.593  -8.391  14.660  1.00  0.00     0.205 A
HETATM    2  N1  UNL     1     -30.574  -8.358  15.631  1.00  0.00    -0.351 N
ATOM      3  H1  UNL     1     -30.426  -8.791  16.543  1.00  0.00     0.163 HD
HETATM    4  C8  UNL     1     -29.845  -7.479  14.812  1.00  0.00     0.151 A
HETATM    5  C9  UNL     1     -28.776  -6.646  14.421  1.00  0.00     0.163 A
HETATM    6  N2  UNL     1     -27.593  -6.389  15.160  1.00  0.00    -0.079 NA
HETATM    7  N3  UNL     1     -29.149  -6.180  13.219  1.00  0.00    -0.318 N
ATOM      8  H3  UNL     1     -28.597  -5.542  12.647  1.00  0.00     0.169 HD
HETATM    9  C10 UNL     1     -30.349  -6.671  12.876  1.00  0.00     0.182 A
HETATM   10  S1  UNL     1     -31.215  -6.403  11.528  1.00  0.00    -0.040 SA
HETATM   11  N4  UNL     1     -30.787  -7.490  13.882  1.00  0.00    -0.284 N
ENDROOT
BRANCH   1  12
HETATM   12  C6  UNL     1     -31.840  -9.718  13.978  1.00  0.00     0.141 C
BRANCH  12  13
HETATM   13  C5  UNL     1     -33.141  -9.657  13.304  1.00  0.00    -0.103 C
HETATM   14  C4  UNL     1     -34.190  -9.610  12.738  1.00  0.00    -0.104 C
BRANCH  14  15
HETATM   15  C3  UNL     1     -35.486  -9.552  12.015  1.00  0.00     0.120 C
BRANCH  15  16
HETATM   16  C2  UNL     1     -36.566  -9.303  13.015  1.00  0.00     0.179 C
BRANCH  16  17
HETATM   17  O1  UNL     1     -37.797  -9.133  12.436  1.00  0.00    -0.395 OA
HETATM   18  C1  UNL     1     -37.920  -9.556  11.139  1.00  0.00     0.201 C
ENDBRANCH  16  17
ENDBRANCH  15  16
ENDBRANCH  14  15
ENDBRANCH  12  13
ENDBRANCH   1  12
TORSDOF 5
ENDMDL