MODEL 2
REMARK VINA RESULT: -5.655142643      2.535      3.264
REMARK  6 active torsions:
REMARK  status: ('A' for Active; 'I' for Inactive)
REMARK    1  A    between atoms: O1_2  and  C2_3
REMARK    2  A    between atoms: C2_3  and  C3_5
REMARK    3  A    between atoms: C4_6  and  C5_7
REMARK    4  A    between atoms: C8_11  and  C9_12
REMARK    5  A    between atoms: C9_12  and  N2_16
REMARK    6  A    between atoms: N2_16  and  O3_18
ROOT
HETATM    1  C5  UNL     1     -33.354  -8.171  11.614  1.00  0.00     0.113 A
HETATM    2  S1  UNL     1     -31.888  -7.333  11.946  1.00  0.00    -0.120 SA
HETATM    3  C6  UNL     1     -32.264  -8.285  13.324  1.00  0.00    -0.013 A
HETATM    4  C7  UNL     1     -31.548  -8.478  14.690  1.00  0.00     0.056 C
HETATM    5  C8  UNL     1     -33.325  -8.803  12.909  1.00  0.00     0.017 A
ENDROOT
BRANCH   5   6
HETATM    6  C9  UNL     1     -34.309  -9.781  13.518  1.00  0.00     0.127 C
HETATM    7  N1  UNL     1     -34.998  -9.454  14.545  1.00  0.00    -0.384 N
ATOM      8  H12 UNL     1     -34.868  -8.522  14.940  1.00  0.00     0.157 HD
ATOM      9  H11 UNL     1     -35.660 -10.113  14.955  1.00  0.00     0.157 HD
BRANCH   6  10
HETATM   10  N2  UNL     1     -34.488 -11.064  12.975  1.00  0.00    -0.253 N
ATOM     11  H2  UNL     1     -33.672 -11.540  12.590  1.00  0.00     0.196 HD
BRANCH  10  12
HETATM   12  O3  UNL     1     -35.661 -11.697  12.934  1.00  0.00    -0.288 OA
ATOM     13  H3  UNL     1     -35.757 -12.623  12.745  1.00  0.00     0.244 HD
ENDBRANCH  10  12
ENDBRANCH   6  10
ENDBRANCH   5   6
BRANCH   1  14
HETATM   14  C4  UNL     1     -33.207  -9.132  10.465  1.00  0.00    -0.000 C
HETATM   15  C3  UNL     1     -34.185  -9.557   9.761  1.00  0.00     0.079 C
BRANCH  15  16
HETATM   16  C2  UNL     1     -35.565  -9.221   9.915  1.00  0.00     0.282 C
HETATM   17  O2  UNL     1     -36.179  -8.578   9.039  1.00  0.00    -0.260 OA
BRANCH  16  18
HETATM   18  O1  UNL     1     -36.310  -9.586  11.047  1.00  0.00    -0.323 OA
HETATM   19  C1  UNL     1     -37.719  -9.552  10.982  1.00  0.00     0.213 C
ENDBRANCH  16  18
ENDBRANCH  15  16
ENDBRANCH   1  14
TORSDOF 6
ENDMDL