MODEL 5
REMARK VINA RESULT: -5.660012903      1.451      1.610
REMARK  5 active torsions:
REMARK  status: ('A' for Active; 'I' for Inactive)
REMARK    1  A    between atoms: C2_2  and  O2_4
REMARK    2  A    between atoms: O2_4  and  C3_5
REMARK    3  A    between atoms: C3_5  and  C4_6
REMARK    4  A    between atoms: C5_7  and  C6_8
REMARK    5  A    between atoms: N1_14  and  O3_16
ROOT
HETATM    1  C6  UNL     1     -32.418  -8.924  13.866  1.00  0.00    -0.015 C
HETATM    2  C7  UNL     1     -31.328  -9.677  14.168  1.00  0.00     0.003 C
HETATM    3  C8  UNL     1     -30.123  -8.814  14.247  1.00  0.00     0.087 C
HETATM    4  S1  UNL     1     -29.394  -8.595  12.611  1.00  0.00    -0.088 SA
HETATM    5  C9  UNL     1     -30.759  -7.465  14.625  1.00  0.00     0.080 C
HETATM    6  C10 UNL     1     -31.968  -7.548  13.718  1.00  0.00     0.043 C
HETATM    7  N1  UNL     1     -32.447  -6.611  12.994  1.00  0.00    -0.273 N
ATOM      8  H1  UNL     1     -33.266  -6.831  12.427  1.00  0.00     0.194 HD
ENDROOT
BRANCH   1   9
HETATM    9  C5  UNL     1     -33.762  -9.442  13.713  1.00  0.00     0.011 C
HETATM   10  C4  UNL     1     -34.117 -10.137  12.674  1.00  0.00     0.000 C
BRANCH  10  11
HETATM   11  C3  UNL     1     -35.526 -10.655  12.561  1.00  0.00     0.206 C
BRANCH  11  12
HETATM   12  O2  UNL     1     -36.221  -9.901  11.591  1.00  0.00    -0.318 OA
BRANCH  12  13
HETATM   13  C2  UNL     1     -37.525  -9.524  11.832  1.00  0.00     0.255 C
HETATM   14  C1  UNL     1     -38.067  -9.376  13.225  1.00  0.00     0.126 C
HETATM   15  O1  UNL     1     -38.286  -9.297  10.862  1.00  0.00    -0.266 OA
ENDBRANCH  12  13
ENDBRANCH  11  12
ENDBRANCH  10  11
ENDBRANCH   1   9
BRANCH   7  16
HETATM   16  O3  UNL     1     -31.964  -5.354  12.916  1.00  0.00    -0.290 OA
ATOM     17  H3  UNL     1     -32.318  -4.596  13.366  1.00  0.00     0.244 HD
ENDBRANCH   7  16
TORSDOF 5
ENDMDL