MODEL 5
REMARK VINA RESULT: -7.311491415      2.170      4.400
REMARK  3 active torsions:
REMARK  status: ('A' for Active; 'I' for Inactive)
REMARK       I    between atoms: C1_2  and  N1_3
REMARK    1  A    between atoms: C1_2  and  C9_12
REMARK    2  A    between atoms: N1_3  and  C2_5
REMARK    3  A    between atoms: N2_16  and  C13_17
ROOT
HETATM    1  C9  UNL     1     -17.811  -9.610 -59.655  1.00  0.00     0.095 C
HETATM    2  C10 UNL     1     -16.964 -10.747 -59.171  1.00  0.00     0.017 C
HETATM    3  C11 UNL     1     -17.804 -11.808 -58.455  1.00  0.00     0.020 C
HETATM    4  C12 UNL     1     -18.787 -12.433 -59.404  1.00  0.00     0.117 C
HETATM    5  N2  UNL     1     -18.978 -11.525 -60.488  1.00  0.00    -0.407 N
HETATM    6  C18 UNL     1     -19.135 -10.164 -60.125  1.00  0.00     0.131 C
ENDROOT
BRANCH   1   7
HETATM    7  C1  UNL     1     -17.159  -8.840 -60.743  1.00  0.00     0.223 C
HETATM    8  O1  UNL     1     -15.905  -8.802 -60.831  1.00  0.00    -0.273 OA
HETATM    9  N1  UNL     1     -17.918  -8.136 -61.701  1.00  0.00    -0.356 N
ATOM     10  H1  UNL     1     -18.934  -8.169 -61.627  1.00  0.00     0.162 HD
BRANCH   9  11
HETATM   11  C2  UNL     1     -17.337  -7.369 -62.785  1.00  0.00     0.084 C
HETATM   12  C3  UNL     1     -18.145  -7.581 -64.012  1.00  0.00     0.025 C
HETATM   13  C4  UNL     1     -18.188  -6.483 -64.996  1.00  0.00     0.002 C
HETATM   14  C5  UNL     1     -17.052  -5.515 -64.955  1.00  0.00     0.000 C
HETATM   15  C6  UNL     1     -17.500  -4.337 -64.100  1.00  0.00     0.000 C
HETATM   16  C7  UNL     1     -18.067  -4.961 -62.823  1.00  0.00     0.002 C
HETATM   17  C8  UNL     1     -17.102  -5.982 -62.354  1.00  0.00     0.025 C
ENDBRANCH   9  11
ENDBRANCH   1   7
BRANCH   5  18
HETATM   18  C13 UNL     1     -19.733 -11.985 -61.577  1.00  0.00     0.079 C
HETATM   19  C14 UNL     1     -19.136 -11.711 -62.927  1.00  0.00     0.025 C
HETATM   20  C15 UNL     1     -20.149 -12.424 -63.833  1.00  0.00     0.002 C
HETATM   21  C16 UNL     1     -20.289 -13.751 -63.102  1.00  0.00     0.002 C
HETATM   22  C17 UNL     1     -19.992 -13.459 -61.636  1.00  0.00     0.025 C
ENDBRANCH   5  18
TORSDOF 3
ENDMDL