MODEL 2
REMARK VINA RESULT: -7.007306756      2.461      3.685
REMARK  3 active torsions:
REMARK  status: ('A' for Active; 'I' for Inactive)
REMARK    1  A    between atoms: C1_2  and  C2_3
REMARK       I    between atoms: C1_2  and  N2_16
REMARK    2  A    between atoms: C2_3  and  N1_4
REMARK    3  A    between atoms: N1_4  and  C3_6
ROOT
HETATM    1  N1  UNL     1     -17.886  -8.641 -63.642  1.00  0.00    -0.404 N
ATOM      2  H1  UNL     1     -17.949  -8.969 -64.606  1.00  0.00     0.154 HD
ENDROOT
BRANCH   1   3
HETATM    3  C2  UNL     1     -18.155  -9.509 -62.544  1.00  0.00     0.218 C
BRANCH   3   4
HETATM    4  C1  UNL     1     -17.586 -10.867 -62.916  1.00  0.00     0.237 C
HETATM    5  O1  UNL     1     -16.458 -10.949 -63.449  1.00  0.00    -0.272 OA
HETATM    6  N2  UNL     1     -18.318 -12.050 -62.666  1.00  0.00    -0.351 N
HETATM    7  C13 UNL     1     -19.633 -11.920 -62.073  1.00  0.00     0.126 C
HETATM    8  C18 UNL     1     -17.594 -13.268 -63.047  1.00  0.00     0.126 C
HETATM    9  C14 UNL     1     -20.700 -12.539 -62.944  1.00  0.00     0.020 C
HETATM   10  C15 UNL     1     -20.195 -13.766 -63.671  1.00  0.00     0.002 C
HETATM   11  C16 UNL     1     -19.572 -14.786 -62.776  1.00  0.00     0.002 C
HETATM   12  C17 UNL     1     -18.199 -14.435 -62.298  1.00  0.00     0.020 C
ENDBRANCH   3   4
ENDBRANCH   1   3
BRANCH   1  13
HETATM   13  C3  UNL     1     -17.526  -7.298 -63.336  1.00  0.00     0.027 C
HETATM   14  C4  UNL     1     -18.071  -6.717 -62.081  1.00  0.00     0.035 C
HETATM   15  C5  UNL     1     -17.745  -5.242 -62.038  1.00  0.00    -0.012 C
HETATM   16  C6  UNL     1     -18.291  -4.495 -63.234  1.00  0.00     0.009 C
HETATM   17  C10 UNL     1     -16.261  -5.071 -61.967  1.00  0.00     0.009 C
HETATM   18  C7  UNL     1     -17.621  -5.041 -64.460  1.00  0.00    -0.012 C
HETATM   19  C8  UNL     1     -16.115  -4.927 -64.409  1.00  0.00     0.009 C
HETATM   20  C12 UNL     1     -17.959  -6.489 -64.570  1.00  0.00     0.035 C
HETATM   21  C9  UNL     1     -15.648  -5.688 -63.207  1.00  0.00    -0.012 C
HETATM   22  C11 UNL     1     -15.996  -7.140 -63.282  1.00  0.00     0.035 C
ENDBRANCH   1  13
TORSDOF 3
ENDMDL