MODEL 1
REMARK VINA RESULT: -6.543566965      0.000      0.000
REMARK  5 active torsions:
REMARK  status: ('A' for Active; 'I' for Inactive)
REMARK    1  A    between atoms: C1_2  and  N1_3
REMARK    2  A    between atoms: C1_2  and  N3_17
REMARK    3  A    between atoms: N1_3  and  C2_5
REMARK    4  A    between atoms: C2_5  and  C3_6
REMARK    5  A    between atoms: N2_9  and  C6_10
ROOT
HETATM    1  C3  UNL     1     -17.237  -9.975 -61.049  1.00  0.00     0.013 C
HETATM    2  C4  UNL     1     -18.261  -9.596 -62.067  1.00  0.00     0.051 C
HETATM    3  C5  UNL     1     -17.713  -8.571 -63.009  1.00  0.00     0.064 C
HETATM    4  N2  UNL     1     -17.018  -7.518 -62.397  1.00  0.00    -0.369 N
HETATM    5  C11 UNL     1     -16.772  -7.513 -61.018  1.00  0.00     0.064 C
HETATM    6  C12 UNL     1     -16.574  -8.855 -60.381  1.00  0.00     0.051 C
ENDROOT
BRANCH   1   7
HETATM    7  C2  UNL     1     -17.786 -11.076 -60.135  1.00  0.00     0.127 C
BRANCH   7   8
HETATM    8  N1  UNL     1     -18.357 -12.138 -60.878  1.00  0.00    -0.367 N
ATOM      9  H1  UNL     1     -17.871 -12.387 -61.739  1.00  0.00     0.161 HD
BRANCH   8  10
HETATM   10  C1  UNL     1     -19.494 -12.883 -60.589  1.00  0.00     0.169 C
HETATM   11  S1  UNL     1     -20.199 -12.695 -59.079  1.00  0.00    -0.041 SA
BRANCH  10  12
HETATM   12  N3  UNL     1     -20.094 -13.784 -61.502  1.00  0.00    -0.358 N
HETATM   13  C13 UNL     1     -20.305 -13.363 -62.911  1.00  0.00     0.125 C
HETATM   14  C14 UNL     1     -20.494 -14.700 -63.602  1.00  0.00     0.021 C
HETATM   15  C15 UNL     1     -21.444 -15.337 -62.576  1.00  0.00     0.021 C
HETATM   16  C16 UNL     1     -20.580 -15.119 -61.328  1.00  0.00     0.125 C
ENDBRANCH  10  12
ENDBRANCH   8  10
ENDBRANCH   7   8
ENDBRANCH   1   7
BRANCH   4  17
HETATM   17  C6  UNL     1     -16.341  -6.601 -63.226  1.00  0.00     0.088 C
HETATM   18  C7  UNL     1     -16.296  -5.236 -62.570  1.00  0.00     0.026 C
HETATM   19  C8  UNL     1     -17.747  -4.797 -62.662  1.00  0.00     0.002 C
HETATM   20  C9  UNL     1     -18.158  -5.258 -64.057  1.00  0.00     0.002 C
HETATM   21  C10 UNL     1     -17.131  -6.292 -64.481  1.00  0.00     0.026 C
ENDBRANCH   4  17
TORSDOF 5
ENDMDL