MODEL 5
REMARK VINA RESULT: -6.753617649      1.379      2.421
REMARK  3 active torsions:
REMARK  status: ('A' for Active; 'I' for Inactive)
REMARK       I    between atoms: C1_2  and  N1_3
REMARK    1  A    between atoms: C1_2  and  C8_11
REMARK    2  A    between atoms: N1_3  and  C2_5
REMARK    3  A    between atoms: N2_14  and  C11_15
ROOT
HETATM    1  C8  UNL     1     -18.494 -11.153 -62.145  1.00  0.00     0.107 C
HETATM    2  C9  UNL     1     -19.668 -11.632 -62.956  1.00  0.00     0.046 C
HETATM    3  C10 UNL     1     -19.239 -13.057 -63.271  1.00  0.00     0.273 C
HETATM    4  N2  UNL     1     -17.813 -13.084 -63.328  1.00  0.00     0.093 N
HETATM    5  C17 UNL     1     -17.311 -11.815 -62.819  1.00  0.00     0.287 C
ENDROOT
BRANCH   1   6
HETATM    6  C1  UNL     1     -18.361  -9.664 -62.121  1.00  0.00     0.223 C
HETATM    7  O1  UNL     1     -18.607  -9.114 -61.023  1.00  0.00    -0.273 OA
HETATM    8  N1  UNL     1     -17.990  -8.917 -63.237  1.00  0.00    -0.356 N
ATOM      9  H1  UNL     1     -17.794  -9.461 -64.077  1.00  0.00     0.162 HD
BRANCH   8  10
HETATM   10  C2  UNL     1     -17.843  -7.497 -63.383  1.00  0.00     0.084 C
HETATM   11  C3  UNL     1     -18.255  -7.038 -64.741  1.00  0.00     0.025 C
HETATM   12  C4  UNL     1     -17.932  -5.634 -65.087  1.00  0.00     0.002 C
HETATM   13  C5  UNL     1     -17.119  -4.910 -64.040  1.00  0.00     0.000 C
HETATM   14  C6  UNL     1     -15.957  -5.868 -63.726  1.00  0.00     0.002 C
HETATM   15  C7  UNL     1     -16.584  -6.947 -62.861  1.00  0.00     0.025 C
ENDBRANCH   8  10
ENDBRANCH   1   6
BRANCH   4  16
HETATM   16  C11 UNL     1     -17.164 -14.130 -62.615  1.00  0.00     0.223 C
HETATM   17  C12 UNL     1     -15.821 -14.406 -63.310  1.00  0.00     0.036 C
HETATM   18  C13 UNL     1     -16.163 -14.850 -64.715  1.00  0.00     0.002 C
HETATM   19  C14 UNL     1     -16.765 -16.249 -64.614  1.00  0.00     0.000 C
HETATM   20  C15 UNL     1     -18.075 -16.113 -63.867  1.00  0.00     0.002 C
HETATM   21  C16 UNL     1     -17.880 -15.431 -62.531  1.00  0.00     0.036 C
ENDBRANCH   4  16
TORSDOF 3
ENDMDL