MODEL 3
REMARK VINA RESULT: -7.181447282      0.908      1.212
REMARK  3 active torsions:
REMARK  status: ('A' for Active; 'I' for Inactive)
REMARK       I    between atoms: C1_2  and  N1_3
REMARK    1  A    between atoms: C1_2  and  C14_18
REMARK    2  A    between atoms: N1_3  and  C2_5
REMARK    3  A    between atoms: N2_8  and  C5_9
ROOT
HETATM    1  C2  UNL     1     -18.282 -10.158 -62.378  1.00  0.00     0.087 C
HETATM    2  C3  UNL     1     -19.324 -10.139 -61.291  1.00  0.00     0.055 C
HETATM    3  C4  UNL     1     -19.619 -11.539 -60.784  1.00  0.00     0.276 C
HETATM    4  N2  UNL     1     -18.542 -12.378 -61.149  1.00  0.00     0.103 N
HETATM    5  C12 UNL     1     -18.370 -12.567 -62.573  1.00  0.00     0.276 C
HETATM    6  C13 UNL     1     -18.657 -11.302 -63.309  1.00  0.00     0.055 C
ENDROOT
BRANCH   1   7
HETATM    7  N1  UNL     1     -18.202  -8.959 -63.132  1.00  0.00    -0.356 N
HETATM    8  C1  UNL     1     -17.262  -7.956 -62.794  1.00  0.00     0.222 C
HETATM    9  O1  UNL     1     -16.472  -8.112 -61.809  1.00  0.00    -0.273 OA
ATOM     10  H1  UNL     1     -18.828  -8.818 -63.925  1.00  0.00     0.162 HD
BRANCH   8  11
HETATM   11  C14 UNL     1     -17.126  -6.689 -63.533  1.00  0.00     0.078 C
HETATM   12  C15 UNL     1     -18.047  -6.657 -64.759  1.00  0.00     0.014 C
HETATM   13  C16 UNL     1     -17.868  -5.190 -65.166  1.00  0.00     0.001 C
HETATM   14  C17 UNL     1     -17.690  -4.433 -63.861  1.00  0.00     0.001 C
HETATM   15  C18 UNL     1     -17.645  -5.496 -62.766  1.00  0.00     0.014 C
ENDBRANCH   8  11
ENDBRANCH   1   7
BRANCH   4  16
HETATM   16  C5  UNL     1     -18.590 -13.731 -60.594  1.00  0.00     0.288 C
HETATM   17  C6  UNL     1     -18.092 -14.797 -61.364  1.00  0.00    -0.148 C
HETATM   18  C7  UNL     1     -17.710 -15.883 -62.169  1.00  0.00     0.082 C
HETATM   19  C8  UNL     1     -18.979 -16.777 -62.356  1.00  0.00     0.011 C
HETATM   20  C9  UNL     1     -20.034 -16.474 -61.281  1.00  0.00     0.001 C
HETATM   21  C10 UNL     1     -20.619 -15.168 -61.143  1.00  0.00     0.003 C
HETATM   22  C11 UNL     1     -20.063 -14.101 -60.219  1.00  0.00     0.048 C
ENDBRANCH   4  16
TORSDOF 3
ENDMDL