MODEL 5
REMARK VINA RESULT: -6.813980487      1.399      2.071
REMARK  4 active torsions:
REMARK  status: ('A' for Active; 'I' for Inactive)
REMARK    1  A    between atoms: C1_2  and  C2_3
REMARK       I    between atoms: C1_2  and  N2_9
REMARK    2  A    between atoms: C2_3  and  N1_4
REMARK    3  A    between atoms: C7_11  and  O2_12
REMARK    4  A    between atoms: C7_11  and  C8_14
ROOT
HETATM    1  O1  UNL     1     -17.408  -9.819 -63.340  1.00  0.00    -0.271 OA
HETATM    2  C1  UNL     1     -17.127  -9.028 -62.407  1.00  0.00     0.251 C
HETATM    3  N2  UNL     1     -17.294  -9.501 -61.078  1.00  0.00    -0.309 N
ATOM      4  H2  UNL     1     -18.232  -9.693 -60.727  1.00  0.00     0.170 HD
HETATM    5  C7  UNL     1     -16.276  -9.690 -60.309  1.00  0.00     0.127 C
ENDROOT
BRANCH   5   6
HETATM    6  O2  UNL     1     -14.986  -9.440 -60.751  1.00  0.00    -0.349 OA
ATOM      7  H2  UNL     1     -14.309  -9.151 -60.151  1.00  0.00     0.219 HD
ENDBRANCH   5   6
BRANCH   5   8
HETATM    8  C8  UNL     1     -16.435 -10.183 -58.921  1.00  0.00     0.026 C
HETATM    9  C9  UNL     1     -15.609 -11.445 -58.689  1.00  0.00     0.022 C
HETATM   10  C10 UNL     1     -15.830 -11.911 -57.289  1.00  0.00    -0.013 C
HETATM   11  C11 UNL     1     -15.474 -10.880 -56.254  1.00  0.00     0.009 C
HETATM   12  C15 UNL     1     -17.274 -12.290 -57.115  1.00  0.00     0.009 C
HETATM   13  C12 UNL     1     -16.289  -9.636 -56.528  1.00  0.00    -0.013 C
HETATM   14  C13 UNL     1     -17.747  -9.948 -56.360  1.00  0.00     0.009 C
HETATM   15  C17 UNL     1     -15.964  -9.160 -57.914  1.00  0.00     0.022 C
HETATM   16  C14 UNL     1     -18.119 -11.056 -57.326  1.00  0.00    -0.013 C
HETATM   17  C16 UNL     1     -17.877 -10.554 -58.713  1.00  0.00     0.022 C
ENDBRANCH   5   8
BRANCH   2  18
HETATM   18  C2  UNL     1     -16.644  -7.662 -62.614  1.00  0.00     0.374 C
BRANCH  18  19
HETATM   19  N1  UNL     1     -17.668  -6.733 -63.001  1.00  0.00     0.097 N
HETATM   20  C3  UNL     1     -17.344  -5.443 -62.432  1.00  0.00     0.273 C
HETATM   21  C4  UNL     1     -17.854  -4.437 -63.435  1.00  0.00     0.032 C
HETATM   22  C5  UNL     1     -17.512  -5.126 -64.744  1.00  0.00     0.032 C
HETATM   23  C6  UNL     1     -17.815  -6.572 -64.411  1.00  0.00     0.273 C
ENDBRANCH  18  19
ENDBRANCH   2  18
TORSDOF 4
ENDMDL