MODEL 4
REMARK VINA RESULT: -6.666171912      2.220      3.579
REMARK  4 active torsions:
REMARK  status: ('A' for Active; 'I' for Inactive)
REMARK    1  A    between atoms: C5_6  and  C6_7
REMARK    2  A    between atoms: C6_7  and  N1_8
REMARK    3  A    between atoms: N1_8  and  C7_10
REMARK    4  A    between atoms: C7_10  and  C8_12
ROOT
HETATM    1  C7  UNL     1     -16.611  -9.275 -61.902  1.00  0.00     0.082 C
HETATM    2  S1  UNL     1     -17.425 -10.423 -62.700  1.00  0.00    -0.065 SA
ENDROOT
BRANCH   1   3
HETATM    3  N1  UNL     1     -15.985  -8.230 -62.580  1.00  0.00    -0.381 N
ATOM      4  H1  UNL     1     -15.207  -8.505 -63.180  1.00  0.00     0.160 HD
BRANCH   3   5
HETATM    5  C6  UNL     1     -16.269  -6.835 -62.559  1.00  0.00     0.152 C
BRANCH   5   6
HETATM    6  C5  UNL     1     -17.431  -6.483 -63.410  1.00  0.00     0.142 C
HETATM    7  C2  UNL     1     -17.253  -5.089 -64.044  1.00  0.00     0.014 C
HETATM    8  C1  UNL     1     -17.866  -4.102 -63.097  1.00  0.00     0.012 C
HETATM    9  C3  UNL     1     -17.958  -5.204 -65.354  1.00  0.00     0.033 C
HETATM   10  C4  UNL     1     -18.558  -6.597 -65.337  1.00  0.00     0.168 C
HETATM   11  O1  UNL     1     -17.729  -7.263 -64.473  1.00  0.00    -0.384 OA
ENDBRANCH   5   6
ENDBRANCH   3   5
ENDBRANCH   1   3
BRANCH   1  12
HETATM   12  C8  UNL     1     -16.510  -9.397 -60.427  1.00  0.00     0.014 C
HETATM   13  C9  UNL     1     -16.985  -8.146 -59.724  1.00  0.00     0.021 C
HETATM   14  C10 UNL     1     -16.870  -8.405 -58.235  1.00  0.00    -0.013 C
HETATM   15  C11 UNL     1     -17.767  -9.553 -57.828  1.00  0.00     0.009 C
HETATM   16  C15 UNL     1     -15.465  -8.736 -57.851  1.00  0.00     0.009 C
HETATM   17  C12 UNL     1     -17.307 -10.786 -58.563  1.00  0.00    -0.013 C
HETATM   18  C13 UNL     1     -15.894 -11.163 -58.255  1.00  0.00     0.009 C
HETATM   19  C17 UNL     1     -17.462 -10.523 -60.035  1.00  0.00     0.021 C
HETATM   20  C14 UNL     1     -14.996  -9.976 -58.579  1.00  0.00    -0.013 C
HETATM   21  C16 UNL     1     -15.099  -9.702 -60.052  1.00  0.00     0.021 C
ENDBRANCH   1  12
TORSDOF 4
ENDMDL