MODEL 2
REMARK VINA RESULT: -7.545582128      1.881      3.166
REMARK  3 active torsions:
REMARK  status: ('A' for Active; 'I' for Inactive)
REMARK       I    between atoms: C1_2  and  N1_3
REMARK    1  A    between atoms: C1_2  and  C8_11
REMARK    2  A    between atoms: N1_3  and  C2_5
REMARK    3  A    between atoms: N2_15  and  C12_16
ROOT
HETATM    1  C8  UNL     1     -17.741 -10.960 -62.438  1.00  0.00     0.080 C
HETATM    2  C9  UNL     1     -18.404 -11.545 -63.671  1.00  0.00     0.019 C
HETATM    3  C10 UNL     1     -19.303 -12.707 -63.322  1.00  0.00     0.045 C
HETATM    4  C11 UNL     1     -18.575 -13.728 -62.453  1.00  0.00     0.058 C
HETATM    5  N2  UNL     1     -17.304 -13.933 -63.011  1.00  0.00    -0.389 N
HETATM    6  C17 UNL     1     -16.281 -12.991 -62.760  1.00  0.00     0.123 C
HETATM    7  C18 UNL     1     -16.663 -11.835 -61.891  1.00  0.00     0.034 C
ENDROOT
BRANCH   1   8
HETATM    8  C1  UNL     1     -17.184  -9.651 -62.770  1.00  0.00     0.222 C
HETATM    9  O1  UNL     1     -15.965  -9.422 -62.572  1.00  0.00    -0.273 OA
HETATM   10  N1  UNL     1     -17.979  -8.618 -63.315  1.00  0.00    -0.356 N
ATOM     11  H1  UNL     1     -18.969  -8.810 -63.475  1.00  0.00     0.162 HD
BRANCH  10  12
HETATM   12  C2  UNL     1     -17.479  -7.307 -63.660  1.00  0.00     0.084 C
HETATM   13  C3  UNL     1     -18.265  -6.678 -64.787  1.00  0.00     0.025 C
HETATM   14  C4  UNL     1     -17.483  -5.462 -65.236  1.00  0.00     0.002 C
HETATM   15  C5  UNL     1     -16.358  -5.115 -64.311  1.00  0.00     0.000 C
HETATM   16  C6  UNL     1     -16.709  -5.131 -62.861  1.00  0.00     0.002 C
HETATM   17  C7  UNL     1     -17.493  -6.367 -62.487  1.00  0.00     0.025 C
ENDBRANCH  10  12
ENDBRANCH   1   8
BRANCH   5  18
HETATM   18  C12 UNL     1     -16.972 -15.163 -63.576  1.00  0.00     0.083 C
HETATM   19  C13 UNL     1     -18.125 -16.036 -64.005  1.00  0.00     0.025 C
HETATM   20  C14 UNL     1     -17.354 -17.198 -64.651  1.00  0.00     0.002 C
HETATM   21  C15 UNL     1     -16.110 -16.547 -65.259  1.00  0.00     0.002 C
HETATM   22  C16 UNL     1     -16.155 -15.090 -64.845  1.00  0.00     0.025 C
ENDBRANCH   5  18
TORSDOF 3
ENDMDL