MODEL 4
REMARK VINA RESULT: -7.033219028      2.172      3.618
REMARK  3 active torsions:
REMARK  status: ('A' for Active; 'I' for Inactive)
REMARK    1  A    between atoms: O1_2  and  C2_3
REMARK    2  A    between atoms: C4_5  and  N1_6
REMARK       I    between atoms: N1_6  and  C5_8
REMARK    3  A    between atoms: C5_8  and  C6_10
ROOT
HETATM    1  C2  UNL     1     -17.761  -9.584 -57.992  1.00  0.00     0.128 C
HETATM    2  C3  UNL     1     -17.082  -8.589 -58.859  1.00  0.00     0.063 C
HETATM    3  C4  UNL     1     -17.125  -9.100 -60.338  1.00  0.00     0.039 C
HETATM    4  C12 UNL     1     -18.585  -9.348 -60.618  1.00  0.00     0.036 C
HETATM    5  C13 UNL     1     -19.105 -10.559 -59.879  1.00  0.00    -0.005 C
HETATM    6  C14 UNL     1     -18.433 -11.810 -60.469  1.00  0.00     0.010 C
HETATM    7  C15 UNL     1     -17.240 -11.425 -59.625  1.00  0.00    -0.001 C
HETATM    8  C16 UNL     1     -18.242 -10.797 -58.685  1.00  0.00     0.023 C
HETATM    9  C17 UNL     1     -16.375 -10.355 -60.301  1.00  0.00     0.014 C
HETATM   10  C18 UNL     1     -15.816 -10.948 -61.531  1.00  0.00     0.013 C
ENDROOT
BRANCH   3  11
HETATM   11  N1  UNL     1     -16.688  -8.020 -61.144  1.00  0.00    -0.351 N
HETATM   12  C5  UNL     1     -16.784  -7.788 -62.512  1.00  0.00     0.222 C
HETATM   13  O2  UNL     1     -17.341  -8.600 -63.269  1.00  0.00    -0.273 OA
ATOM     14  H1  UNL     1     -16.216  -7.278 -60.628  1.00  0.00     0.163 HD
BRANCH  12  15
HETATM   15  C6  UNL     1     -16.225  -6.561 -63.124  1.00  0.00     0.078 C
HETATM   16  C7  UNL     1     -16.866  -6.251 -64.457  1.00  0.00     0.014 C
HETATM   17  C8  UNL     1     -18.217  -5.634 -64.332  1.00  0.00     0.001 C
HETATM   18  C9  UNL     1     -18.033  -4.295 -63.607  1.00  0.00     0.000 C
HETATM   19  C10 UNL     1     -17.544  -4.617 -62.228  1.00  0.00     0.001 C
HETATM   20  C11 UNL     1     -16.253  -5.372 -62.195  1.00  0.00     0.014 C
ENDBRANCH  12  15
ENDBRANCH   3  11
BRANCH   1  21
HETATM   21  O1  UNL     1     -17.003  -9.981 -56.897  1.00  0.00    -0.390 OA
HETATM   22  C1  UNL     1     -17.787 -10.442 -55.864  1.00  0.00     0.202 C
ENDBRANCH   1  21
TORSDOF 3
ENDMDL