MODEL 2
REMARK VINA RESULT: -7.286132201      1.833      5.298
REMARK  3 active torsions:
REMARK  status: ('A' for Active; 'I' for Inactive)
REMARK    1  A    between atoms: C1_2  and  C2_3
REMARK       I    between atoms: C1_2  and  N1_9
REMARK    2  A    between atoms: N1_9  and  C8_10
REMARK    3  A    between atoms: N1_9  and  C14_16
ROOT
HETATM    1  O1  UNL     1     -16.713  -7.225 -59.814  1.00  0.00    -0.273 OA
HETATM    2  C1  UNL     1     -16.939  -8.362 -60.367  1.00  0.00     0.224 C
HETATM    3  N1  UNL     1     -17.206  -8.364 -61.760  1.00  0.00    -0.342 N
ENDROOT
BRANCH   3   4
HETATM    4  C8  UNL     1     -17.252  -7.076 -62.483  1.00  0.00     0.087 C
HETATM    5  C9  UNL     1     -18.311  -7.162 -63.523  1.00  0.00     0.025 C
HETATM    6  C10 UNL     1     -17.909  -6.481 -64.816  1.00  0.00     0.002 C
HETATM    7  C11 UNL     1     -17.346  -5.134 -64.422  1.00  0.00     0.000 C
HETATM    8  C12 UNL     1     -16.070  -5.305 -63.679  1.00  0.00     0.002 C
HETATM    9  C13 UNL     1     -15.923  -6.612 -62.945  1.00  0.00     0.025 C
ENDBRANCH   3   4
BRANCH   3  10
HETATM   10  C14 UNL     1     -17.406  -9.541 -62.575  1.00  0.00     0.090 C
HETATM   11  C15 UNL     1     -18.567 -10.406 -62.201  1.00  0.00     0.053 C
HETATM   12  C16 UNL     1     -18.852 -11.252 -63.467  1.00  0.00     0.234 C
HETATM   13  N2  UNL     1     -17.668 -11.991 -63.831  1.00  0.00    -0.075 N
HETATM   14  C17 UNL     1     -16.585 -11.849 -62.895  1.00  0.00     0.234 C
ATOM     15  H22 UNL     1     -17.890 -12.976 -63.977  1.00  0.00     0.277 HD
ATOM     16  H21 UNL     1     -17.364 -11.742 -64.773  1.00  0.00     0.277 HD
HETATM   17  C18 UNL     1     -16.162 -10.386 -62.746  1.00  0.00     0.053 C
ENDBRANCH   3  10
BRANCH   2  18
HETATM   18  C2  UNL     1     -16.891  -9.506 -59.456  1.00  0.00     0.078 C
HETATM   19  C3  UNL     1     -15.537 -10.161 -59.352  1.00  0.00     0.014 C
HETATM   20  C4  UNL     1     -14.474  -9.399 -58.659  1.00  0.00     0.001 C
HETATM   21  C5  UNL     1     -14.939  -8.729 -57.364  1.00  0.00     0.000 C
HETATM   22  C6  UNL     1     -16.259  -9.413 -57.036  1.00  0.00     0.001 C
HETATM   23  C7  UNL     1     -17.263  -9.001 -58.056  1.00  0.00     0.014 C
ENDBRANCH   2  18
TORSDOF 3
ENDMDL