MODEL 2
REMARK VINA RESULT: -6.914782275      0.883      2.550
REMARK  1 active torsions:
REMARK  status: ('A' for Active; 'I' for Inactive)
REMARK    1  A    between atoms: N1_7  and  C7_8
ROOT
HETATM    1  C7  UNL     1      -9.171  10.563  10.301  1.00  0.00     0.092 C
HETATM    2  C8  UNL     1     -10.080   9.572  11.023  1.00  0.00     0.009 C
HETATM    3  C9  UNL     1     -11.511   9.980  10.681  1.00  0.00     0.011 C
HETATM    4  C10 UNL     1     -11.730  10.022   9.192  1.00  0.00    -0.013 C
HETATM    5  C11 UNL     1     -11.581   8.582   8.692  1.00  0.00     0.009 C
HETATM    6  C12 UNL     1     -10.195   8.105   9.019  1.00  0.00    -0.013 C
HETATM    7  C13 UNL     1      -9.922   8.171  10.495  1.00  0.00     0.011 C
HETATM    8  C14 UNL     1      -9.179   8.985   8.333  1.00  0.00     0.011 C
HETATM    9  C15 UNL     1      -9.312  10.394   8.819  1.00  0.00     0.009 C
HETATM   10  C16 UNL     1     -10.732  10.851   8.456  1.00  0.00     0.011 C
ENDROOT
BRANCH   1  11
HETATM   11  N1  UNL     1      -7.900  10.723  10.799  1.00  0.00    -0.383 N
HETATM   12  C3  UNL     1      -7.574  10.349  12.110  1.00  0.00     0.084 C
HETATM   13  C2  UNL     1      -6.591   9.201  12.044  1.00  0.00     0.026 C
HETATM   14  C4  UNL     1      -6.604  11.499  12.460  1.00  0.00     0.035 C
HETATM   15  C1  UNL     1      -5.372   9.854  11.372  1.00  0.00     0.012 C
HETATM   16  C5  UNL     1      -5.748  11.302  11.195  1.00  0.00     0.026 C
HETATM   17  C6  UNL     1      -6.849  11.329  10.136  1.00  0.00     0.064 C
ENDBRANCH   1  11
TORSDOF 1
ENDMDL