MODEL 5
REMARK VINA RESULT: -6.259814276      1.154      2.505
REMARK  1 active torsions:
REMARK  status: ('A' for Active; 'I' for Inactive)
REMARK    1  A    between atoms: C6_7  and  C7_8
ROOT
HETATM    1  C7  UNL     1      -8.038   9.070  11.113  1.00  0.00     0.028 C
HETATM    2  C8  UNL     1      -6.652   9.182  10.562  1.00  0.00    -0.007 C
HETATM    3  C9  UNL     1      -5.689   9.147  11.740  1.00  0.00     0.010 C
HETATM    4  C10 UNL     1      -6.012  10.191  12.773  1.00  0.00    -0.013 C
HETATM    5  C11 UNL     1      -6.073  11.586  12.149  1.00  0.00     0.010 C
HETATM    6  C12 UNL     1      -7.244  11.361  11.182  1.00  0.00    -0.009 C
HETATM    7  C13 UNL     1      -6.633  10.586  10.008  1.00  0.00     0.010 C
HETATM    8  C14 UNL     1      -8.151  10.386  11.890  1.00  0.00    -0.004 C
HETATM    9  C15 UNL     1      -7.471  10.086  13.234  1.00  0.00     0.010 C
ENDROOT
BRANCH   1  10
HETATM   10  C6  UNL     1      -9.114   9.032  10.087  1.00  0.00     0.233 C
HETATM   11  C3  UNL     1     -10.423   9.529  10.673  1.00  0.00     0.048 C
HETATM   12  C2  UNL     1     -11.227  10.088   9.528  1.00  0.00     0.010 C
HETATM   13  C4  UNL     1     -10.777   8.073  10.862  1.00  0.00     0.279 C
HETATM   14  C1  UNL     1     -10.955   9.276   8.300  1.00  0.00     0.031 C
HETATM   15  C5  UNL     1     -10.458   7.898   8.563  1.00  0.00     0.273 C
HETATM   16  N1  UNL     1      -9.755   7.777   9.842  1.00  0.00     0.094 N
ENDBRANCH   1  10
TORSDOF 1
ENDMDL