MODEL 5
REMARK VINA RESULT: -6.212899277      1.935      5.179
REMARK  1 active torsions:
REMARK  status: ('A' for Active; 'I' for Inactive)
REMARK    1  A    between atoms: C4_4  and  C5_5
ROOT
HETATM    1  C1  UNL     1      -5.835   9.005  11.715  1.00  0.00     0.017 C
HETATM    2  C2  UNL     1      -6.946   9.471  11.718  1.00  0.00    -0.090 C
HETATM    3  C3  UNL     1      -8.307  10.019  11.713  1.00  0.00     0.060 C
HETATM    4  C4  UNL     1      -9.293   9.351  11.202  1.00  0.00    -0.013 C
ENDROOT
BRANCH   4   5
HETATM    5  C5  UNL     1     -10.694   9.660  11.073  1.00  0.00     0.015 C
HETATM    6  C6  UNL     1     -11.563   8.956  12.116  1.00  0.00     0.014 C
HETATM    7  C7  UNL     1     -12.074   7.630  11.715  1.00  0.00    -0.008 C
HETATM    8  C8  UNL     1     -13.401   7.396  12.446  1.00  0.00     0.005 C
HETATM    9  C11 UNL     1     -12.431   7.416  10.297  1.00  0.00     0.023 C
HETATM   10  C9  UNL     1     -14.472   7.298  11.416  1.00  0.00     0.001 C
HETATM   11  C10 UNL     1     -13.861   7.743  10.083  1.00  0.00     0.007 C
HETATM   12  C12 UNL     1     -11.476   8.105   9.359  1.00  0.00     0.231 C
HETATM   13  C13 UNL     1     -11.388   9.531   9.786  1.00  0.00     0.029 C
HETATM   14  N1  UNL     1     -11.962   8.228   8.003  1.00  0.00     0.089 N
HETATM   15  C14 UNL     1     -10.900  10.259   8.610  1.00  0.00     0.037 C
HETATM   16  C15 UNL     1     -11.159   9.333   7.441  1.00  0.00     0.273 C
HETATM   17  C16 UNL     1     -11.565   7.021   7.260  1.00  0.00     0.310 C
ENDBRANCH   4   5
TORSDOF 1
ENDMDL