MODEL 5
REMARK VINA RESULT: -6.174384196      1.427      2.802
REMARK  3 active torsions:
REMARK  status: ('A' for Active; 'I' for Inactive)
REMARK    1  A    between atoms: C7_8  and  C8_9
REMARK    2  A    between atoms: C10_11  and  C16_17
REMARK    3  A    between atoms: C13_14  and  C14_15
ROOT
HETATM    1  C8  UNL     1      -9.341   8.837  10.487  1.00  0.00    -0.003 C
HETATM    2  C9  UNL     1     -10.204   9.303  11.660  1.00  0.00     0.010 C
HETATM    3  C10 UNL     1     -11.668   9.107  11.348  1.00  0.00    -0.010 C
HETATM    4  C11 UNL     1     -11.891   7.665  10.891  1.00  0.00     0.005 C
HETATM    5  C12 UNL     1     -11.108   7.402   9.639  1.00  0.00     0.006 C
HETATM    6  C13 UNL     1     -10.232   8.623   9.321  1.00  0.00    -0.005 C
ENDROOT
BRANCH   1   7
HETATM    7  C7  UNL     1      -8.260   9.838  10.296  1.00  0.00     0.019 C
HETATM    8  C3  UNL     1      -7.337   9.753  11.515  1.00  0.00     0.126 C
HETATM    9  C2  UNL     1      -7.023  11.110  12.070  1.00  0.00     0.035 C
HETATM   10  O1  UNL     1      -6.088   9.264  11.159  1.00  0.00    -0.380 OA
HETATM   11  C1  UNL     1      -5.899  11.585  11.186  1.00  0.00     0.034 C
HETATM   12  C4  UNL     1      -5.531  10.315  10.436  1.00  0.00     0.122 C
HETATM   13  C5  UNL     1      -6.140  10.338   9.066  1.00  0.00     0.032 C
HETATM   14  C6  UNL     1      -7.513   9.720   9.013  1.00  0.00     0.010 C
ENDBRANCH   1   7
BRANCH   6  15
HETATM   15  C14 UNL     1     -11.186   9.765   9.055  1.00  0.00    -0.005 A
HETATM   16  C15 UNL     1     -10.796  10.929   8.245  1.00  0.00     0.011 A
HETATM   17  C16 UNL     1     -11.576   9.833   7.623  1.00  0.00    -0.006 A
ENDBRANCH   6  15
TORSDOF 3
ENDMDL