MODEL 3
REMARK VINA RESULT: -6.065192884      1.872      4.938
REMARK  1 active torsions:
REMARK  status: ('A' for Active; 'I' for Inactive)
REMARK    1  A    between atoms: C4_4  and  N1_5
ROOT
HETATM    1  N1  UNL     1      -8.970   9.318   9.495  1.00  0.00    -0.400 N
HETATM    2  C5  UNL     1      -8.885   9.866   8.212  1.00  0.00     0.080 C
HETATM    3  C6  UNL     1     -10.081  10.784   7.908  1.00  0.00     0.029 C
HETATM    4  C7  UNL     1     -11.341  10.009   8.196  1.00  0.00    -0.010 C
HETATM    5  C8  UNL     1     -11.472   8.837   7.284  1.00  0.00     0.009 C
HETATM    6  C9  UNL     1     -10.267   7.933   7.519  1.00  0.00    -0.010 C
HETATM    7  C10 UNL     1      -9.027   8.729   7.202  1.00  0.00     0.029 C
HETATM    8  C11 UNL     1     -10.335   7.459   8.934  1.00  0.00     0.029 C
HETATM    9  C12 UNL     1     -10.172   8.671   9.861  1.00  0.00     0.080 C
HETATM   10  C13 UNL     1     -11.338   9.612   9.646  1.00  0.00     0.029 C
ENDROOT
BRANCH   1  11
HETATM   11  C4  UNL     1      -7.976   9.487  10.445  1.00  0.00     0.080 C
HETATM   12  C3  UNL     1      -6.947  10.475   9.983  1.00  0.00     0.025 C
HETATM   13  C2  UNL     1      -6.349  11.308  11.077  1.00  0.00     0.002 C
HETATM   14  C1  UNL     1      -6.135  10.593  12.372  1.00  0.00     0.000 C
HETATM   15  C15 UNL     1      -7.192   9.592  12.724  1.00  0.00     0.002 C
HETATM   16  C14 UNL     1      -8.398   9.870  11.838  1.00  0.00     0.025 C
ENDBRANCH   1  11
TORSDOF 1
ENDMDL