MODEL 4
REMARK VINA RESULT: -6.512361188      0.984      1.451
REMARK  1 active torsions:
REMARK  status: ('A' for Active; 'I' for Inactive)
REMARK    1  A    between atoms: C4_5  and  C5_6
ROOT
HETATM    1  C5  UNL     1      -8.028  10.036  10.994  1.00  0.00    -0.033 C
HETATM    2  C6  UNL     1      -8.197   9.704  12.481  1.00  0.00     0.010 C
HETATM    3  C7  UNL     1      -6.884   9.466  13.163  1.00  0.00     0.005 C
HETATM    4  C8  UNL     1      -5.895  10.502  12.669  1.00  0.00    -0.014 C
HETATM    5  C9  UNL     1      -5.028   9.842  11.647  1.00  0.00     0.009 C
HETATM    6  C10 UNL     1      -5.731   9.675  10.314  1.00  0.00    -0.013 C
HETATM    7  C11 UNL     1      -6.138  11.071   9.878  1.00  0.00     0.010 C
HETATM    8  C12 UNL     1      -7.315  11.321  10.798  1.00  0.00    -0.005 C
HETATM    9  C13 UNL     1      -6.669  11.682  12.148  1.00  0.00     0.010 C
HETATM   10  C14 UNL     1      -7.072   8.996  10.450  1.00  0.00     0.015 C
ENDROOT
BRANCH   1  11
HETATM   11  C4  UNL     1      -9.353   9.900  10.337  1.00  0.00    -0.002 C
HETATM   12  C3  UNL     1     -10.474   9.577  11.287  1.00  0.00     0.036 C
HETATM   13  C2  UNL     1     -11.677   9.074  10.493  1.00  0.00     0.272 C
HETATM   14  N1  UNL     1     -11.907   9.830   9.299  1.00  0.00     0.084 N
HETATM   15  C1  UNL     1     -13.318  10.005   9.102  1.00  0.00     0.309 C
HETATM   16  C16 UNL     1     -11.271  11.107   9.271  1.00  0.00     0.272 C
HETATM   17  C15 UNL     1      -9.776  11.039   9.481  1.00  0.00     0.036 C
ENDBRANCH   1  11
TORSDOF 1
ENDMDL