MODEL 4
REMARK VINA RESULT: -5.738328604      5.309      7.070
REMARK  1 active torsions:
REMARK  status: ('A' for Active; 'I' for Inactive)
REMARK    1  A    between atoms: C3_3  and  N1_4
ROOT
HETATM    1  N1  UNL     1     -14.749   7.796  11.761  1.00  0.00     0.098 N
HETATM    2  C4  UNL     1     -14.925   9.046  11.132  1.00  0.00     0.278 C
HETATM    3  C5  UNL     1     -13.671   9.561  10.415  1.00  0.00     0.019 C
HETATM    4  C6  UNL     1     -12.684  10.170  11.335  1.00  0.00     0.011 C
HETATM    5  C7  UNL     1     -11.832   9.244  12.107  1.00  0.00    -0.012 C
HETATM    6  C8  UNL     1     -10.757   8.564  11.304  1.00  0.00     0.010 C
HETATM    7  C9  UNL     1     -11.362   7.665  10.289  1.00  0.00    -0.007 C
HETATM    8  C10 UNL     1     -11.767   8.547   9.100  1.00  0.00     0.010 C
HETATM    9  C11 UNL     1     -13.172   8.437   9.570  1.00  0.00    -0.002 C
HETATM   10  C12 UNL     1     -12.770   7.298  10.467  1.00  0.00     0.027 C
HETATM   11  C13 UNL     1     -13.343   7.363  11.825  1.00  0.00     0.228 C
HETATM   12  C14 UNL     1     -12.582   8.155  12.825  1.00  0.00     0.041 C
ENDROOT
BRANCH   1  13
HETATM   13  C3  UNL     1     -15.508   6.708  11.242  1.00  0.00     0.223 C
HETATM   14  C2  UNL     1     -16.902   6.929  10.791  1.00  0.00     0.036 C
HETATM   15  C1  UNL     1     -17.191   5.492  11.268  1.00  0.00     0.004 C
HETATM   16  C15 UNL     1     -16.094   5.778  12.309  1.00  0.00     0.036 C
ENDBRANCH   1  13
TORSDOF 1
ENDMDL