MODEL 2
REMARK VINA RESULT: -6.344264577      0.147      1.818
REMARK  1 active torsions:
REMARK  status: ('A' for Active; 'I' for Inactive)
REMARK    1  A    between atoms: C5_6  and  C6_7
ROOT
HETATM    1  C6  UNL     1      -8.271  10.082  10.847  1.00  0.00    -0.008 C
HETATM    2  C7  UNL     1      -7.820  11.464  10.467  1.00  0.00     0.016 C
HETATM    3  C8  UNL     1      -6.442  11.701  11.056  1.00  0.00    -0.013 C
HETATM    4  C9  UNL     1      -5.437  10.716  10.525  1.00  0.00     0.009 C
HETATM    5  C10 UNL     1      -5.873   9.327  10.868  1.00  0.00    -0.013 C
HETATM    6  C11 UNL     1      -5.946   9.146  12.366  1.00  0.00     0.009 C
HETATM    7  C12 UNL     1      -6.883  10.183  12.914  1.00  0.00    -0.013 C
HETATM    8  C13 UNL     1      -6.500  11.581  12.563  1.00  0.00     0.009 C
HETATM    9  C14 UNL     1      -8.260   9.902  12.328  1.00  0.00     0.016 C
HETATM   10  C15 UNL     1      -7.245   9.101  10.271  1.00  0.00     0.016 C
ENDROOT
BRANCH   1  11
HETATM   11  C5  UNL     1      -9.598   9.718  10.261  1.00  0.00     0.231 C
HETATM   12  N1  UNL     1     -10.134  10.669   9.340  1.00  0.00     0.089 N
HETATM   13  C1  UNL     1      -9.690  10.353   7.992  1.00  0.00     0.310 C
HETATM   14  C2  UNL     1     -11.577  10.533   9.346  1.00  0.00     0.272 C
HETATM   15  C3  UNL     1     -11.903   9.429  10.347  1.00  0.00     0.032 C
HETATM   16  C4  UNL     1     -10.697   9.579  11.290  1.00  0.00     0.038 C
ENDBRANCH   1  11
TORSDOF 1
ENDMDL