MODEL 4
REMARK VINA RESULT: -5.726160608      1.493      3.384
REMARK  2 active torsions:
REMARK  status: ('A' for Active; 'I' for Inactive)
REMARK    1  A    between atoms: C3_9  and  C4_10
REMARK    2  A    between atoms: N4_11  and  N5_13
ROOT
HETATM    1  C1  UNL     1      17.930 -19.677  20.904  1.00  0.00     0.179 C
HETATM    2  N1  UNL     1      19.084 -19.781  21.772  1.00  0.00    -0.276 N
HETATM    3  N2  UNL     1      19.983 -20.742  21.717  1.00  0.00    -0.237 N
ATOM      4  H2  UNL     1      19.970 -21.522  21.060  1.00  0.00     0.208 HD
HETATM    5  N3  UNL     1      20.900 -20.545  22.640  1.00  0.00    -0.250 N
ATOM      6  H3  UNL     1      21.712 -21.134  22.822  1.00  0.00     0.192 HD
HETATM    7  C2  UNL     1      20.558 -19.398  23.310  1.00  0.00     0.290 A
HETATM    8  O1  UNL     1      21.224 -18.933  24.246  1.00  0.00    -0.264 OA
HETATM    9  C3  UNL     1      19.404 -18.896  22.772  1.00  0.00     0.138 A
ENDROOT
BRANCH   9  10
HETATM   10  C4  UNL     1      18.614 -17.707  23.108  1.00  0.00     0.143 C
HETATM   11  N4  UNL     1      18.541 -17.104  24.176  1.00  0.00    -0.316 N
ATOM     12  H4  UNL     1      17.904 -16.311  24.099  1.00  0.00     0.185 HD
BRANCH  11  13
HETATM   13  N5  UNL     1      19.052 -17.184  25.414  1.00  0.00    -0.345 N
ATOM     14  H52 UNL     1      19.799 -16.496  25.512  1.00  0.00     0.176 HD
ATOM     15  H51 UNL     1      18.911 -17.725  26.267  1.00  0.00     0.176 HD
ENDBRANCH  11  13
ENDBRANCH   9  10
TORSDOF 2
ENDMDL