MODEL 1
REMARK VINA RESULT: -6.902221236      0.000      0.000
REMARK  2 active torsions:
REMARK  status: ('A' for Active; 'I' for Inactive)
REMARK    1  A    between atoms: N1_1  and  N2_4
REMARK    2  A    between atoms: N2_4  and  C1_6
ROOT
HETATM    1  C1  UNL     1      20.358 -19.851  23.038  1.00  0.00     0.204 A
HETATM    2  N3  UNL     1      21.336 -20.544  23.643  1.00  0.00    -0.276 N
ATOM      3  H3  UNL     1      21.539 -21.494  23.332  1.00  0.00     0.189 HD
HETATM    4  N4  UNL     1      22.042 -20.023  24.633  1.00  0.00    -0.250 N
ATOM      5  H4  UNL     1      22.776 -20.584  25.066  1.00  0.00     0.192 HD
HETATM    6  C2  UNL     1      21.818 -18.758  25.092  1.00  0.00     0.341 A
HETATM    7  O1  UNL     1      22.509 -18.293  26.036  1.00  0.00    -0.245 OA
HETATM    8  N5  UNL     1      20.853 -18.026  24.523  1.00  0.00    -0.271 N
ATOM      9  H5  UNL     1      20.662 -17.077  24.845  1.00  0.00     0.174 HD
HETATM   10  C3  UNL     1      20.140 -18.564  23.517  1.00  0.00     0.296 A
HETATM   11  O2  UNL     1      19.235 -17.898  22.971  1.00  0.00    -0.264 OA
ENDROOT
BRANCH   1  12
HETATM   12  N2  UNL     1      19.663 -20.345  22.071  1.00  0.00    -0.286 N
ATOM     13  H2  UNL     1      18.680 -20.097  21.955  1.00  0.00     0.188 HD
BRANCH  12  14
HETATM   14  N1  UNL     1      20.285 -21.227  21.185  1.00  0.00    -0.343 N
ATOM     15  H12 UNL     1      20.261 -21.039  20.183  1.00  0.00     0.176 HD
ATOM     16  H11 UNL     1      20.755 -22.049  21.566  1.00  0.00     0.176 HD
ENDBRANCH  12  14
ENDBRANCH   1  12
TORSDOF 2
ENDMDL