MODEL 4
REMARK VINA RESULT: -5.810798356      2.742      4.848
REMARK  2 active torsions:
REMARK  status: ('A' for Active; 'I' for Inactive)
REMARK    1  A    between atoms: O1_2  and  C2_3
REMARK    2  A    between atoms: C3_8  and  N3_9
REMARK       I    between atoms: N4_12  and  C4_13
ROOT
HETATM    1  C2  UNL     1      19.127 -18.946  22.969  1.00  0.00     0.264 A
HETATM    2  N1  UNL     1      19.871 -19.836  23.641  1.00  0.00    -0.250 N
ATOM      3  H1  UNL     1      19.919 -19.898  24.658  1.00  0.00     0.191 HD
HETATM    4  N2  UNL     1      20.532 -20.623  22.815  1.00  0.00    -0.129 N
ATOM      5  H2  UNL     1      21.165 -21.380  23.072  1.00  0.00     0.205 HD
HETATM    6  C3  UNL     1      20.211 -20.236  21.571  1.00  0.00     0.704 A
HETATM    7  N4  UNL     1      19.351 -19.211  21.672  1.00  0.00    -0.058 N
HETATM    8  C4  UNL     1      18.768 -18.514  20.575  1.00  0.00     0.356 C
HETATM    9  N5  UNL     1      17.866 -17.441  20.731  1.00  0.00    -0.039 NA
HETATM   10  O2  UNL     1      19.073 -18.872  19.385  1.00  0.00    -0.249 OA
ENDROOT
BRANCH   6  11
HETATM   11  N3  UNL     1      20.675 -20.787  20.500  1.00  0.00    -0.233 N
ATOM     12  H32 UNL     1      20.989 -20.334  19.642  1.00  0.00     0.174 HD
ATOM     13  H31 UNL     1      20.786 -21.793  20.378  1.00  0.00     0.174 HD
ENDBRANCH   6  11
BRANCH   1  14
HETATM   14  O1  UNL     1      18.290 -17.948  23.510  1.00  0.00    -0.325 OA
HETATM   15  C1  UNL     1      18.542 -17.327  24.740  1.00  0.00     0.213 C
ENDBRANCH   1  14
TORSDOF 2
ENDMDL