MODEL 2
REMARK VINA RESULT: -5.918648455      1.575      2.042
REMARK  2 active torsions:
REMARK  status: ('A' for Active; 'I' for Inactive)
REMARK    1  A    between atoms: C1_2  and  C2_4
REMARK       I    between atoms: C2_4  and  N2_6
REMARK    2  A    between atoms: N2_6  and  C3_8
ROOT
HETATM    1  C3  UNL     1      20.672 -20.170  22.374  1.00  0.00     0.716 A
HETATM    2  N3  UNL     1      20.358 -20.999  21.385  1.00  0.00    -0.116 N
ATOM      3  H3  UNL     1      20.072 -21.977  21.337  1.00  0.00     0.207 HD
HETATM    4  N4  UNL     1      20.560 -20.064  20.497  1.00  0.00    -0.214 N
ATOM      5  H4  UNL     1      20.500 -20.006  19.481  1.00  0.00     0.209 HD
HETATM    6  N5  UNL     1      20.875 -19.227  21.459  1.00  0.00    -0.116 N
ATOM      7  H5  UNL     1      21.160 -18.249  21.491  1.00  0.00     0.207 HD
ENDROOT
BRANCH   1   8
HETATM    8  N2  UNL     1      20.769 -20.171  23.659  1.00  0.00    -0.149 N
HETATM    9  C2  UNL     1      21.356 -19.141  24.415  1.00  0.00     0.325 C
HETATM   10  O2  UNL     1      22.607 -19.056  24.449  1.00  0.00    -0.262 OA
ATOM     11  H2  UNL     1      20.393 -20.974  24.163  1.00  0.00     0.188 HD
BRANCH   9  12
HETATM   12  C1  UNL     1      20.574 -18.174  25.155  1.00  0.00     0.323 C
HETATM   13  N1  UNL     1      19.271 -17.785  24.851  1.00  0.00    -0.053 NA
HETATM   14  O1  UNL     1      21.121 -17.638  26.164  1.00  0.00    -0.266 OA
ENDBRANCH   9  12
ENDBRANCH   1   8
TORSDOF 2
ENDMDL