MODEL 5
REMARK VINA RESULT: -5.708690624      1.299      3.977
REMARK  2 active torsions:
REMARK  status: ('A' for Active; 'I' for Inactive)
REMARK    1  A    between atoms: C1_2  and  N1_3
REMARK    2  A    between atoms: N1_3  and  C2_5
ROOT
HETATM    1  C2  UNL     1      20.462 -18.577  23.554  1.00  0.00     0.703 A
HETATM    2  N2  UNL     1      19.947 -17.479  24.129  1.00  0.00    -0.128 N
ATOM      3  H2  UNL     1      20.352 -16.982  24.923  1.00  0.00     0.205 HD
HETATM    4  N3  UNL     1      18.837 -17.146  23.506  1.00  0.00    -0.237 N
ATOM      5  H3  UNL     1      18.247 -16.349  23.743  1.00  0.00     0.192 HD
HETATM    6  C3  UNL     1      18.602 -18.012  22.515  1.00  0.00     0.353 A
HETATM    7  O2  UNL     1      17.636 -17.987  21.729  1.00  0.00    -0.245 OA
HETATM    8  N4  UNL     1      19.608 -18.893  22.549  1.00  0.00    -0.139 N
ATOM      9  H4  UNL     1      19.716 -19.684  21.915  1.00  0.00     0.189 HD
ENDROOT
BRANCH   1  10
HETATM   10  N1  UNL     1      21.564 -19.200  23.905  1.00  0.00    -0.166 N
ATOM     11  H1  UNL     1      22.090 -19.778  23.250  1.00  0.00     0.186 HD
BRANCH  10  12
HETATM   12  C1  UNL     1      21.974 -19.021  25.236  1.00  0.00     0.368 C
HETATM   13  O1  UNL     1      22.616 -18.006  25.551  1.00  0.00    -0.283 OA
ENDBRANCH  10  12
ENDBRANCH   1  10
TORSDOF 2
ENDMDL