MODEL 3
REMARK VINA RESULT: -6.664747167      1.203      1.203
REMARK  2 active torsions:
REMARK  status: ('A' for Active; 'I' for Inactive)
REMARK    1  A    between atoms: C1_2  and  C2_4
REMARK    2  A    between atoms: N4_11  and  N5_12
ROOT
HETATM    1  C2  UNL     1      20.429 -19.363  23.327  1.00  0.00     0.211 A
HETATM    2  N2  UNL     1      21.143 -20.469  23.533  1.00  0.00    -0.276 N
ATOM      3  H2  UNL     1      21.011 -21.348  23.033  1.00  0.00     0.189 HD
HETATM    4  N3  UNL     1      22.047 -20.264  24.476  1.00  0.00    -0.248 N
ATOM      5  H3  UNL     1      22.717 -20.951  24.819  1.00  0.00     0.192 HD
HETATM    6  C3  UNL     1      21.932 -19.011  24.900  1.00  0.00     0.361 A
HETATM    7  O2  UNL     1      22.586 -18.389  25.783  1.00  0.00    -0.243 OA
HETATM    8  N4  UNL     1      20.923 -18.448  24.183  1.00  0.00    -0.188 N
ENDROOT
BRANCH   1   9
HETATM    9  C1  UNL     1      19.337 -19.148  22.385  1.00  0.00     0.302 C
HETATM   10  N1  UNL     1      18.297 -18.238  22.728  1.00  0.00    -0.054 NA
HETATM   11  O1  UNL     1      19.321 -19.760  21.286  1.00  0.00    -0.268 OA
ENDBRANCH   1   9
BRANCH   8  12
HETATM   12  N5  UNL     1      20.445 -17.148  24.282  1.00  0.00    -0.333 N
ATOM     13  H52 UNL     1      20.991 -16.287  24.261  1.00  0.00     0.177 HD
ATOM     14  H51 UNL     1      19.458 -16.913  24.391  1.00  0.00     0.177 HD
ENDBRANCH   8  12
TORSDOF 2
ENDMDL