MODEL 5
REMARK VINA RESULT: -6.087244943      1.955      2.991
REMARK  0 active torsions:
REMARK  status: ('A' for Active; 'I' for Inactive)
ROOT
HETATM    1  N1  UNL     1      20.078 -20.745  20.402  1.00  0.00    -0.114 NA
HETATM    2  C1  UNL     1      19.335 -19.552  20.579  1.00  0.00     0.122 C
HETATM    3  C2  UNL     1      19.235 -19.042  21.801  1.00  0.00     0.113 A
HETATM    4  C3  UNL     1      19.867 -19.680  22.951  1.00  0.00     0.266 A
HETATM    5  O1  UNL     1      20.514 -20.738  22.736  1.00  0.00    -0.267 OA
HETATM    6  N2  UNL     1      19.732 -19.100  24.235  1.00  0.00    -0.275 N
ATOM      7  H2  UNL     1      20.183 -19.567  25.022  1.00  0.00     0.173 HD
HETATM    8  C4  UNL     1      19.005 -17.906  24.494  1.00  0.00     0.329 A
HETATM    9  O2  UNL     1      18.911 -17.422  25.664  1.00  0.00    -0.246 OA
HETATM   10  N3  UNL     1      18.386 -17.278  23.379  1.00  0.00    -0.275 N
ATOM     11  H3  UNL     1      17.854 -16.419  23.525  1.00  0.00     0.173 HD
HETATM   12  C5  UNL     1      18.487 -17.814  22.066  1.00  0.00     0.266 A
HETATM   13  O3  UNL     1      17.927 -17.234  21.103  1.00  0.00    -0.267 OA
ENDROOT
TORSDOF 0
ENDMDL