MODEL 4
REMARK VINA RESULT: -5.741584933      2.200      4.570
REMARK  2 active torsions:
REMARK  status: ('A' for Active; 'I' for Inactive)
REMARK    1  A    between atoms: C1_2  and  C2_4
REMARK       I    between atoms: C2_4  and  N2_6
REMARK    2  A    between atoms: N2_6  and  N3_8
ROOT
HETATM    1  C2  UNL     1      19.712 -19.776  22.124  1.00  0.00     0.325 C
HETATM    2  O2  UNL     1      18.907 -18.817  22.055  1.00  0.00    -0.261 OA
HETATM    3  N2  UNL     1      20.547 -19.957  23.248  1.00  0.00    -0.260 N
ATOM      4  H2  UNL     1      21.188 -20.750  23.268  1.00  0.00     0.190 HD
ENDROOT
BRANCH   3   5
HETATM    5  N3  UNL     1      20.520 -19.072  24.344  1.00  0.00    -0.273 N
HETATM    6  C3  UNL     1      21.579 -19.036  25.079  1.00  0.00     0.215 C
HETATM    7  N4  UNL     1      22.734 -19.832  24.829  1.00  0.00    -0.065 NA
HETATM    8  N5  UNL     1      21.663 -18.173  26.219  1.00  0.00    -0.065 NA
ATOM      9  H3  UNL     1      19.707 -18.490  24.546  1.00  0.00     0.189 HD
ENDBRANCH   3   5
BRANCH   1  10
HETATM   10  C1  UNL     1      19.782 -20.714  21.031  1.00  0.00     0.324 C
HETATM   11  N1  UNL     1      18.929 -21.842  21.006  1.00  0.00    -0.053 NA
HETATM   12  O1  UNL     1      20.606 -20.521  20.101  1.00  0.00    -0.266 OA
ENDBRANCH   1  10
TORSDOF 2
ENDMDL