MODEL 3
REMARK VINA RESULT: -6.071178605      2.002      4.497
REMARK  4 active torsions:
REMARK  status: ('A' for Active; 'I' for Inactive)
REMARK    1  A    between atoms: N1_1  and  N2_4
REMARK       I    between atoms: N2_4  and  C1_5
REMARK    2  A    between atoms: C1_5  and  C2_7
REMARK    3  A    between atoms: C2_7  and  N3_8
REMARK    4  A    between atoms: C2_7  and  C3_12
REMARK       I    between atoms: C3_12  and  N4_14
ROOT
HETATM    1  C2  UNL     1     -18.823 -18.608 -23.027  1.00  0.00     0.382 C
ENDROOT
BRANCH   1   2
HETATM    2  C1  UNL     1     -18.072 -18.259 -21.727  1.00  0.00     0.351 C
HETATM    3  N2  UNL     1     -17.722 -19.242 -20.844  1.00  0.00    -0.291 NA
HETATM    4  O1  UNL     1     -17.865 -17.023 -21.628  1.00  0.00    -0.252 OA
BRANCH   3   5
HETATM    5  N1  UNL     1     -17.388 -20.180 -20.003  1.00  0.00    -0.277 N
ATOM      6  H12 UNL     1     -17.639 -19.453 -20.672  1.00  0.00     0.191 HD
ATOM      7  H11 UNL     1     -17.128 -20.914 -19.344  1.00  0.00     0.191 HD
ENDBRANCH   3   5
ENDBRANCH   1   2
BRANCH   1   8
HETATM    8  N3  UNL     1     -18.923 -17.378 -23.768  1.00  0.00    -0.056 N
ATOM      9  H33 UNL     1     -19.511 -16.677 -23.317  1.00  0.00     0.275 HD
ATOM     10  H32 UNL     1     -18.061 -16.833 -23.771  1.00  0.00     0.275 HD
ATOM     11  H31 UNL     1     -19.243 -17.638 -24.701  1.00  0.00     0.275 HD
ENDBRANCH   1   8
BRANCH   1  12
HETATM   12  C3  UNL     1     -20.119 -19.183 -22.714  1.00  0.00     0.265 C
HETATM   13  O2  UNL     1     -20.596 -18.899 -21.552  1.00  0.00    -0.270 OA
HETATM   14  N4  UNL     1     -20.938 -20.006 -23.498  1.00  0.00    -0.301 N
HETATM   15  C4  UNL     1     -21.800 -19.528 -24.326  1.00  0.00     0.203 C
ATOM     16  H4  UNL     1     -20.848 -21.019 -23.411  1.00  0.00     0.171 HD
HETATM   17  N5  UNL     1     -22.656 -20.305 -25.146  1.00  0.00    -0.066 NA
HETATM   18  N6  UNL     1     -21.899 -18.109 -24.434  1.00  0.00    -0.066 NA
ENDBRANCH   1  12
TORSDOF 4
ENDMDL