MODEL 5
REMARK VINA RESULT: -6.425275746      1.900      2.036
REMARK  1 active torsions:
REMARK  status: ('A' for Active; 'I' for Inactive)
REMARK       I    between atoms: C1_4  and  N3_6
REMARK    1  A    between atoms: N3_6  and  N4_8
ROOT
HETATM    1  N4  UNL     1     -20.018 -18.095 -23.656  1.00  0.00    -0.135 N
HETATM    2  N5  UNL     1     -21.132 -18.766 -23.421  1.00  0.00    -0.225 N
ATOM      3  H5  UNL     1     -21.555 -18.946 -22.509  1.00  0.00     0.194 HD
HETATM    4  C2  UNL     1     -21.603 -19.168 -24.623  1.00  0.00     0.344 A
HETATM    5  O1  UNL     1     -22.661 -19.843 -24.820  1.00  0.00    -0.245 OA
HETATM    6  N6  UNL     1     -20.770 -18.736 -25.581  1.00  0.00    -0.257 N
ATOM      7  H6  UNL     1     -20.875 -18.891 -26.583  1.00  0.00     0.175 HD
HETATM    8  C3  UNL     1     -19.777 -18.065 -24.984  1.00  0.00     0.365 A
HETATM    9  O2  UNL     1     -18.783 -17.493 -25.492  1.00  0.00    -0.243 OA
ENDROOT
BRANCH   1  10
HETATM   10  N3  UNL     1     -19.202 -17.498 -22.658  1.00  0.00    -0.248 N
HETATM   11  C1  UNL     1     -18.903 -18.218 -21.471  1.00  0.00     0.202 C
HETATM   12  N1  UNL     1     -17.848 -18.944 -21.358  1.00  0.00    -0.372 N
HETATM   13  N2  UNL     1     -19.780 -18.150 -20.356  1.00  0.00    -0.062 NA
ATOM     14  H12 UNL     1     -17.633 -19.460 -20.506  1.00  0.00     0.158 HD
ATOM     15  H11 UNL     1     -17.218 -18.992 -22.159  1.00  0.00     0.158 HD
ATOM     16  H3  UNL     1     -18.833 -16.556 -22.794  1.00  0.00     0.192 HD
ENDBRANCH   1  10
TORSDOF 1
ENDMDL