MODEL 2
REMARK VINA RESULT: -6.784287785      1.023      2.091
REMARK  3 active torsions:
REMARK  status: ('A' for Active; 'I' for Inactive)
REMARK    1  A    between atoms: N1_1  and  C1_4
REMARK    2  A    between atoms: C3_10  and  N4_11
REMARK    3  A    between atoms: N4_11  and  N5_13
ROOT
HETATM    1  C1  UNL     1     -18.620 -21.066 -21.063  1.00  0.00     0.691 A
HETATM    2  N2  UNL     1     -17.803 -20.071 -20.718  1.00  0.00    -0.187 N
ATOM      3  H2  UNL     1     -16.935 -20.279 -20.225  1.00  0.00     0.185 HD
HETATM    4  C2  UNL     1     -18.110 -18.798 -21.015  1.00  0.00     0.215 A
HETATM    5  N3  UNL     1     -19.259 -18.545 -21.666  1.00  0.00    -0.185 N
ATOM      6  H3  UNL     1     -19.492 -17.577 -21.890  1.00  0.00     0.185 HD
HETATM    7  C3  UNL     1     -20.110 -19.513 -22.031  1.00  0.00     0.712 A
HETATM    8  N8  UNL     1     -19.758 -20.785 -21.711  1.00  0.00    -0.021 N
ATOM      9  H8  UNL     1     -20.380 -21.549 -21.972  1.00  0.00     0.203 HD
ENDROOT
BRANCH   7  10
HETATM   10  N4  UNL     1     -21.199 -19.223 -22.653  1.00  0.00    -0.129 N
ATOM     11  H4  UNL     1     -22.104 -19.472 -22.254  1.00  0.00     0.205 HD
BRANCH  10  12
HETATM   12  N5  UNL     1     -21.126 -18.563 -23.884  1.00  0.00    -0.262 N
HETATM   13  C4  UNL     1     -21.788 -18.995 -24.885  1.00  0.00     0.216 C
HETATM   14  N6  UNL     1     -22.616 -20.148 -24.792  1.00  0.00    -0.065 NA
HETATM   15  N7  UNL     1     -21.685 -18.298 -26.109  1.00  0.00    -0.065 NA
ATOM     16  H5  UNL     1     -20.541 -17.732 -23.981  1.00  0.00     0.190 HD
ENDBRANCH  10  12
ENDBRANCH   7  10
BRANCH   1  17
HETATM   17  N1  UNL     1     -18.340 -22.299 -20.786  1.00  0.00    -0.234 N
ATOM     18  H12 UNL     1     -17.673 -22.801 -21.372  1.00  0.00     0.174 HD
ATOM     19  H11 UNL     1     -18.770 -22.779 -19.995  1.00  0.00     0.174 HD
ENDBRANCH   1  17
TORSDOF 3
ENDMDL