MODEL 5
REMARK VINA RESULT: -7.072745267      1.915      2.865
REMARK  2 active torsions:
REMARK  status: ('A' for Active; 'I' for Inactive)
REMARK       I    between atoms: N3_4  and  C2_6
REMARK    1  A    between atoms: N5_8  and  N6_10
REMARK    2  A    between atoms: N6_10  and  C3_12
ROOT
HETATM    1  N6  UNL     1     -18.957 -19.422 -22.627  1.00  0.00    -0.127 N
ATOM      2  H6  UNL     1     -18.409 -20.264 -22.454  1.00  0.00     0.206 HD
ENDROOT
BRANCH   1   3
HETATM    3  N5  UNL     1     -18.491 -18.178 -22.249  1.00  0.00    -0.259 N
HETATM    4  C2  UNL     1     -17.932 -17.999 -21.119  1.00  0.00     0.209 C
HETATM    5  N3  UNL     1     -17.779 -19.074 -20.230  1.00  0.00    -0.306 N
HETATM    6  N4  UNL     1     -17.465 -16.723 -20.757  1.00  0.00    -0.062 NA
HETATM    7  C1  UNL     1     -18.062 -18.883 -18.986  1.00  0.00     0.203 C
ATOM      8  H3  UNL     1     -17.452 -19.983 -20.558  1.00  0.00     0.170 HD
HETATM    9  N1  UNL     1     -18.517 -17.621 -18.522  1.00  0.00    -0.066 NA
HETATM   10  N2  UNL     1     -17.938 -19.911 -18.008  1.00  0.00    -0.066 NA
ATOM     11  H5  UNL     1     -18.597 -17.388 -22.886  1.00  0.00     0.190 HD
ENDBRANCH   1   3
BRANCH   1  12
HETATM   12  C3  UNL     1     -20.115 -19.485 -23.210  1.00  0.00     0.728 A
HETATM   13  N7  UNL     1     -20.816 -20.618 -23.372  1.00  0.00    -0.114 N
HETATM   14  N8  UNL     1     -21.921 -20.280 -23.997  1.00  0.00    -0.213 N
ATOM     15  H7  UNL     1     -20.546 -21.553 -23.070  1.00  0.00     0.207 HD
HETATM   16  N9  UNL     1     -21.944 -18.989 -24.234  1.00  0.00    -0.213 N
ATOM     17  H8  UNL     1     -22.659 -20.932 -24.263  1.00  0.00     0.210 HD
HETATM   18  N10 UNL     1     -20.826 -18.482 -23.750  1.00  0.00    -0.114 N
ATOM     19  H9  UNL     1     -22.688 -18.475 -24.706  1.00  0.00     0.210 HD
ATOM     20  H10 UNL     1     -20.549 -17.500 -23.781  1.00  0.00     0.207 HD
ENDBRANCH   1  12
TORSDOF 2
ENDMDL