MODEL 5
REMARK VINA RESULT: -6.855454432      2.770      3.534
REMARK  3 active torsions:
REMARK  status: ('A' for Active; 'I' for Inactive)
REMARK    1  A    between atoms: N3_4  and  N4_6
REMARK    2  A    between atoms: N4_6  and  C2_8
REMARK    3  A    between atoms: N6_13  and  N7_14
ROOT
HETATM    1  C2  UNL     1     -19.633 -18.258 -23.802  1.00  0.00     0.717 A
HETATM    2  N5  UNL     1     -20.498 -17.520 -24.479  1.00  0.00    -0.136 N
ATOM      3  H5  UNL     1     -20.389 -16.543 -24.749  1.00  0.00     0.189 HD
HETATM    4  C3  UNL     1     -21.555 -18.324 -24.741  1.00  0.00     0.375 A
HETATM    5  O1  UNL     1     -22.574 -17.973 -25.369  1.00  0.00    -0.243 OA
HETATM    6  N6  UNL     1     -21.290 -19.537 -24.206  1.00  0.00    -0.134 N
HETATM    7  N8  UNL     1     -20.114 -19.514 -23.624  1.00  0.00    -0.105 N
ATOM      8  H8  UNL     1     -19.654 -20.284 -23.138  1.00  0.00     0.208 HD
ENDROOT
BRANCH   1   9
HETATM    9  N4  UNL     1     -18.502 -17.882 -23.360  1.00  0.00    -0.128 N
ATOM     10  H4  UNL     1     -17.664 -18.056 -23.915  1.00  0.00     0.205 HD
BRANCH   9  11
HETATM   11  N3  UNL     1     -18.389 -17.235 -22.131  1.00  0.00    -0.262 N
HETATM   12  C1  UNL     1     -18.069 -17.916 -21.100  1.00  0.00     0.216 C
HETATM   13  N1  UNL     1     -17.836 -19.302 -21.211  1.00  0.00    -0.065 NA
HETATM   14  N2  UNL     1     -17.946 -17.293 -19.840  1.00  0.00    -0.065 NA
ATOM     15  H3  UNL     1     -18.558 -16.232 -22.056  1.00  0.00     0.190 HD
ENDBRANCH   9  11
ENDBRANCH   1   9
BRANCH   6  16
HETATM   16  N7  UNL     1     -22.167 -20.613 -24.288  1.00  0.00    -0.319 N
ATOM     17  H72 UNL     1     -22.264 -21.273 -25.060  1.00  0.00     0.179 HD
ATOM     18  H71 UNL     1     -22.827 -20.853 -23.548  1.00  0.00     0.179 HD
ENDBRANCH   6  16
TORSDOF 3
ENDMDL