MODEL 2
REMARK VINA RESULT: -6.529483688      2.038      4.388
REMARK  1 active torsions:
REMARK  status: ('A' for Active; 'I' for Inactive)
REMARK       I    between atoms: C1_2  and  N2_4
REMARK    1  A    between atoms: N2_4  and  N3_6
ROOT
HETATM    1  N3  UNL     1     -20.084 -18.052 -23.712  1.00  0.00    -0.134 N
HETATM    2  N4  UNL     1     -21.174 -18.769 -23.511  1.00  0.00    -0.225 N
ATOM      3  H4  UNL     1     -21.582 -18.968 -22.599  1.00  0.00     0.194 HD
HETATM    4  C2  UNL     1     -21.674 -19.206 -24.707  1.00  0.00     0.344 A
HETATM    5  O2  UNL     1     -22.692 -19.907 -24.907  1.00  0.00    -0.245 OA
HETATM    6  N5  UNL     1     -20.871 -18.747 -25.678  1.00  0.00    -0.257 N
ATOM      7  H5  UNL     1     -20.971 -18.898 -26.681  1.00  0.00     0.175 HD
HETATM    8  C3  UNL     1     -19.915 -18.052 -25.060  1.00  0.00     0.365 A
HETATM    9  O3  UNL     1     -18.965 -17.463 -25.641  1.00  0.00    -0.243 OA
ENDROOT
BRANCH   1  10
HETATM   10  N2  UNL     1     -19.257 -17.418 -22.785  1.00  0.00    -0.228 N
HETATM   11  C1  UNL     1     -18.477 -18.077 -21.823  1.00  0.00     0.348 C
HETATM   12  N1  UNL     1     -17.676 -17.299 -20.936  1.00  0.00    -0.038 NA
HETATM   13  O1  UNL     1     -18.407 -19.318 -21.656  1.00  0.00    -0.249 OA
ATOM     14  H2  UNL     1     -19.217 -16.399 -22.807  1.00  0.00     0.193 HD
ENDBRANCH   1  10
TORSDOF 1
ENDMDL