MODEL 4
REMARK VINA RESULT: -6.078257580      2.275      3.905
REMARK  3 active torsions:
REMARK  status: ('A' for Active; 'I' for Inactive)
REMARK    1  A    between atoms: N1_1  and  S1_4
REMARK    2  A    between atoms: S1_4  and  N2_6
REMARK    3  A    between atoms: N2_6  and  C1_8
ROOT
HETATM    1  C1  UNL     1     -20.109 -19.370 -23.366  1.00  0.00     0.710 A
HETATM    2  N3  UNL     1     -20.477 -20.630 -23.081  1.00  0.00    -0.127 N
ATOM      3  H3  UNL     1     -20.748 -21.336 -23.766  1.00  0.00     0.205 HD
HETATM    4  N4  UNL     1     -20.430 -20.811 -21.757  1.00  0.00    -0.237 N
ATOM      5  H4  UNL     1     -20.657 -21.671 -21.258  1.00  0.00     0.192 HD
HETATM    6  C2  UNL     1     -20.031 -19.656 -21.203  1.00  0.00     0.353 A
HETATM    7  O2  UNL     1     -19.879 -19.475 -19.973  1.00  0.00    -0.245 OA
HETATM    8  N5  UNL     1     -19.835 -18.775 -22.194  1.00  0.00    -0.138 N
ATOM      9  H5  UNL     1     -19.528 -17.809 -22.077  1.00  0.00     0.189 HD
ENDROOT
BRANCH   1  10
HETATM   10  N2  UNL     1     -20.064 -18.922 -24.572  1.00  0.00    -0.120 N
ATOM     11  H2  UNL     1     -19.176 -18.644 -24.991  1.00  0.00     0.196 HD
BRANCH  10  12
HETATM   12  S1  UNL     1     -21.536 -18.801 -25.467  1.00  0.00     0.229 S
HETATM   13  O1  UNL     1     -22.401 -17.443 -24.976  1.00  0.00    -0.212 OA
BRANCH  12  14
HETATM   14  N1  UNL     1     -22.507 -20.182 -25.132  1.00  0.00    -0.332 NA
ATOM     15  H12 UNL     1     -23.458 -20.003 -25.454  1.00  0.00     0.168 HD
ATOM     16  H11 UNL     1     -22.106 -20.969 -25.642  1.00  0.00     0.168 HD
ENDBRANCH  12  14
ENDBRANCH  10  12
ENDBRANCH   1  10
TORSDOF 3
ENDMDL