MODEL 4
REMARK VINA RESULT: -6.850250431      1.202      1.706
REMARK  3 active torsions:
REMARK  status: ('A' for Active; 'I' for Inactive)
REMARK       I    between atoms: C1_2  and  N2_4
REMARK    1  A    between atoms: N2_4  and  N3_5
REMARK    2  A    between atoms: N2_4  and  N4_8
REMARK    3  A    between atoms: N4_8  and  C2_10
ROOT
HETATM    1  C2  UNL     1     -20.041 -18.917 -23.477  1.00  0.00     0.717 A
HETATM    2  N5  UNL     1     -20.065 -17.573 -23.627  1.00  0.00    -0.127 N
ATOM      3  H5  UNL     1     -19.487 -16.920 -23.097  1.00  0.00     0.206 HD
HETATM    4  N6  UNL     1     -20.936 -17.221 -24.549  1.00  0.00    -0.237 N
ATOM      5  H6  UNL     1     -21.148 -16.270 -24.854  1.00  0.00     0.192 HD
HETATM    6  C3  UNL     1     -21.494 -18.355 -25.013  1.00  0.00     0.353 A
HETATM    7  O2  UNL     1     -22.377 -18.395 -25.913  1.00  0.00    -0.245 OA
HETATM    8  N7  UNL     1     -20.939 -19.391 -24.351  1.00  0.00    -0.137 N
ATOM      9  H7  UNL     1     -21.167 -20.375 -24.493  1.00  0.00     0.189 HD
ENDROOT
BRANCH   1  10
HETATM   10  N4  UNL     1     -19.284 -19.554 -22.644  1.00  0.00    -0.106 N
ATOM     11  H4  UNL     1     -18.305 -19.733 -22.865  1.00  0.00     0.208 HD
BRANCH  10  12
HETATM   12  N2  UNL     1     -19.829 -19.992 -21.443  1.00  0.00    -0.137 N
HETATM   13  C1  UNL     1     -19.824 -19.170 -20.298  1.00  0.00     0.369 C
HETATM   14  N1  UNL     1     -19.244 -17.862 -20.378  1.00  0.00    -0.037 NA
HETATM   15  O1  UNL     1     -20.295 -19.505 -19.193  1.00  0.00    -0.247 OA
BRANCH  12  16
HETATM   16  N3  UNL     1     -20.383 -21.276 -21.410  1.00  0.00    -0.320 N
ATOM     17  H32 UNL     1     -19.951 -21.964 -20.794  1.00  0.00     0.179 HD
ATOM     18  H31 UNL     1     -21.192 -21.517 -21.984  1.00  0.00     0.179 HD
ENDBRANCH  12  16
ENDBRANCH  10  12
ENDBRANCH   1  10
TORSDOF 3
ENDMDL