MODEL 5
REMARK VINA RESULT: -6.322472322      3.287      4.538
REMARK  0 active torsions:
REMARK  status: ('A' for Active; 'I' for Inactive)
ROOT
HETATM    1  O1  UNL     1     -22.621 -19.183 -24.872  1.00  0.00    -0.246 OA
HETATM    2  C1  UNL     1     -21.439 -18.769 -24.677  1.00  0.00     0.337 C
HETATM    3  N1  UNL     1     -20.506 -18.777 -25.759  1.00  0.00    -0.249 N
ATOM      4  H1  UNL     1     -20.765 -19.108 -26.689  1.00  0.00     0.192 HD
HETATM    5  N2  UNL     1     -19.212 -18.304 -25.474  1.00  0.00    -0.262 N
ATOM      6  H2  UNL     1     -18.507 -18.287 -26.210  1.00  0.00     0.190 HD
HETATM    7  C2  UNL     1     -18.881 -17.849 -24.167  1.00  0.00     0.293 C
HETATM    8  O2  UNL     1     -17.920 -17.047 -24.046  1.00  0.00    -0.267 OA
HETATM    9  C3  UNL     1     -19.686 -18.347 -23.047  1.00  0.00     0.290 C
HETATM   10  N3  UNL     1     -19.328 -17.877 -21.737  1.00  0.00    -0.085 NA
HETATM   11  N4  UNL     1     -19.603 -19.154 -21.240  1.00  0.00    -0.267 N
ATOM     12  H4  UNL     1     -19.893 -19.549 -20.346  1.00  0.00     0.185 HD
HETATM   13  C4  UNL     1     -19.299 -19.661 -22.531  1.00  0.00     0.290 C
HETATM   14  O3  UNL     1     -18.890 -20.753 -22.942  1.00  0.00    -0.267 OA
HETATM   15  N5  UNL     1     -21.089 -18.311 -23.375  1.00  0.00    -0.301 N
ATOM     16  H5  UNL     1     -21.789 -17.976 -22.714  1.00  0.00     0.167 HD
ENDROOT
TORSDOF 0
ENDMDL