MODEL 2
REMARK VINA RESULT: -6.902132873      1.503      2.328
REMARK  3 active torsions:
REMARK  status: ('A' for Active; 'I' for Inactive)
REMARK    1  A    between atoms: N1_1  and  N2_4
REMARK       I    between atoms: N2_4  and  C1_6
REMARK    2  A    between atoms: C1_6  and  C2_8
REMARK    3  A    between atoms: N3_10  and  N4_11
ROOT
HETATM    1  C2  UNL     1     -19.897 -19.780 -22.961  1.00  0.00     0.135 A
HETATM    2  C3  UNL     1     -19.555 -18.691 -23.733  1.00  0.00     0.157 A
HETATM    3  N3  UNL     1     -20.411 -18.325 -24.703  1.00  0.00    -0.220 N
HETATM    4  C4  UNL     1     -21.553 -18.995 -24.913  1.00  0.00     0.359 A
HETATM    5  O2  UNL     1     -22.324 -18.614 -25.836  1.00  0.00    -0.243 OA
HETATM    6  N5  UNL     1     -21.890 -20.059 -24.162  1.00  0.00    -0.249 N
ATOM      7  H5  UNL     1     -22.760 -20.566 -24.325  1.00  0.00     0.192 HD
HETATM    8  N6  UNL     1     -21.050 -20.427 -23.202  1.00  0.00    -0.290 N
ATOM      9  H6  UNL     1     -21.290 -21.232 -22.624  1.00  0.00     0.187 HD
ENDROOT
BRANCH   1  10
HETATM   10  C1  UNL     1     -19.010 -20.218 -21.900  1.00  0.00     0.288 C
HETATM   11  N2  UNL     1     -18.092 -19.304 -21.345  1.00  0.00    -0.271 N
ATOM     12  H2  UNL     1     -18.051 -18.344 -21.686  1.00  0.00     0.189 HD
HETATM   13  O1  UNL     1     -19.065 -21.422 -21.478  1.00  0.00    -0.264 OA
BRANCH  11  14
HETATM   14  N1  UNL     1     -17.242 -19.724 -20.327  1.00  0.00    -0.342 N
ATOM     15  H12 UNL     1     -17.559 -20.442 -19.675  1.00  0.00     0.176 HD
ATOM     16  H11 UNL     1     -16.315 -19.307 -20.246  1.00  0.00     0.176 HD
ENDBRANCH  11  14
ENDBRANCH   1  10
BRANCH   3  17
HETATM   17  N4  UNL     1     -20.081 -17.225 -25.493  1.00  0.00    -0.335 N
ATOM     18  H42 UNL     1     -20.110 -17.292 -26.510  1.00  0.00     0.177 HD
ATOM     19  H41 UNL     1     -19.813 -16.358 -25.026  1.00  0.00     0.177 HD
ENDBRANCH   3  17
TORSDOF 3
ENDMDL