MODEL 4
REMARK VINA RESULT: -7.179982114      1.288      2.927
REMARK  1 active torsions:
REMARK  status: ('A' for Active; 'I' for Inactive)
REMARK    1  A    between atoms: N3_4  and  C2_6
ROOT
HETATM    1  C2  UNL     1      19.892 -19.180  22.087  1.00  0.00     0.108 C
HETATM    2  C3  UNL     1      18.749 -18.541  21.679  1.00  0.00     0.109 C
HETATM    3  C4  UNL     1      17.910 -17.732  22.434  1.00  0.00     0.251 C
HETATM    4  O1  UNL     1      16.888 -17.280  21.857  1.00  0.00    -0.268 OA
HETATM    5  N4  UNL     1      18.066 -17.365  23.741  1.00  0.00    -0.275 N
ATOM      6  H4  UNL     1      17.475 -16.603  24.075  1.00  0.00     0.173 HD
HETATM    7  C5  UNL     1      18.920 -17.907  24.638  1.00  0.00     0.330 C
HETATM    8  O2  UNL     1      18.605 -17.752  25.853  1.00  0.00    -0.246 OA
HETATM    9  N5  UNL     1      20.068 -18.594  24.491  1.00  0.00    -0.274 N
ATOM     10  H5  UNL     1      20.612 -18.802  25.328  1.00  0.00     0.173 HD
HETATM   11  C6  UNL     1      20.549 -19.031  23.287  1.00  0.00     0.276 C
HETATM   12  O3  UNL     1      21.770 -19.325  23.338  1.00  0.00    -0.266 OA
ENDROOT
BRANCH   1  13
HETATM   13  N3  UNL     1      20.442 -20.080  21.183  1.00  0.00    -0.328 N
HETATM   14  C1  UNL     1      19.917 -21.156  20.716  1.00  0.00     0.201 C
HETATM   15  N1  UNL     1      18.625 -21.630  21.059  1.00  0.00    -0.066 NA
HETATM   16  N2  UNL     1      20.696 -21.909  19.794  1.00  0.00    -0.066 NA
ATOM     17  H3  UNL     1      21.380 -19.859  20.847  1.00  0.00     0.168 HD
ENDBRANCH   1  13
TORSDOF 1
ENDMDL