MODEL 2
REMARK VINA RESULT: -7.405966143      1.275      2.762
REMARK  1 active torsions:
REMARK  status: ('A' for Active; 'I' for Inactive)
REMARK    1  A    between atoms: N1_1  and  C1_4
ROOT
HETATM    1  C1  UNL     1      18.871 -18.209  22.253  1.00  0.00     0.700 A
HETATM    2  N2  UNL     1      18.892 -19.027  21.156  1.00  0.00    -0.186 N
ATOM      3  H2  UNL     1      18.258 -18.856  20.376  1.00  0.00     0.185 HD
HETATM    4  C2  UNL     1      19.754 -20.055  21.114  1.00  0.00     0.200 A
HETATM    5  N3  UNL     1      20.581 -20.258  22.163  1.00  0.00    -0.332 N
ATOM      6  H3  UNL     1      21.235 -21.040  22.132  1.00  0.00     0.168 HD
HETATM    7  C3  UNL     1      20.569 -19.462  23.247  1.00  0.00     0.215 A
HETATM    8  C4  UNL     1      21.412 -19.665  24.319  1.00  0.00     0.296 A
HETATM    9  O1  UNL     1      22.210 -20.653  24.232  1.00  0.00    -0.264 OA
HETATM   10  N4  UNL     1      21.393 -18.867  25.397  1.00  0.00    -0.271 N
ATOM     11  H4  UNL     1      22.026 -19.037  26.179  1.00  0.00     0.174 HD
HETATM   12  C5  UNL     1      20.530 -17.844  25.428  1.00  0.00     0.342 A
HETATM   13  O2  UNL     1      20.498 -17.084  26.431  1.00  0.00    -0.245 OA
HETATM   14  N5  UNL     1      19.708 -17.659  24.363  1.00  0.00    -0.228 N
ATOM     15  H5  UNL     1      19.055 -16.877  24.399  1.00  0.00     0.193 HD
HETATM   16  N6  UNL     1      19.695 -18.416  23.293  1.00  0.00    -0.060 N
ENDROOT
BRANCH   1  17
HETATM   17  N1  UNL     1      18.049 -17.245  22.270  1.00  0.00    -0.233 N
ATOM     18  H12 UNL     1      17.057 -17.412  22.099  1.00  0.00     0.174 HD
ATOM     19  H11 UNL     1      18.405 -16.308  22.456  1.00  0.00     0.174 HD
ENDBRANCH   1  17
TORSDOF 1
ENDMDL