MODEL 3
REMARK VINA RESULT: -6.842876159      1.351      1.401
REMARK  2 active torsions:
REMARK  status: ('A' for Active; 'I' for Inactive)
REMARK       I    between atoms: N1_2  and  C2_4
REMARK       I    between atoms: C2_4  and  N2_6
REMARK    1  A    between atoms: N2_6  and  N3_8
REMARK    2  A    between atoms: N3_8  and  C3_10
ROOT
HETATM    1  C3  UNL     1      20.752 -19.270  23.305  1.00  0.00     0.207 A
HETATM    2  N4  UNL     1      20.174 -18.062  23.290  1.00  0.00    -0.265 N
ATOM      3  H4  UNL     1      19.466 -17.751  22.626  1.00  0.00     0.190 HD
HETATM    4  N5  UNL     1      20.671 -17.341  24.276  1.00  0.00    -0.238 N
ATOM      5  H5  UNL     1      20.398 -16.380  24.484  1.00  0.00     0.208 HD
HETATM    6  N6  UNL     1      21.569 -18.026  24.958  1.00  0.00    -0.249 N
ATOM      7  H6  UNL     1      22.103 -17.704  25.765  1.00  0.00     0.192 HD
HETATM    8  C4  UNL     1      21.639 -19.250  24.364  1.00  0.00     0.307 A
HETATM    9  O2  UNL     1      22.411 -20.148  24.779  1.00  0.00    -0.262 OA
ENDROOT
BRANCH   1  10
HETATM   10  N3  UNL     1      20.586 -20.291  22.545  1.00  0.00    -0.276 N
ATOM     11  H3  UNL     1      20.651 -21.211  22.982  1.00  0.00     0.189 HD
BRANCH  10  12
HETATM   12  N2  UNL     1      20.329 -20.255  21.195  1.00  0.00    -0.250 N
HETATM   13  C2  UNL     1      20.354 -21.400  20.346  1.00  0.00     0.334 C
HETATM   14  N1  UNL     1      20.089 -21.354  18.971  1.00  0.00    -0.346 N
HETATM   15  O1  UNL     1      20.627 -22.504  20.877  1.00  0.00    -0.246 OA
HETATM   16  C1  UNL     1      20.133 -22.550  18.179  1.00  0.00     0.151 C
ATOM     17  H1  UNL     1      19.865 -20.463  18.528  1.00  0.00     0.163 HD
ATOM     18  H2  UNL     1      20.107 -19.352  20.774  1.00  0.00     0.192 HD
ENDBRANCH  10  12
ENDBRANCH   1  10
TORSDOF 2
ENDMDL