MODEL 4
REMARK VINA RESULT: -7.235326376      1.518      4.082
REMARK  3 active torsions:
REMARK  status: ('A' for Active; 'I' for Inactive)
REMARK    1  A    between atoms: N1_1  and  N2_4
REMARK    2  A    between atoms: N2_4  and  C1_6
REMARK    3  A    between atoms: C3_15  and  N6_16
REMARK       I    between atoms: N6_16  and  C4_18
ROOT
HETATM    1  C1  UNL     1      19.327 -19.517  23.112  1.00  0.00     0.179 A
HETATM    2  N3  UNL     1      18.844 -19.739  21.881  1.00  0.00    -0.277 N
ATOM      3  H3  UNL     1      19.029 -20.637  21.435  1.00  0.00     0.189 HD
HETATM    4  N4  UNL     1      18.133 -18.833  21.223  1.00  0.00    -0.250 N
ATOM      5  H4  UNL     1      17.790 -19.053  20.288  1.00  0.00     0.192 HD
HETATM    6  C2  UNL     1      17.853 -17.629  21.759  1.00  0.00     0.340 A
HETATM    7  O1  UNL     1      17.171 -16.757  21.128  1.00  0.00    -0.245 OA
HETATM    8  N5  UNL     1      18.331 -17.389  22.996  1.00  0.00    -0.290 N
ATOM      9  H5  UNL     1      18.137 -16.486  23.428  1.00  0.00     0.172 HD
HETATM   10  C3  UNL     1      19.059 -18.295  23.688  1.00  0.00     0.160 A
ENDROOT
BRANCH   1  11
HETATM   11  N2  UNL     1      20.006 -20.449  23.678  1.00  0.00    -0.288 N
ATOM     12  H2  UNL     1      19.531 -21.046  24.354  1.00  0.00     0.188 HD
BRANCH  11  13
HETATM   13  N1  UNL     1      21.354 -20.692  23.422  1.00  0.00    -0.343 N
ATOM     14  H12 UNL     1      21.594 -21.601  23.026  1.00  0.00     0.176 HD
ATOM     15  H11 UNL     1      22.098 -20.019  23.607  1.00  0.00     0.176 HD
ENDBRANCH  11  13
ENDBRANCH   1  11
BRANCH  10  16
HETATM   16  N6  UNL     1      19.513 -18.059  24.869  1.00  0.00    -0.294 N
HETATM   17  C4  UNL     1      20.885 -17.924  25.163  1.00  0.00     0.334 C
HETATM   18  N7  UNL     1      21.516 -18.855  26.012  1.00  0.00    -0.040 NA
HETATM   19  O2  UNL     1      21.551 -16.989  24.679  1.00  0.00    -0.251 OA
ATOM     20  H6  UNL     1      18.844 -17.964  25.633  1.00  0.00     0.172 HD
ENDBRANCH  10  16
TORSDOF 3
ENDMDL