MODEL 4
REMARK VINA RESULT: -6.857832385      1.279      3.305
REMARK  2 active torsions:
REMARK  status: ('A' for Active; 'I' for Inactive)
REMARK    1  A    between atoms: N2_3  and  C2_5
REMARK    2  A    between atoms: C3_12  and  N6_13
REMARK       I    between atoms: N6_13  and  C4_15
REMARK       I    between atoms: C4_15  and  N7_16
REMARK       I    between atoms: C4_15  and  N8_20
ROOT
HETATM    1  N1  UNL     1      22.471 -19.676  25.192  1.00  0.00    -0.172 NA
HETATM    2  C1  UNL     1      21.851 -20.055  24.282  1.00  0.00     0.183 C
HETATM    3  N2  UNL     1      21.098 -20.531  23.201  1.00  0.00    -0.275 N
ATOM      4  H2  UNL     1      21.177 -21.507  22.916  1.00  0.00     0.180 HD
ENDROOT
BRANCH   3   5
HETATM    5  C2  UNL     1      20.302 -19.734  22.562  1.00  0.00     0.176 A
HETATM    6  N3  UNL     1      20.337 -19.474  21.250  1.00  0.00    -0.267 N
HETATM    7  N4  UNL     1      19.381 -18.616  20.936  1.00  0.00    -0.239 N
ATOM      8  H3  UNL     1      21.002 -19.877  20.590  1.00  0.00     0.190 HD
HETATM    9  N5  UNL     1      18.739 -18.335  22.050  1.00  0.00    -0.268 N
ATOM     10  H4  UNL     1      19.179 -18.244  20.008  1.00  0.00     0.208 HD
HETATM   11  C3  UNL     1      19.263 -18.996  23.093  1.00  0.00     0.167 A
ATOM     12  H5  UNL     1      17.946 -17.697  22.112  1.00  0.00     0.190 HD
BRANCH  11  13
HETATM   13  N6  UNL     1      18.959 -19.018  24.323  1.00  0.00    -0.323 N
HETATM   14  C4  UNL     1      18.837 -17.898  25.204  1.00  0.00     0.481 C
HETATM   15  N7  UNL     1      20.164 -17.419  25.539  1.00  0.00    -0.033 N
HETATM   16  N8  UNL     1      18.044 -16.816  24.664  1.00  0.00    -0.033 N
ATOM     17  H73 UNL     1      20.758 -18.155  25.924  1.00  0.00     0.278 HD
ATOM     18  H72 UNL     1      20.722 -17.206  24.712  1.00  0.00     0.278 HD
ATOM     19  H71 UNL     1      20.077 -16.620  26.166  1.00  0.00     0.278 HD
ATOM     20  H83 UNL     1      18.407 -16.522  23.757  1.00  0.00     0.278 HD
ATOM     21  H82 UNL     1      17.124 -17.151  24.379  1.00  0.00     0.278 HD
ATOM     22  H81 UNL     1      17.957 -16.017  25.291  1.00  0.00     0.278 HD
ATOM     23  H6  UNL     1      18.783 -19.937  24.731  1.00  0.00     0.165 HD
ENDBRANCH  11  13
ENDBRANCH   3   5
TORSDOF 2
ENDMDL