MODEL 3
REMARK VINA RESULT: -6.567465748      2.886      4.833
REMARK  1 active torsions:
REMARK  status: ('A' for Active; 'I' for Inactive)
REMARK    1  A    between atoms: N1_1  and  N2_4
REMARK       I    between atoms: C1_6  and  N4_8
ROOT
HETATM    1  N2  UNL     1      19.446 -17.393  24.625  1.00  0.00    -0.280 N
ATOM      2  H2  UNL     1      18.604 -16.827  24.520  1.00  0.00     0.189 HD
HETATM    3  C1  UNL     1      19.934 -17.979  23.608  1.00  0.00     0.208 C
HETATM    4  N3  UNL     1      21.094 -18.763  23.741  1.00  0.00    -0.062 NA
HETATM    5  N4  UNL     1      19.324 -17.852  22.348  1.00  0.00    -0.311 N
ATOM      6  H4  UNL     1      19.159 -16.918  21.974  1.00  0.00     0.170 HD
HETATM    7  C2  UNL     1      18.968 -18.862  21.655  1.00  0.00     0.181 A
HETATM    8  N5  UNL     1      19.121 -20.232  22.024  1.00  0.00    -0.290 N
ATOM      9  H5  UNL     1      19.532 -20.594  22.884  1.00  0.00     0.172 HD
HETATM   10  C3  UNL     1      18.584 -20.985  20.950  1.00  0.00     0.328 A
HETATM   11  O1  UNL     1      18.525 -22.257  20.878  1.00  0.00    -0.247 OA
HETATM   12  N6  UNL     1      18.102 -20.132  19.925  1.00  0.00    -0.272 N
ATOM     13  H6  UNL     1      17.671 -20.428  19.049  1.00  0.00     0.174 HD
HETATM   14  C4  UNL     1      18.329 -18.790  20.337  1.00  0.00     0.293 A
HETATM   15  O2  UNL     1      18.036 -17.730  19.694  1.00  0.00    -0.264 OA
ENDROOT
BRANCH   1  16
HETATM   16  N1  UNL     1      20.041 -17.511  25.882  1.00  0.00    -0.343 N
ATOM     17  H12 UNL     1      20.069 -16.689  26.484  1.00  0.00     0.176 HD
ATOM     18  H11 UNL     1      20.440 -18.395  26.197  1.00  0.00     0.176 HD
ENDBRANCH   1  16
TORSDOF 1
ENDMDL