MODEL 3
REMARK VINA RESULT: -6.990276803      1.498      1.876
REMARK  1 active torsions:
REMARK  status: ('A' for Active; 'I' for Inactive)
REMARK       I    between atoms: C1_4  and  N3_6
REMARK    1  A    between atoms: N3_6  and  C2_8
ROOT
HETATM    1  C2  UNL     1      19.879 -18.321  23.154  1.00  0.00     0.182 A
HETATM    2  N4  UNL     1      21.021 -18.462  23.831  1.00  0.00    -0.289 N
ATOM      3  H4  UNL     1      21.844 -18.887  23.405  1.00  0.00     0.172 HD
HETATM    4  C3  UNL     1      21.035 -18.015  25.113  1.00  0.00     0.340 A
HETATM    5  O1  UNL     1      22.123 -18.144  25.773  1.00  0.00    -0.245 OA
HETATM    6  N5  UNL     1      19.962 -17.451  25.695  1.00  0.00    -0.248 N
ATOM      7  H5  UNL     1      20.028 -17.130  26.661  1.00  0.00     0.192 HD
HETATM    8  N6  UNL     1      18.821 -17.302  25.039  1.00  0.00    -0.259 N
ATOM      9  H6  UNL     1      18.006 -16.875  25.479  1.00  0.00     0.190 HD
HETATM   10  C4  UNL     1      18.785 -17.742  23.756  1.00  0.00     0.304 A
HETATM   11  O2  UNL     1      17.717 -17.623  23.085  1.00  0.00    -0.263 OA
ENDROOT
BRANCH   1  12
HETATM   12  N3  UNL     1      19.792 -18.726  21.925  1.00  0.00    -0.312 N
HETATM   13  C1  UNL     1      19.531 -20.087  21.594  1.00  0.00     0.187 C
HETATM   14  N1  UNL     1      20.447 -20.986  21.670  1.00  0.00    -0.373 N
HETATM   15  N2  UNL     1      18.221 -20.431  21.174  1.00  0.00    -0.064 NA
ATOM     16  H12 UNL     1      20.260 -21.961  21.433  1.00  0.00     0.158 HD
ATOM     17  H11 UNL     1      21.389 -20.738  21.972  1.00  0.00     0.158 HD
ATOM     18  H3  UNL     1      19.915 -18.050  21.172  1.00  0.00     0.170 HD
ENDBRANCH   1  12
TORSDOF 1
ENDMDL