MODEL 4
REMARK VINA RESULT: -7.476814850      2.279      3.765
REMARK  1 active torsions:
REMARK  status: ('A' for Active; 'I' for Inactive)
REMARK    1  A    between atoms: N1_1  and  C1_4
ROOT
HETATM    1  C1  UNL     1      19.362 -17.809  24.854  1.00  0.00     0.680 A
HETATM    2  N2  UNL     1      18.354 -17.370  24.071  1.00  0.00    -0.154 N
ATOM      3  H2  UNL     1      17.784 -16.586  24.389  1.00  0.00     0.187 HD
HETATM    4  C2  UNL     1      18.080 -17.940  22.881  1.00  0.00     0.290 A
HETATM    5  O1  UNL     1      17.134 -17.512  22.171  1.00  0.00    -0.265 OA
HETATM    6  C3  UNL     1      18.834 -18.994  22.439  1.00  0.00     0.151 A
HETATM    7  N3  UNL     1      18.597 -19.601  21.248  1.00  0.00    -0.300 N
ATOM      8  H3  UNL     1      17.837 -19.279  20.648  1.00  0.00     0.171 HD
HETATM    9  C4  UNL     1      19.361 -20.617  20.872  1.00  0.00     0.339 A
HETATM   10  O2  UNL     1      19.146 -21.179  19.776  1.00  0.00    -0.245 OA
HETATM   11  N4  UNL     1      20.363 -21.052  21.652  1.00  0.00    -0.250 N
ATOM     12  H4  UNL     1      20.930 -21.837  21.332  1.00  0.00     0.192 HD
HETATM   13  N5  UNL     1      20.641 -20.498  22.827  1.00  0.00    -0.279 N
ATOM     14  H5  UNL     1      21.407 -20.840  23.407  1.00  0.00     0.189 HD
HETATM   15  C5  UNL     1      19.870 -19.461  23.222  1.00  0.00     0.168 A
HETATM   16  N6  UNL     1      20.091 -18.840  24.409  1.00  0.00    -0.173 N
ATOM     17  H6  UNL     1      20.855 -19.177  24.994  1.00  0.00     0.186 HD
ENDROOT
BRANCH   1  18
HETATM   18  N1  UNL     1      19.574 -17.222  25.983  1.00  0.00    -0.234 N
ATOM     19  H12 UNL     1      18.975 -17.341  26.800  1.00  0.00     0.174 HD
ATOM     20  H11 UNL     1      20.381 -16.604  26.072  1.00  0.00     0.174 HD
ENDBRANCH   1  18
TORSDOF 1
ENDMDL