MODEL 4
REMARK VINA RESULT: -7.057600315      2.627      3.880
REMARK  0 active torsions:
REMARK  status: ('A' for Active; 'I' for Inactive)
ROOT
HETATM    1  N1  UNL     1      18.758 -17.281  25.163  1.00  0.00    -0.233 N
ATOM      2  H11 UNL     1      18.345 -16.350  25.126  1.00  0.00     0.174 HD
ATOM      3  H12 UNL     1      19.232 -17.779  25.917  1.00  0.00     0.174 HD
HETATM    4  C1  UNL     1      18.678 -17.976  24.075  1.00  0.00     0.693 C
HETATM    5  N2  UNL     1      19.253 -19.271  24.128  1.00  0.00    -0.128 N
ATOM      6  H2  UNL     1      19.533 -19.529  25.075  1.00  0.00     0.205 HD
HETATM    7  N3  UNL     1      19.535 -20.292  23.188  1.00  0.00    -0.237 N
ATOM      8  H3  UNL     1      19.657 -21.201  23.635  1.00  0.00     0.192 HD
HETATM    9  C2  UNL     1      19.689 -20.365  21.775  1.00  0.00     0.342 C
HETATM   10  O1  UNL     1      20.173 -21.461  21.403  1.00  0.00    -0.245 OA
HETATM   11  N4  UNL     1      19.405 -19.449  20.720  1.00  0.00    -0.270 N
ATOM     12  H4  UNL     1      19.896 -19.676  19.855  1.00  0.00     0.174 HD
HETATM   13  C3  UNL     1      18.590 -18.290  20.606  1.00  0.00     0.318 C
HETATM   14  O2  UNL     1      18.415 -17.919  19.417  1.00  0.00    -0.262 OA
HETATM   15  C4  UNL     1      17.920 -17.452  21.596  1.00  0.00     0.328 C
HETATM   16  O3  UNL     1      17.052 -16.698  21.092  1.00  0.00    -0.261 OA
HETATM   17  N5  UNL     1      18.013 -17.279  23.019  1.00  0.00    -0.150 N
ATOM     18  H5  UNL     1      17.482 -16.473  23.353  1.00  0.00     0.188 HD
ENDROOT
TORSDOF 0
ENDMDL