MODEL 4
REMARK VINA RESULT: -6.877303712      2.312      3.949
REMARK  1 active torsions:
REMARK  status: ('A' for Active; 'I' for Inactive)
REMARK    1  A    between atoms: N1_1  and  N2_4
REMARK       I    between atoms: N2_4  and  C1_6
ROOT
HETATM    1  N2  UNL     1      21.370 -20.413  23.822  1.00  0.00    -0.138 N
ATOM      2  H2  UNL     1      21.900 -21.185  23.418  1.00  0.00     0.205 HD
HETATM    3  C1  UNL     1      20.356 -19.970  23.161  1.00  0.00     0.703 C
HETATM    4  N3  UNL     1      20.128 -20.607  21.992  1.00  0.00    -0.140 N
ATOM      5  H3  UNL     1      20.686 -21.448  21.846  1.00  0.00     0.189 HD
HETATM    6  C2  UNL     1      19.280 -20.309  20.986  1.00  0.00     0.341 C
HETATM    7  O1  UNL     1      19.086 -21.191  20.112  1.00  0.00    -0.246 OA
HETATM    8  N4  UNL     1      18.608 -19.158  20.810  1.00  0.00    -0.270 N
ATOM      9  H4  UNL     1      18.255 -18.987  19.868  1.00  0.00     0.174 HD
HETATM   10  C3  UNL     1      18.342 -18.191  21.733  1.00  0.00     0.318 C
HETATM   11  O2  UNL     1      17.766 -17.165  21.353  1.00  0.00    -0.262 OA
HETATM   12  C4  UNL     1      18.644 -18.217  23.086  1.00  0.00     0.328 C
HETATM   13  O3  UNL     1      17.949 -17.501  23.852  1.00  0.00    -0.261 OA
HETATM   14  N5  UNL     1      19.637 -18.953  23.664  1.00  0.00    -0.150 N
ATOM     15  H5  UNL     1      19.868 -18.693  24.623  1.00  0.00     0.188 HD
ENDROOT
BRANCH   1  16
HETATM   16  N1  UNL     1      21.787 -19.915  25.037  1.00  0.00    -0.331 N
ATOM     17  H12 UNL     1      21.987 -18.916  25.078  1.00  0.00     0.177 HD
ATOM     18  H11 UNL     1      21.905 -20.475  25.880  1.00  0.00     0.177 HD
ENDBRANCH   1  16
TORSDOF 1
ENDMDL