MODEL 4
REMARK VINA RESULT: -7.598695015      0.862      3.248
REMARK  0 active torsions:
REMARK  status: ('A' for Active; 'I' for Inactive)
REMARK       I    between atoms: C1_4  and  N3_6
ROOT
HETATM    1  N1  UNL     1      19.849 -22.002  20.574  1.00  0.00    -0.373 N
ATOM      2  H11 UNL     1      20.212 -22.744  21.173  1.00  0.00     0.158 HD
ATOM      3  H12 UNL     1      19.304 -22.208  19.737  1.00  0.00     0.158 HD
HETATM    4  C1  UNL     1      20.070 -20.764  20.864  1.00  0.00     0.187 C
HETATM    5  N2  UNL     1      19.560 -19.721  20.023  1.00  0.00    -0.064 NA
HETATM    6  N3  UNL     1      20.819 -20.480  22.017  1.00  0.00    -0.313 N
ATOM      7  H3  UNL     1      21.774 -20.835  22.048  1.00  0.00     0.170 HD
HETATM    8  C2  UNL     1      20.414 -19.820  23.022  1.00  0.00     0.167 C
HETATM    9  N4  UNL     1      19.088 -19.325  22.980  1.00  0.00    -0.301 N
ATOM     10  H4  UNL     1      18.447 -19.822  22.362  1.00  0.00     0.171 HD
HETATM   11  C3  UNL     1      18.529 -18.210  23.697  1.00  0.00     0.315 C
HETATM   12  O1  UNL     1      17.438 -17.775  23.261  1.00  0.00    -0.262 OA
HETATM   13  C4  UNL     1      19.105 -17.546  24.864  1.00  0.00     0.316 C
HETATM   14  O2  UNL     1      18.485 -16.515  25.264  1.00  0.00    -0.262 OA
HETATM   15  N5  UNL     1      20.252 -17.865  25.636  1.00  0.00    -0.282 N
ATOM     16  H5  UNL     1      20.312 -17.440  26.562  1.00  0.00     0.172 HD
HETATM   17  C5  UNL     1      21.332 -18.715  25.253  1.00  0.00     0.302 C
HETATM   18  O3  UNL     1      22.348 -18.652  25.971  1.00  0.00    -0.264 OA
HETATM   19  C6  UNL     1      21.370 -19.650  24.109  1.00  0.00     0.283 C
HETATM   20  O4  UNL     1      22.365 -20.390  24.085  1.00  0.00    -0.278 OA
ENDROOT
TORSDOF 0
ENDMDL