MODEL 4
REMARK VINA RESULT: -7.063761249      1.757      2.265
REMARK  1 active torsions:
REMARK  status: ('A' for Active; 'I' for Inactive)
REMARK    1  A    between atoms: C2_2  and  C3_3
REMARK       I    between atoms: C3_3  and  N1_5
ROOT
HETATM    1  C1  UNL     1      20.457 -19.014  20.515  1.00  0.00     0.060 C
HETATM    2  C2  UNL     1      19.856 -20.261  21.113  1.00  0.00     0.194 C
HETATM    3  N4  UNL     1      20.669 -21.392  20.721  1.00  0.00    -0.317 N
ATOM      4  H4  UNL     1      21.508 -21.728  21.192  1.00  0.00     0.166 HD
HETATM    5  C5  UNL     1      20.075 -21.947  19.554  1.00  0.00     0.324 C
HETATM    6  O2  UNL     1      20.628 -22.763  18.737  1.00  0.00    -0.247 OA
HETATM    7  N5  UNL     1      18.749 -21.444  19.440  1.00  0.00    -0.277 N
ATOM      8  H5  UNL     1      18.080 -21.666  18.702  1.00  0.00     0.173 HD
HETATM    9  C6  UNL     1      18.527 -20.572  20.544  1.00  0.00     0.263 C
HETATM   10  O3  UNL     1      17.390 -20.162  20.939  1.00  0.00    -0.270 OA
ENDROOT
BRANCH   2  11
HETATM   11  C3  UNL     1      19.805 -20.095  22.589  1.00  0.00     0.261 C
HETATM   12  O1  UNL     1      20.634 -20.753  23.269  1.00  0.00    -0.270 OA
HETATM   13  N1  UNL     1      18.841 -19.221  23.116  1.00  0.00    -0.301 N
HETATM   14  C4  UNL     1      19.101 -18.090  23.670  1.00  0.00     0.203 C
ATOM     15  H1  UNL     1      17.863 -19.504  23.055  1.00  0.00     0.171 HD
HETATM   16  N2  UNL     1      18.001 -17.332  24.150  1.00  0.00    -0.066 NA
HETATM   17  N3  UNL     1      20.404 -17.567  23.827  1.00  0.00    -0.066 NA
ENDBRANCH   2  11
TORSDOF 1
ENDMDL