MODEL 4
REMARK VINA RESULT: -7.109532424      1.566      1.767
REMARK  0 active torsions:
REMARK  status: ('A' for Active; 'I' for Inactive)
REMARK       I    between atoms: C2_4  and  N3_6
REMARK       I    between atoms: N3_6  and  C3_8
REMARK       I    between atoms: C3_8  and  N4_10
ROOT
HETATM    1  C1  UNL     1      20.421 -21.930  20.122  1.00  0.00     0.148 C
HETATM    2  N1  UNL     1      19.203 -21.214  19.903  1.00  0.00    -0.369 N
ATOM      3  H1  UNL     1      18.685 -21.438  19.054  1.00  0.00     0.161 HD
HETATM    4  C2  UNL     1      18.701 -20.324  20.662  1.00  0.00     0.191 C
HETATM    5  N2  UNL     1      17.487 -19.712  20.300  1.00  0.00    -0.063 NA
HETATM    6  N3  UNL     1      19.348 -19.950  21.855  1.00  0.00    -0.280 N
ATOM      7  H3  UNL     1      20.227 -20.409  22.094  1.00  0.00     0.173 HD
HETATM    8  C3  UNL     1      18.835 -18.962  22.745  1.00  0.00     0.361 C
HETATM    9  O1  UNL     1      17.751 -18.393  22.453  1.00  0.00    -0.243 OA
HETATM   10  N4  UNL     1      19.530 -18.633  23.923  1.00  0.00    -0.121 N
HETATM   11  N5  UNL     1      19.158 -17.694  24.885  1.00  0.00     0.009 NA
HETATM   12  N6  UNL     1      20.368 -17.251  25.447  1.00  0.00    -0.232 N
ATOM     13  H6  UNL     1      20.549 -16.339  25.865  1.00  0.00     0.189 HD
HETATM   14  C4  UNL     1      21.291 -18.332  25.316  1.00  0.00     0.353 C
HETATM   15  O2  UNL     1      22.383 -18.519  25.919  1.00  0.00    -0.244 OA
HETATM   16  N7  UNL     1      20.731 -19.201  24.335  1.00  0.00    -0.226 N
ATOM     17  H7  UNL     1      21.135 -20.075  23.998  1.00  0.00     0.193 HD
ENDROOT
TORSDOF 0
ENDMDL