MODEL 3
REMARK VINA RESULT: -6.995043661      2.774      4.021
REMARK  2 active torsions:
REMARK  status: ('A' for Active; 'I' for Inactive)
REMARK    1  A    between atoms: N1_1  and  N2_4
REMARK       I    between atoms: N2_4  and  C1_6
REMARK    2  A    between atoms: C1_6  and  C2_8
REMARK       I    between atoms: C2_8  and  N3_10
ROOT
HETATM    1  C2  UNL     1      20.194 -22.965  19.798  1.00  0.00     0.316 C
HETATM    2  O2  UNL     1      21.355 -22.539  19.538  1.00  0.00    -0.262 OA
HETATM    3  N3  UNL     1      19.187 -22.005  20.080  1.00  0.00    -0.300 N
ATOM      4  H3  UNL     1      18.290 -22.094  19.601  1.00  0.00     0.171 HD
HETATM    5  C3  UNL     1      19.337 -21.040  20.898  1.00  0.00     0.181 A
HETATM    6  N4  UNL     1      20.493 -20.751  21.651  1.00  0.00    -0.290 N
ATOM      7  H4  UNL     1      21.359 -21.289  21.631  1.00  0.00     0.172 HD
HETATM    8  C4  UNL     1      20.257 -19.576  22.455  1.00  0.00     0.328 A
HETATM    9  O3  UNL     1      21.108 -19.073  23.235  1.00  0.00    -0.247 OA
HETATM   10  N5  UNL     1      18.927 -19.160  22.168  1.00  0.00    -0.272 N
ATOM     11  H5  UNL     1      18.464 -18.352  22.582  1.00  0.00     0.174 HD
HETATM   12  C5  UNL     1      18.331 -20.049  21.207  1.00  0.00     0.293 A
HETATM   13  O4  UNL     1      17.153 -19.940  20.751  1.00  0.00    -0.264 OA
ENDROOT
BRANCH   1  14
HETATM   14  C1  UNL     1      19.954 -24.384  19.794  1.00  0.00     0.327 C
HETATM   15  N2  UNL     1      20.467 -25.257  18.800  1.00  0.00    -0.268 N
ATOM     16  H2  UNL     1      21.033 -24.850  18.056  1.00  0.00     0.190 HD
HETATM   17  O1  UNL     1      19.255 -24.885  20.712  1.00  0.00    -0.261 OA
BRANCH  15  18
HETATM   18  N1  UNL     1      20.251 -26.634  18.770  1.00  0.00    -0.342 N
ATOM     19  H12 UNL     1      20.388 -27.099  17.873  1.00  0.00     0.176 HD
ATOM     20  H11 UNL     1      19.970 -27.193  19.576  1.00  0.00     0.176 HD
ENDBRANCH  15  18
ENDBRANCH   1  14
TORSDOF 2
ENDMDL