MODEL 5
REMARK VINA RESULT: -6.582729222      1.122      1.122
REMARK  3 active torsions:
REMARK  status: ('A' for Active; 'I' for Inactive)
REMARK    1  A    between atoms: N1_2  and  O1_3
REMARK    2  A    between atoms: N1_2  and  C2_5
REMARK    3  A    between atoms: C3_8  and  N3_9
ROOT
HETATM    1  C2  UNL     1      19.585 -18.943  22.692  1.00  0.00     0.211 C
HETATM    2  N2  UNL     1      18.932 -18.133  23.543  1.00  0.00    -0.169 N
ATOM      3  H2  UNL     1      18.000 -17.849  23.243  1.00  0.00     0.186 HD
HETATM    4  C3  UNL     1      19.332 -17.637  24.748  1.00  0.00     0.681 C
HETATM    5  N4  UNL     1      20.457 -17.954  25.413  1.00  0.00    -0.141 N
ATOM      6  H4  UNL     1      20.515 -17.588  26.363  1.00  0.00     0.189 HD
HETATM    7  C4  UNL     1      21.533 -18.689  25.012  1.00  0.00     0.341 C
HETATM    8  O2  UNL     1      22.579 -18.540  25.693  1.00  0.00    -0.246 OA
HETATM    9  N5  UNL     1      21.575 -19.553  23.959  1.00  0.00    -0.272 N
ATOM     10  H5  UNL     1      22.439 -20.083  23.852  1.00  0.00     0.174 HD
HETATM   11  C5  UNL     1      20.612 -19.796  23.033  1.00  0.00     0.296 C
HETATM   12  O3  UNL     1      20.665 -20.902  22.434  1.00  0.00    -0.264 OA
ENDROOT
BRANCH   1  13
HETATM   13  N1  UNL     1      19.202 -18.914  21.465  1.00  0.00    -0.244 N
HETATM   14  C1  UNL     1      17.843 -18.796  21.004  1.00  0.00     0.187 C
BRANCH  13  15
HETATM   15  O1  UNL     1      20.179 -18.994  20.467  1.00  0.00    -0.286 OA
ATOM     16  H1  UNL     1      20.866 -19.634  20.611  1.00  0.00     0.244 HD
ENDBRANCH  13  15
ENDBRANCH   1  13
BRANCH   4  17
HETATM   17  N3  UNL     1      18.539 -16.778  25.291  1.00  0.00    -0.234 N
ATOM     18  H32 UNL     1      17.871 -16.300  24.685  1.00  0.00     0.174 HD
ATOM     19  H31 UNL     1      18.648 -16.647  26.297  1.00  0.00     0.174 HD
ENDBRANCH   4  17
TORSDOF 3
ENDMDL