MODEL 5
REMARK VINA RESULT: -7.325628536      1.428      3.463
REMARK  1 active torsions:
REMARK  status: ('A' for Active; 'I' for Inactive)
REMARK    1  A    between atoms: N1_1  and  N2_4
ROOT
HETATM    1  N2  UNL     1      18.371 -18.256  23.061  1.00  0.00    -0.155 N
HETATM    2  N3  UNL     1      18.725 -19.378  22.317  1.00  0.00    -0.227 N
ATOM      3  H3  UNL     1      18.007 -19.645  21.643  1.00  0.00     0.194 HD
HETATM    4  C1  UNL     1      19.874 -20.250  22.277  1.00  0.00     0.344 C
HETATM    5  O1  UNL     1      19.737 -21.200  21.463  1.00  0.00    -0.245 OA
HETATM    6  N4  UNL     1      21.136 -20.289  22.947  1.00  0.00    -0.259 N
ATOM      7  H4  UNL     1      21.850 -20.780  22.410  1.00  0.00     0.175 HD
HETATM    8  C2  UNL     1      21.631 -19.797  24.200  1.00  0.00     0.331 C
HETATM    9  O2  UNL     1      22.707 -20.363  24.553  1.00  0.00    -0.246 OA
HETATM   10  N5  UNL     1      21.156 -18.809  25.111  1.00  0.00    -0.271 N
ATOM     11  H5  UNL     1      21.766 -18.690  25.920  1.00  0.00     0.174 HD
HETATM   12  C3  UNL     1      20.005 -17.939  25.146  1.00  0.00     0.321 C
HETATM   13  O3  UNL     1      20.002 -17.170  26.136  1.00  0.00    -0.262 OA
HETATM   14  C4  UNL     1      18.837 -17.740  24.296  1.00  0.00     0.349 C
HETATM   15  O4  UNL     1      18.049 -16.902  24.775  1.00  0.00    -0.259 OA
ENDROOT
BRANCH   1  16
HETATM   16  N1  UNL     1      17.351 -17.509  22.450  1.00  0.00    -0.321 N
ATOM     17  H12 UNL     1      16.444 -17.975  22.399  1.00  0.00     0.179 HD
ATOM     18  H11 UNL     1      17.673 -16.592  22.140  1.00  0.00     0.179 HD
ENDBRANCH   1  16
TORSDOF 1
ENDMDL