MODEL 3
REMARK VINA RESULT: -7.265051147      1.001      1.001
REMARK  3 active torsions:
REMARK  status: ('A' for Active; 'I' for Inactive)
REMARK    1  A    between atoms: N1_1  and  N2_4
REMARK       I    between atoms: N2_4  and  C1_6
REMARK    2  A    between atoms: C1_6  and  C2_8
REMARK       I    between atoms: C2_8  and  N3_10
REMARK    3  A    between atoms: N3_10  and  C3_12
ROOT
HETATM    1  C2  UNL     1      19.241 -19.277  21.527  1.00  0.00     0.329 C
HETATM    2  O2  UNL     1      19.331 -18.189  20.919  1.00  0.00    -0.261 OA
HETATM    3  N3  UNL     1      19.130 -19.309  22.936  1.00  0.00    -0.150 N
ATOM      4  H3  UNL     1      18.370 -19.846  23.352  1.00  0.00     0.188 HD
ENDROOT
BRANCH   3   5
HETATM    5  C3  UNL     1      19.947 -18.688  23.722  1.00  0.00     0.704 A
HETATM    6  N4  UNL     1      20.019 -17.357  23.865  1.00  0.00    -0.128 N
HETATM    7  N5  UNL     1      20.974 -17.150  24.754  1.00  0.00    -0.237 N
ATOM      8  H4  UNL     1      19.455 -16.654  23.389  1.00  0.00     0.205 HD
HETATM    9  C4  UNL     1      21.501 -18.322  25.169  1.00  0.00     0.353 A
ATOM     10  H5  UNL     1      21.273 -16.231  25.081  1.00  0.00     0.192 HD
HETATM   11  O3  UNL     1      22.421 -18.503  26.004  1.00  0.00    -0.245 OA
HETATM   12  N6  UNL     1      20.838 -19.302  24.503  1.00  0.00    -0.139 N
ATOM     13  H6  UNL     1      20.989 -20.307  24.584  1.00  0.00     0.189 HD
ENDBRANCH   3   5
BRANCH   1  14
HETATM   14  C1  UNL     1      19.248 -20.516  20.803  1.00  0.00     0.328 C
HETATM   15  N2  UNL     1      20.305 -21.436  20.976  1.00  0.00    -0.268 N
ATOM     16  H2  UNL     1      21.057 -21.200  21.623  1.00  0.00     0.190 HD
HETATM   17  O1  UNL     1      18.329 -20.804  20.013  1.00  0.00    -0.261 OA
BRANCH  15  18
HETATM   18  N1  UNL     1      20.363 -22.657  20.298  1.00  0.00    -0.342 N
ATOM     19  H12 UNL     1      19.484 -23.144  20.125  1.00  0.00     0.176 HD
ATOM     20  H11 UNL     1      21.240 -23.069  19.976  1.00  0.00     0.176 HD
ENDBRANCH  15  18
ENDBRANCH   1  14
TORSDOF 3
ENDMDL