MODEL 2
REMARK VINA RESULT: -6.549113928      2.037      3.930
REMARK  2 active torsions:
REMARK  status: ('A' for Active; 'I' for Inactive)
REMARK    1  A    between atoms: C3_9  and  O2_10
REMARK    2  A    between atoms: C4_14  and  O3_15
ROOT
HETATM    1  N1  UNL     1      21.086 -19.247  22.532  1.00  0.00    -0.381 N
ATOM      2  H11 UNL     1      20.888 -18.325  22.921  1.00  0.00     0.157 HD
ATOM      3  H12 UNL     1      22.007 -19.683  22.486  1.00  0.00     0.157 HD
HETATM    4  C1  UNL     1      20.034 -19.883  22.059  1.00  0.00     0.172 C
HETATM    5  N2  UNL     1      20.313 -21.184  21.510  1.00  0.00    -0.302 N
ATOM      6  H2  UNL     1      20.842 -21.841  22.085  1.00  0.00     0.171 HD
HETATM    7  C2  UNL     1      19.901 -21.615  20.220  1.00  0.00     0.298 C
HETATM    8  O1  UNL     1      19.305 -22.748  20.167  1.00  0.00    -0.263 OA
HETATM    9  C3  UNL     1      20.084 -20.906  18.955  1.00  0.00     0.213 C
HETATM   10  N3  UNL     1      19.922 -19.506  18.785  1.00  0.00    -0.297 N
ATOM     11  H3  UNL     1      20.733 -19.001  18.424  1.00  0.00     0.171 HD
HETATM   12  C4  UNL     1      18.772 -18.724  19.056  1.00  0.00     0.238 C
HETATM   13  N4  UNL     1      17.667 -19.132  19.849  1.00  0.00    -0.262 N
ATOM     14  H4  UNL     1      16.774 -19.211  19.363  1.00  0.00     0.190 HD
HETATM   15  N5  UNL     1      17.651 -19.436  21.206  1.00  0.00    -0.260 N
ATOM     16  H5  UNL     1      16.784 -19.822  21.580  1.00  0.00     0.190 HD
HETATM   17  C5  UNL     1      18.722 -19.262  22.124  1.00  0.00     0.303 C
HETATM   18  O4  UNL     1      18.497 -18.465  23.123  1.00  0.00    -0.263 OA
ENDROOT
BRANCH   9  19
HETATM   19  O2  UNL     1      20.421 -21.605  17.901  1.00  0.00    -0.342 OA
ATOM     20  H2  UNL     1      21.150 -21.297  17.375  1.00  0.00     0.219 HD
ENDBRANCH   9  19
BRANCH  12  21
HETATM   21  O3  UNL     1      18.737 -17.530  18.524  1.00  0.00    -0.331 OA
ATOM     22  H3  UNL     1      18.075 -17.379  17.860  1.00  0.00     0.221 HD
ENDBRANCH  12  21
TORSDOF 2
ENDMDL