MODEL 1
REMARK VINA RESULT: -6.391253520      0.000      0.000
REMARK  2 active torsions:
REMARK  status: ('A' for Active; 'I' for Inactive)
REMARK       I    between atoms: N1_2  and  C2_3
REMARK    1  A    between atoms: N1_2  and  C3_8
REMARK    2  A    between atoms: C3_8  and  N4_9
ROOT
HETATM    1  C3  UNL     1      19.865 -19.583  21.808  1.00  0.00     0.362 C
HETATM    2  N5  UNL     1      20.764 -18.904  20.897  1.00  0.00    -0.285 N
ATOM      3  H5  UNL     1      21.694 -18.554  21.126  1.00  0.00     0.169 HD
HETATM    4  C4  UNL     1      20.129 -18.809  19.624  1.00  0.00     0.326 C
HETATM    5  O1  UNL     1      20.462 -18.019  18.678  1.00  0.00    -0.247 OA
HETATM    6  N6  UNL     1      19.073 -19.756  19.636  1.00  0.00    -0.274 N
ATOM      7  H6  UNL     1      18.427 -19.931  18.866  1.00  0.00     0.173 HD
HETATM    8  C5  UNL     1      19.059 -20.419  20.885  1.00  0.00     0.305 C
HETATM    9  O2  UNL     1      18.483 -21.509  21.181  1.00  0.00    -0.266 OA
ENDROOT
BRANCH   1  10
HETATM   10  N1  UNL     1      19.068 -18.649  22.547  1.00  0.00    -0.302 N
HETATM   11  C1  UNL     1      17.825 -18.190  22.006  1.00  0.00     0.157 C
HETATM   12  C2  UNL     1      19.519 -18.196  23.802  1.00  0.00     0.187 C
HETATM   13  N2  UNL     1      20.299 -17.150  23.819  1.00  0.00    -0.374 N
HETATM   14  N3  UNL     1      19.165 -18.819  25.016  1.00  0.00    -0.064 NA
ATOM     15  H22 UNL     1      20.556 -16.700  22.940  1.00  0.00     0.158 HD
ATOM     16  H21 UNL     1      20.627 -16.822  24.728  1.00  0.00     0.158 HD
ENDBRANCH   1  10
BRANCH   1  17
HETATM   17  N4  UNL     1      20.560 -20.465  22.712  1.00  0.00    -0.024 N
ATOM     18  H43 UNL     1      21.421 -20.048  23.065  1.00  0.00     0.280 HD
ATOM     19  H42 UNL     1      20.068 -20.566  23.600  1.00  0.00     0.280 HD
ATOM     20  H41 UNL     1      20.727 -21.365  22.263  1.00  0.00     0.280 HD
ENDBRANCH   1  17
TORSDOF 2
ENDMDL