MODEL 1
REMARK VINA RESULT: -7.726869093      0.000      0.000
REMARK  2 active torsions:
REMARK  status: ('A' for Active; 'I' for Inactive)
REMARK    1  A    between atoms: N1_1  and  C1_4
REMARK       I    between atoms: N5_14  and  C4_16
REMARK    2  A    between atoms: C4_16  and  C5_18
ROOT
HETATM    1  C1  UNL     1      19.705 -18.144  23.921  1.00  0.00     0.149 A
HETATM    2  N2  UNL     1      20.486 -17.991  25.006  1.00  0.00    -0.291 N
ATOM      3  H2  UNL     1      20.188 -17.398  25.781  1.00  0.00     0.172 HD
HETATM    4  C2  UNL     1      21.662 -18.633  25.050  1.00  0.00     0.340 A
HETATM    5  O1  UNL     1      22.369 -18.471  26.076  1.00  0.00    -0.245 OA
HETATM    6  N3  UNL     1      22.031 -19.408  24.018  1.00  0.00    -0.250 N
ATOM      7  H3  UNL     1      22.928 -19.890  24.067  1.00  0.00     0.192 HD
HETATM    8  N4  UNL     1      21.281 -19.574  22.940  1.00  0.00    -0.278 N
ATOM      9  H4  UNL     1      21.598 -20.172  22.177  1.00  0.00     0.189 HD
HETATM   10  C3  UNL     1      20.095 -18.945  22.864  1.00  0.00     0.167 A
HETATM   11  N5  UNL     1      19.295 -19.039  21.867  1.00  0.00    -0.301 N
ATOM     12  H5  UNL     1      18.422 -18.514  21.920  1.00  0.00     0.171 HD
HETATM   13  C4  UNL     1      19.514 -19.798  20.711  1.00  0.00     0.312 C
HETATM   14  O2  UNL     1      19.789 -19.254  19.612  1.00  0.00    -0.262 OA
ENDROOT
BRANCH   1  15
HETATM   15  N1  UNL     1      18.562 -17.502  23.910  1.00  0.00    -0.382 N
ATOM     16  H12 UNL     1      18.438 -16.625  24.416  1.00  0.00     0.157 HD
ATOM     17  H11 UNL     1      17.799 -17.917  23.375  1.00  0.00     0.157 HD
ENDBRANCH   1  15
BRANCH  13  18
HETATM   18  C5  UNL     1      19.433 -21.252  20.730  1.00  0.00     0.322 C
HETATM   19  N6  UNL     1      20.588 -22.076  20.649  1.00  0.00    -0.053 NA
HETATM   20  O3  UNL     1      18.290 -21.815  20.823  1.00  0.00    -0.266 OA
ENDBRANCH  13  18
TORSDOF 2
ENDMDL