MODEL 1
REMARK VINA RESULT: -6.193928268      0.000      0.000
REMARK  6 active torsions:
REMARK  status: ('A' for Active; 'I' for Inactive)
REMARK    1  A    between atoms: C2_2  and  O1_4
REMARK    2  A    between atoms: C2_2  and  C4_6
REMARK    3  A    between atoms: C4_6  and  C5_7
REMARK    4  A    between atoms: C9_11  and  C11_13
REMARK    5  A    between atoms: C11_13  and  C12_14
REMARK    6  A    between atoms: C14_19  and  O2_21
ROOT
HETATM    1  C5  UNL     1       3.882   5.487  31.293  1.00  0.00    -0.011 C
HETATM    2  C6  UNL     1       4.712   6.670  30.900  1.00  0.00     0.018 C
HETATM    3  C7  UNL     1       4.810   4.518  31.984  1.00  0.00     0.013 C
HETATM    4  C8  UNL     1       5.442   3.522  31.036  1.00  0.00     0.010 C
HETATM    5  C9  UNL     1       4.466   2.627  30.360  1.00  0.00    -0.037 C
HETATM    6  C10 UNL     1       5.079   2.071  29.108  1.00  0.00     0.015 C
HETATM    7  C13 UNL     1       3.184   3.377  30.117  1.00  0.00     0.047 C
HETATM    8  C14 UNL     1       3.447   4.840  29.968  1.00  0.00     0.062 C
HETATM    9  C15 UNL     1       2.218   5.518  29.401  1.00  0.00     0.046 C
ENDROOT
BRANCH   1  10
HETATM   10  C4  UNL     1       2.647   5.776  32.043  1.00  0.00     0.049 C
BRANCH  10  11
HETATM   11  C2  UNL     1       2.561   6.903  32.984  1.00  0.00     0.051 C
HETATM   12  C1  UNL     1       3.380   6.821  34.233  1.00  0.00     0.045 C
HETATM   13  C3  UNL     1       2.650   8.277  32.354  1.00  0.00     0.045 C
BRANCH  11  14
HETATM   14  O1  UNL     1       1.214   6.873  33.461  1.00  0.00    -0.391 OA
ATOM     15  H1  UNL     1       1.114   7.707  33.906  1.00  0.00     0.210 HD
ENDBRANCH  11  14
ENDBRANCH  10  11
ENDBRANCH   1  10
BRANCH   8  16
HETATM   16  O2  UNL     1       4.439   5.009  28.983  1.00  0.00    -0.389 OA
ATOM     17  H2  UNL     1       4.779   4.168  28.701  1.00  0.00     0.210 HD
ENDBRANCH   8  16
BRANCH   5  18
HETATM   18  C11 UNL     1       4.102   1.426  31.239  1.00  0.00     0.053 C
BRANCH  18  19
HETATM   19  C12 UNL     1       2.657   1.094  31.138  1.00  0.00     0.053 C
HETATM   20  N1  UNL     1       2.314   0.024  30.538  1.00  0.00    -0.411 N
ATOM     21  H12 UNL     1       3.031  -0.582  30.138  1.00  0.00     0.155 HD
ATOM     22  H11 UNL     1       1.323  -0.204  30.469  1.00  0.00     0.155 HD
ENDBRANCH  18  19
ENDBRANCH   5  18
TORSDOF 6
ENDMDL