MODEL 1
REMARK VINA RESULT: -6.780664633      0.000      0.000
REMARK  5 active torsions:
REMARK  status: ('A' for Active; 'I' for Inactive)
REMARK    1  A    between atoms: C2_2  and  O1_4
REMARK    2  A    between atoms: C2_2  and  C4_6
REMARK    3  A    between atoms: C4_6  and  C5_7
REMARK    4  A    between atoms: C5_7  and  N1_8
REMARK    5  A    between atoms: N1_8  and  C6_10
ROOT
HETATM    1  C6  UNL     1       3.892   2.150  30.701  1.00  0.00     0.026 C
HETATM    2  C7  UNL     1       4.524   1.752  29.384  1.00  0.00     0.035 C
HETATM    3  C8  UNL     1       5.980   2.087  29.334  1.00  0.00    -0.012 C
HETATM    4  C9  UNL     1       6.155   3.554  29.074  1.00  0.00     0.005 C
HETATM    5  C10 UNL     1       6.355   4.361  30.318  1.00  0.00     0.005 C
HETATM    6  C11 UNL     1       5.387   4.049  31.421  1.00  0.00    -0.012 C
HETATM    7  C12 UNL     1       6.052   3.105  32.379  1.00  0.00     0.009 C
HETATM    8  C13 UNL     1       6.006   1.700  31.820  1.00  0.00    -0.012 C
HETATM    9  C14 UNL     1       6.708   1.564  30.517  1.00  0.00     0.009 C
HETATM   10  C15 UNL     1       4.551   1.305  31.767  1.00  0.00     0.035 C
HETATM   11  C16 UNL     1       4.034   3.620  30.979  1.00  0.00     0.035 C
ENDROOT
BRANCH   1  12
HETATM   12  N1  UNL     1       2.504   1.776  30.693  1.00  0.00    -0.412 N
ATOM     13  H1  UNL     1       2.171   0.943  30.210  1.00  0.00     0.154 HD
BRANCH  12  14
HETATM   14  C5  UNL     1       1.623   2.643  31.401  1.00  0.00     0.117 C
BRANCH  14  15
HETATM   15  C4  UNL     1       0.633   3.206  30.396  1.00  0.00     0.056 C
BRANCH  15  16
HETATM   16  C2  UNL     1       0.228   4.617  30.682  1.00  0.00     0.052 C
HETATM   17  C1  UNL     1       0.877   5.470  29.597  1.00  0.00     0.045 C
HETATM   18  C3  UNL     1       0.847   5.126  31.989  1.00  0.00     0.045 C
BRANCH  16  19
HETATM   19  O1  UNL     1      -1.130   4.855  30.649  1.00  0.00    -0.391 OA
ATOM     20  H1  UNL     1      -1.506   4.501  31.447  1.00  0.00     0.210 HD
ENDBRANCH  16  19
ENDBRANCH  15  16
ENDBRANCH  14  15
ENDBRANCH  12  14
ENDBRANCH   1  12
TORSDOF 5
ENDMDL