MODEL 5
REMARK VINA RESULT: -6.518384677      0.810      1.262
REMARK  6 active torsions:
REMARK  status: ('A' for Active; 'I' for Inactive)
REMARK    1  A    between atoms: C2_2  and  N1_3
REMARK    2  A    between atoms: C2_2  and  C3_7
REMARK    3  A    between atoms: C2_2  and  C10_18
REMARK    4  A    between atoms: C3_7  and  N2_8
REMARK    5  A    between atoms: N2_8  and  C4_10
REMARK    6  A    between atoms: C9_15  and  O1_16
ROOT
HETATM    1  C1  UNL     1       4.111   1.457  29.438  1.00  0.00     0.052 C
HETATM    2  C2  UNL     1       4.845   2.111  30.606  1.00  0.00     0.155 C
ENDROOT
BRANCH   2   3
HETATM    3  N1  UNL     1       4.573   1.378  31.787  1.00  0.00    -0.066 N
ATOM      4  H13 UNL     1       4.089   0.500  31.596  1.00  0.00     0.275 HD
ATOM      5  H12 UNL     1       5.418   0.986  32.205  1.00  0.00     0.275 HD
ATOM      6  H11 UNL     1       4.059   1.974  32.435  1.00  0.00     0.275 HD
ENDBRANCH   2   3
BRANCH   2   7
HETATM    7  C3  UNL     1       4.543   3.562  30.727  1.00  0.00     0.094 C
BRANCH   7   8
HETATM    8  N2  UNL     1       3.500   4.037  31.527  1.00  0.00    -0.393 N
ATOM      9  H2  UNL     1       3.732   4.372  32.462  1.00  0.00     0.159 HD
BRANCH   8  10
HETATM   10  C4  UNL     1       2.164   4.084  31.131  1.00  0.00     0.109 C
HETATM   11  C5  UNL     1       1.936   4.834  29.831  1.00  0.00     0.028 C
HETATM   12  C6  UNL     1       1.635   6.287  30.049  1.00  0.00     0.002 C
HETATM   13  C7  UNL     1       2.209   6.891  31.285  1.00  0.00     0.003 C
HETATM   14  C8  UNL     1       1.770   6.130  32.515  1.00  0.00     0.034 C
HETATM   15  C9  UNL     1       1.248   4.752  32.160  1.00  0.00     0.140 C
BRANCH  15  16
HETATM   16  O1  UNL     1      -0.018   4.813  31.647  1.00  0.00    -0.394 OA
ATOM     17  H1  UNL     1      -0.481   5.531  32.062  1.00  0.00     0.210 HD
ENDBRANCH  15  16
ENDBRANCH   8  10
ENDBRANCH   7   8
ENDBRANCH   2   7
BRANCH   2  18
HETATM   18  C10 UNL     1       6.311   1.922  30.232  1.00  0.00     0.026 C
HETATM   19  C11 UNL     1       7.091   1.322  31.359  1.00  0.00     0.007 C
HETATM   20  C12 UNL     1       8.554   1.204  30.921  1.00  0.00     0.000 C
HETATM   21  C13 UNL     1       8.670   1.215  29.404  1.00  0.00     0.000 C
HETATM   22  C14 UNL     1       8.151   2.480  28.782  1.00  0.00     0.000 C
HETATM   23  C15 UNL     1       7.020   3.075  29.656  1.00  0.00     0.007 C
ENDBRANCH   2  18
TORSDOF 6
ENDMDL