MODEL 1
REMARK VINA RESULT: -6.163644410      0.000      0.000
REMARK  5 active torsions:
REMARK  status: ('A' for Active; 'I' for Inactive)
REMARK    1  A    between atoms: C2_2  and  C3_3
REMARK    2  A    between atoms: C3_3  and  C4_4
REMARK    3  A    between atoms: C4_4  and  N1_5
REMARK    4  A    between atoms: C4_4  and  C9_15
REMARK    5  A    between atoms: N1_5  and  C5_7
ROOT
HETATM    1  C4  UNL     1       5.915   3.365  30.184  1.00  0.00     0.088 C
ENDROOT
BRANCH   1   2
HETATM    2  C3  UNL     1       7.061   3.795  29.374  1.00  0.00     0.025 C
BRANCH   2   3
HETATM    3  C2  UNL     1       7.729   2.730  28.578  1.00  0.00    -0.002 C
HETATM    4  C1  UNL     1       9.093   2.339  29.153  1.00  0.00     0.005 C
ENDBRANCH   2   3
ENDBRANCH   1   2
BRANCH   1   5
HETATM    5  N1  UNL     1       5.914   3.935  31.484  1.00  0.00    -0.357 N
ATOM      6  H1  UNL     1       6.717   3.672  32.054  1.00  0.00     0.163 HD
BRANCH   5   7
HETATM    7  C5  UNL     1       5.006   4.795  32.130  1.00  0.00     0.171 C
HETATM    8  N2  UNL     1       3.807   5.009  31.623  1.00  0.00    -0.360 N
HETATM    9  C6  UNL     1       3.064   5.914  32.447  1.00  0.00     0.147 C
ATOM     10  H2  UNL     1       3.458   4.587  30.763  1.00  0.00     0.162 HD
HETATM   11  C7  UNL     1       4.140   6.623  33.285  1.00  0.00     0.098 C
HETATM   12  C8  UNL     1       3.521   6.856  34.643  1.00  0.00     0.034 C
HETATM   13  N3  UNL     1       5.133   5.571  33.310  1.00  0.00    -0.357 N
ATOM     14  H3  UNL     1       5.813   5.414  34.053  1.00  0.00     0.163 HD
ENDBRANCH   5   7
ENDBRANCH   1   5
BRANCH   1  15
HETATM   15  C9  UNL     1       5.839   1.844  30.337  1.00  0.00     0.012 C
HETATM   16  C10 UNL     1       4.673   1.255  29.620  1.00  0.00     0.007 C
HETATM   17  C11 UNL     1       3.341   1.728  30.147  1.00  0.00     0.000 C
HETATM   18  C12 UNL     1       3.266   1.370  31.602  1.00  0.00     0.000 C
HETATM   19  C13 UNL     1       4.505   0.723  32.131  1.00  0.00     0.005 C
HETATM   20  C14 UNL     1       5.769   1.460  31.798  1.00  0.00    -0.013 C
HETATM   21  C15 UNL     1       6.942   0.600  32.220  1.00  0.00     0.010 C
ENDBRANCH   1  15
TORSDOF 5
ENDMDL