MODEL 4
REMARK VINA RESULT: -6.769944053      0.348      1.225
REMARK  5 active torsions:
REMARK  status: ('A' for Active; 'I' for Inactive)
REMARK    1  A    between atoms: C2_2  and  C3_3
REMARK    2  A    between atoms: C2_2  and  C9_9
REMARK    3  A    between atoms: C10_12  and  O1_13
REMARK    4  A    between atoms: C11_15  and  C12_16
REMARK    5  A    between atoms: C12_16  and  C14_18
ROOT
HETATM    1  C9  UNL     1       4.523   2.899  30.270  1.00  0.00     0.132 C
HETATM    2  N1  UNL     1       3.949   2.020  29.244  1.00  0.00    -0.136 NA
HETATM    3  N2  UNL     1       3.219   1.075  29.998  1.00  0.00    -0.115 NA
HETATM    4  C10 UNL     1       2.470   1.877  30.961  1.00  0.00     0.233 C
HETATM    5  C11 UNL     1       3.350   3.085  31.161  1.00  0.00     0.060 C
ENDROOT
BRANCH   1   6
HETATM    6  C2  UNL     1       5.648   2.264  30.986  1.00  0.00    -0.064 C
HETATM    7  C1  UNL     1       5.465   1.647  32.122  1.00  0.00     0.016 C
BRANCH   6   8
HETATM    8  C3  UNL     1       7.036   2.255  30.417  1.00  0.00     0.015 C
HETATM    9  C4  UNL     1       7.138   2.645  28.993  1.00  0.00     0.009 C
HETATM   10  C5  UNL     1       8.636   2.835  28.701  1.00  0.00     0.001 C
HETATM   11  C6  UNL     1       9.344   1.542  28.909  1.00  0.00     0.000 C
HETATM   12  C7  UNL     1       9.212   1.032  30.327  1.00  0.00     0.001 C
HETATM   13  C8  UNL     1       7.770   1.027  30.790  1.00  0.00     0.009 C
ENDBRANCH   6   8
ENDBRANCH   1   6
BRANCH   5  14
HETATM   14  C12 UNL     1       2.496   4.283  30.735  1.00  0.00    -0.009 C
HETATM   15  C13 UNL     1       2.161   5.030  32.020  1.00  0.00     0.010 C
BRANCH  14  16
HETATM   16  C14 UNL     1       3.198   5.216  29.812  1.00  0.00     0.000 C
HETATM   17  C15 UNL     1       2.111   5.900  28.975  1.00  0.00     0.005 C
ENDBRANCH  14  16
ENDBRANCH   5  14
BRANCH   4  18
HETATM   18  O1  UNL     1       1.241   2.201  30.348  1.00  0.00    -0.378 OA
ATOM     19  H1  UNL     1       1.157   3.146  30.391  1.00  0.00     0.211 HD
ENDBRANCH   4  18
TORSDOF 5
ENDMDL