MODEL 3
REMARK VINA RESULT: -6.380285091      2.904      3.028
REMARK  7 active torsions:
REMARK  status: ('A' for Active; 'I' for Inactive)
REMARK    1  A    between atoms: C5_5  and  O1_6
REMARK    2  A    between atoms: C9_11  and  C10_12
REMARK    3  A    between atoms: C10_12  and  S1_13
REMARK    4  A    between atoms: S1_13  and  C11_14
REMARK    5  A    between atoms: C11_14  and  C12_15
REMARK    6  A    between atoms: C12_15  and  O2_16
REMARK    7  A    between atoms: N1_18  and  O3_20
ROOT
HETATM    1  C1  UNL     1       5.150   1.469  29.391  1.00  0.00     0.016 C
HETATM    2  C2  UNL     1       6.202   2.232  30.159  1.00  0.00    -0.034 C
HETATM    3  C3  UNL     1       6.947   3.216  29.298  1.00  0.00     0.012 C
HETATM    4  C4  UNL     1       8.418   2.919  29.485  1.00  0.00     0.033 C
HETATM    5  C5  UNL     1       8.466   1.474  29.875  1.00  0.00     0.123 C
HETATM    6  C6  UNL     1       7.215   1.245  30.679  1.00  0.00     0.023 C
HETATM    7  C7  UNL     1       7.404   1.607  32.114  1.00  0.00     0.008 C
HETATM    8  C8  UNL     1       6.037   2.155  32.564  1.00  0.00     0.007 C
HETATM    9  C9  UNL     1       5.615   2.934  31.366  1.00  0.00     0.003 C
ENDROOT
BRANCH   9  10
HETATM   10  C10 UNL     1       4.171   3.232  31.221  1.00  0.00     0.079 C
BRANCH  10  11
HETATM   11  S1  UNL     1       3.707   4.943  31.109  1.00  0.00    -0.161 SA
BRANCH  11  12
HETATM   12  C11 UNL     1       2.407   5.398  32.263  1.00  0.00     0.159 C
BRANCH  12  13
HETATM   13  C12 UNL     1       1.149   4.738  31.862  1.00  0.00     0.144 C
HETATM   14  N1  UNL     1       0.322   5.346  31.105  1.00  0.00    -0.250 N
ATOM     15  H1  UNL     1       0.536   6.289  30.779  1.00  0.00     0.196 HD
BRANCH  13  16
HETATM   16  O2  UNL     1       0.895   3.464  32.322  1.00  0.00    -0.348 OA
ATOM     17  H2  UNL     1       1.057   2.730  31.742  1.00  0.00     0.219 HD
ENDBRANCH  13  16
BRANCH  14  18
HETATM   18  O3  UNL     1      -0.867   4.739  30.718  1.00  0.00    -0.288 OA
ATOM     19  H3  UNL     1      -1.259   4.930  29.873  1.00  0.00     0.244 HD
ENDBRANCH  14  18
ENDBRANCH  12  13
ENDBRANCH  11  12
ENDBRANCH  10  11
ENDBRANCH   9  10
BRANCH   5  20
HETATM   20  O1  UNL     1       8.497   0.677  28.750  1.00  0.00    -0.395 OA
ATOM     21  H1  UNL     1       7.623   0.585  28.389  1.00  0.00     0.210 HD
ENDBRANCH   5  20
TORSDOF 7
ENDMDL