MODEL 3
REMARK VINA RESULT: -6.510824283      1.678      2.621
REMARK  6 active torsions:
REMARK  status: ('A' for Active; 'I' for Inactive)
REMARK    1  A    between atoms: C2_2  and  C3_3
REMARK    2  A    between atoms: C3_3  and  C4_4
REMARK    3  A    between atoms: C4_4  and  C5_5
REMARK    4  A    between atoms: C5_5  and  N1_6
REMARK    5  A    between atoms: N1_6  and  C6_8
REMARK    6  A    between atoms: C7_11  and  N3_12
ROOT
HETATM    1  C6  UNL     1       8.345   1.118  30.636  1.00  0.00     0.680 A
HETATM    2  N2  UNL     1       7.707   1.933  29.792  1.00  0.00    -0.176 N
ATOM      3  H2  UNL     1       6.838   2.357  30.119  1.00  0.00     0.186 HD
HETATM    4  C7  UNL     1       8.112   2.240  28.555  1.00  0.00     0.128 A
HETATM    5  C8  UNL     1       9.302   1.685  28.054  1.00  0.00     0.049 A
HETATM    6  C9  UNL     1       9.868   1.870  26.851  1.00  0.00    -0.032 A
HETATM    7  C10 UNL     1       9.285   2.760  25.764  1.00  0.00     0.050 C
HETATM    8  C11 UNL     1      11.043   1.212  26.596  1.00  0.00    -0.012 A
HETATM    9  C12 UNL     1      11.876   1.248  25.337  1.00  0.00     0.057 C
HETATM   10  S1  UNL     1      11.321   0.354  28.046  1.00  0.00    -0.075 SA
HETATM   11  C13 UNL     1       9.949   0.851  28.924  1.00  0.00     0.105 A
HETATM   12  N4  UNL     1       9.487   0.576  30.175  1.00  0.00    -0.184 N
ATOM     13  H4  UNL     1      10.018  -0.055  30.775  1.00  0.00     0.185 HD
ENDROOT
BRANCH   1  14
HETATM   14  N1  UNL     1       7.871   0.886  31.811  1.00  0.00    -0.226 N
ATOM     15  H1  UNL     1       8.082  -0.011  32.249  1.00  0.00     0.177 HD
BRANCH  14  16
HETATM   16  C5  UNL     1       7.056   1.830  32.540  1.00  0.00     0.138 C
BRANCH  16  17
HETATM   17  C4  UNL     1       5.903   1.086  33.145  1.00  0.00     0.020 C
BRANCH  17  18
HETATM   18  C3  UNL     1       4.823   0.830  32.145  1.00  0.00     0.001 C
BRANCH  18  19
HETATM   19  C2  UNL     1       4.477   2.101  31.421  1.00  0.00    -0.004 C
HETATM   20  C1  UNL     1       4.188   1.837  29.950  1.00  0.00     0.005 C
ENDBRANCH  18  19
ENDBRANCH  17  18
ENDBRANCH  16  17
ENDBRANCH  14  16
ENDBRANCH   1  14
BRANCH   4  21
HETATM   21  N3  UNL     1       7.375   3.046  27.874  1.00  0.00    -0.384 N
ATOM     22  H32 UNL     1       7.303   3.005  26.857  1.00  0.00     0.157 HD
ATOM     23  H31 UNL     1       6.849   3.751  28.390  1.00  0.00     0.157 HD
ENDBRANCH   4  21
TORSDOF 6
ENDMDL