MODEL 5
REMARK VINA RESULT: -6.408635939      3.126      7.583
REMARK  5 active torsions:
REMARK  status: ('A' for Active; 'I' for Inactive)
REMARK    1  A    between atoms: C2_2  and  C3_3
REMARK    2  A    between atoms: C3_3  and  C4_4
REMARK    3  A    between atoms: C4_4  and  C5_5
REMARK    4  A    between atoms: C5_5  and  N1_6
REMARK    5  A    between atoms: N1_6  and  C6_8
ROOT
HETATM    1  C6  UNL     1       5.477   2.383  30.072  1.00  0.00     0.146 A
HETATM    2  N2  UNL     1       4.577   1.523  30.570  1.00  0.00    -0.323 N
ATOM      3  H2  UNL     1       4.925   0.597  30.816  1.00  0.00     0.169 HD
HETATM    4  C7  UNL     1       3.293   1.740  30.777  1.00  0.00     0.108 A
HETATM    5  N3  UNL     1       2.633   0.717  31.284  1.00  0.00    -0.385 N
ATOM      6  H31 UNL     1       1.639   0.885  31.445  1.00  0.00     0.157 HD
ATOM      7  H32 UNL     1       3.166  -0.133  31.464  1.00  0.00     0.157 HD
HETATM    8  C8  UNL     1       2.570   2.891  30.534  1.00  0.00    -0.001 A
HETATM    9  C9  UNL     1       3.145   4.026  30.013  1.00  0.00    -0.004 A
HETATM   10  S1  UNL     1       4.813   3.903  29.688  1.00  0.00    -0.058 SA
HETATM   11  C10 UNL     1       2.392   5.295  29.740  1.00  0.00     0.047 C
HETATM   12  C11 UNL     1       1.188   5.287  30.648  1.00  0.00     0.005 C
HETATM   13  C12 UNL     1       0.355   4.028  30.405  1.00  0.00     0.005 C
HETATM   14  C13 UNL     1       1.092   2.832  30.874  1.00  0.00     0.043 C
ENDROOT
BRANCH   1  15
HETATM   15  N1  UNL     1       6.734   2.104  29.893  1.00  0.00    -0.370 N
ATOM     16  H1  UNL     1       7.193   1.450  30.526  1.00  0.00     0.161 HD
BRANCH  15  17
HETATM   17  C5  UNL     1       7.480   2.685  28.841  1.00  0.00     0.121 C
BRANCH  17  18
HETATM   18  C4  UNL     1       8.967   2.421  29.107  1.00  0.00     0.020 C
BRANCH  18  19
HETATM   19  C3  UNL     1       9.124   1.066  29.804  1.00  0.00     0.001 C
BRANCH  19  20
HETATM   20  C2  UNL     1       9.617   0.097  28.736  1.00  0.00    -0.004 C
HETATM   21  C1  UNL     1      10.435   0.835  27.691  1.00  0.00     0.005 C
ENDBRANCH  19  20
ENDBRANCH  18  19
ENDBRANCH  17  18
ENDBRANCH  15  17
ENDBRANCH   1  15
TORSDOF 5
ENDMDL