MODEL 3
REMARK VINA RESULT: -6.469757986      1.641      1.924
REMARK  4 active torsions:
REMARK  status: ('A' for Active; 'I' for Inactive)
REMARK    1  A    between atoms: C2_2  and  C3_3
REMARK    2  A    between atoms: C3_3  and  C4_4
REMARK    3  A    between atoms: C4_4  and  N1_6
REMARK    4  A    between atoms: N2_15  and  N3_17
REMARK       I    between atoms: N3_17  and  C13_19
ROOT
HETATM    1  C3  UNL     1       1.201   4.677  32.134  1.00  0.00     0.078 C
ENDROOT
BRANCH   1   2
HETATM    2  C2  UNL     1       1.783   6.029  32.104  1.00  0.00     0.002 C
HETATM    3  C1  UNL     1       1.850   6.881  33.309  1.00  0.00     0.065 C
HETATM    4  N2  UNL     1       2.263   6.519  31.009  1.00  0.00    -0.307 N
ATOM      5  H2  UNL     1       2.227   5.945  30.166  1.00  0.00     0.186 HD
BRANCH   4   6
HETATM    6  N3  UNL     1       2.823   7.780  30.920  1.00  0.00    -0.274 N
HETATM    7  C13 UNL     1       4.196   7.973  30.656  1.00  0.00     0.200 C
HETATM    8  N4  UNL     1       4.604   8.903  29.862  1.00  0.00    -0.372 N
HETATM    9  N5  UNL     1       5.160   7.139  31.269  1.00  0.00    -0.062 NA
ATOM     10  H42 UNL     1       3.909   9.505  29.420  1.00  0.00     0.158 HD
ATOM     11  H41 UNL     1       5.597   9.042  29.671  1.00  0.00     0.158 HD
ATOM     12  H3  UNL     1       2.225   8.597  31.048  1.00  0.00     0.189 HD
ENDBRANCH   4   6
ENDBRANCH   1   2
BRANCH   1  13
HETATM   13  C4  UNL     1       1.466   3.951  30.823  1.00  0.00     0.082 C
HETATM   14  C5  UNL     1       0.217   3.913  29.974  1.00  0.00     0.032 C
BRANCH  13  15
HETATM   15  N1  UNL     1       1.928   2.632  31.152  1.00  0.00    -0.392 N
HETATM   16  C6  UNL     1       3.070   2.219  30.780  1.00  0.00    -0.018 C
HETATM   17  C7  UNL     1       3.898   3.156  29.996  1.00  0.00     0.052 C
HETATM   18  C12 UNL     1       3.405   0.842  31.194  1.00  0.00     0.052 C
HETATM   19  C8  UNL     1       4.982   2.417  29.304  1.00  0.00     0.006 C
HETATM   20  C9  UNL     1       5.922   1.677  30.172  1.00  0.00     0.000 C
HETATM   21  C10 UNL     1       5.683   1.795  31.636  1.00  0.00     0.000 C
HETATM   22  C11 UNL     1       4.572   0.923  32.153  1.00  0.00     0.006 C
ATOM     23  H1  UNL     1       1.326   2.014  31.696  1.00  0.00     0.159 HD
ENDBRANCH  13  15
ENDBRANCH   1  13
TORSDOF 4
ENDMDL