MODEL 5
REMARK VINA RESULT: -6.099400187      3.610      4.784
REMARK  6 active torsions:
REMARK  status: ('A' for Active; 'I' for Inactive)
REMARK    1  A    between atoms: O1_2  and  C2_3
REMARK    2  A    between atoms: C2_3  and  C3_5
REMARK    3  A    between atoms: C3_5  and  N1_7
REMARK       I    between atoms: N1_7  and  C5_9
REMARK    4  A    between atoms: C5_9  and  O4_11
REMARK    5  A    between atoms: O4_11  and  C6_12
REMARK    6  A    between atoms: C6_12  and  C7_13
ROOT
HETATM    1  O4  UNL     1      -1.581  -5.863  17.800  1.00  0.00    -0.298 OA
ENDROOT
BRANCH   1   2
HETATM    2  C5  UNL     1      -2.468  -6.055  16.676  1.00  0.00     0.361 C
HETATM    3  N1  UNL     1      -3.377  -5.039  16.267  1.00  0.00    -0.323 N
ATOM      4  H1  UNL     1      -3.410  -4.135  16.738  1.00  0.00     0.165 HD
HETATM    5  O3  UNL     1      -2.333  -7.151  16.150  1.00  0.00    -0.238 OA
BRANCH   3   6
HETATM    6  C3  UNL     1      -4.264  -5.349  15.138  1.00  0.00     0.182 C
HETATM    7  C4  UNL     1      -5.680  -5.621  15.474  1.00  0.00     0.043 C
BRANCH   6   8
HETATM    8  C2  UNL     1      -4.149  -4.110  14.273  1.00  0.00     0.281 C
HETATM    9  O2  UNL     1      -3.153  -4.046  13.468  1.00  0.00    -0.263 OA
BRANCH   8  10
HETATM   10  O1  UNL     1      -5.061  -3.086  14.376  1.00  0.00    -0.325 OA
HETATM   11  C1  UNL     1      -5.750  -2.490  13.335  1.00  0.00     0.213 C
ENDBRANCH   8  10
ENDBRANCH   6   8
ENDBRANCH   3   6
ENDBRANCH   1   2
BRANCH   1  12
HETATM   12  C6  UNL     1      -2.341  -5.491  18.936  1.00  0.00     0.240 C
BRANCH  12  13
HETATM   13  C7  UNL     1      -1.646  -5.504  20.233  1.00  0.00     0.069 A
HETATM   14  N2  UNL     1      -1.142  -4.526  21.018  1.00  0.00    -0.345 N
HETATM   15  C8  UNL     1      -0.618  -5.084  22.159  1.00  0.00     0.080 A
ATOM     16  H2  UNL     1      -1.149  -3.530  20.797  1.00  0.00     0.167 HD
HETATM   17  C9  UNL     1       0.025  -4.325  23.264  1.00  0.00     0.089 C
HETATM   18  N3  UNL     1      -0.787  -6.399  22.081  1.00  0.00    -0.334 N
HETATM   19  C10 UNL     1      -0.318  -7.416  23.017  1.00  0.00     0.158 C
HETATM   20  C11 UNL     1      -1.397  -6.672  20.949  1.00  0.00     0.107 A
HETATM   21 BR1  UNL     1      -1.888  -8.393  20.270  1.00  0.00    -0.029 Br
ENDBRANCH  12  13
ENDBRANCH   1  12
TORSDOF 6
ENDMDL