MODEL 4
REMARK VINA RESULT: -6.555096565      3.610      5.751
REMARK  4 active torsions:
REMARK  status: ('A' for Active; 'I' for Inactive)
REMARK    1  A    between atoms: C2_2  and  O1_3
REMARK    2  A    between atoms: O1_3  and  C3_4
REMARK    3  A    between atoms: C4_5  and  O2_6
REMARK    4  A    between atoms: C14_18  and  O4_20
ROOT
HETATM    1  C3  UNL     1      -2.355  -6.010  17.681  1.00  0.00     0.174 C
HETATM    2  C4  UNL     1      -3.043  -4.983  18.147  1.00  0.00     0.088 C
HETATM    3  C6  UNL     1      -3.425  -4.795  19.562  1.00  0.00     0.110 C
HETATM    4  C7  UNL     1      -2.701  -5.681  20.519  1.00  0.00     0.116 C
HETATM    5  C8  UNL     1      -3.640  -5.997  21.664  1.00  0.00     0.121 C
HETATM    6  C9  UNL     1      -2.937  -6.543  22.837  1.00  0.00     0.140 C
HETATM    7  O3  UNL     1      -3.604  -7.203  23.633  1.00  0.00    -0.297 OA
HETATM    8  C10 UNL     1      -1.510  -6.366  23.135  1.00  0.00     0.047 C
HETATM    9  C11 UNL     1      -0.962  -7.749  23.518  1.00  0.00     0.026 C
HETATM   10  C12 UNL     1      -1.307  -5.503  24.388  1.00  0.00     0.026 C
HETATM   11  C13 UNL     1      -0.696  -5.850  22.003  1.00  0.00     0.222 C
HETATM   12  F1  UNL     1       0.396  -5.136  22.447  1.00  0.00    -0.245 F
HETATM   13  C14 UNL     1      -1.460  -4.976  21.043  1.00  0.00     0.118 C
HETATM   14  C15 UNL     1      -1.836  -3.654  21.619  1.00  0.00     0.052 C
HETATM   15  O5  UNL     1      -2.277  -6.894  19.946  1.00  0.00    -0.300 OA
HETATM   16  C16 UNL     1      -1.933  -7.044  18.614  1.00  0.00     0.320 C
HETATM   17  O6  UNL     1      -1.269  -8.044  18.190  1.00  0.00    -0.257 OA
ENDROOT
BRANCH  13  18
HETATM   18  O4  UNL     1      -0.627  -4.765  19.935  1.00  0.00    -0.384 OA
ATOM     19  H4  UNL     1      -1.083  -4.153  19.370  1.00  0.00     0.210 HD
ENDBRANCH  13  18
BRANCH   2  20
HETATM   20  O2  UNL     1      -3.451  -3.989  17.261  1.00  0.00    -0.357 OA
HETATM   21  C5  UNL     1      -4.006  -2.766  17.668  1.00  0.00     0.209 C
ENDBRANCH   2  20
BRANCH   1  22
HETATM   22  O1  UNL     1      -2.043  -6.098  16.328  1.00  0.00    -0.344 OA
BRANCH  22  23
HETATM   23  C2  UNL     1      -2.835  -6.859  15.430  1.00  0.00     0.171 C
HETATM   24  C1  UNL     1      -2.200  -6.855  14.066  1.00  0.00     0.034 C
ENDBRANCH  22  23
ENDBRANCH   1  22
TORSDOF 4
ENDMDL