MODEL 5
REMARK VINA RESULT: -6.908133448      4.583      5.426
REMARK  7 active torsions:
REMARK  status: ('A' for Active; 'I' for Inactive)
REMARK    1  A    between atoms: C2_2  and  O1_4
REMARK    2  A    between atoms: C2_2  and  C4_6
REMARK    3  A    between atoms: C4_6  and  O2_9
REMARK    4  A    between atoms: O2_9  and  C6_10
REMARK    5  A    between atoms: C6_10  and  C7_12
REMARK    6  A    between atoms: C10_15  and  N2_16
REMARK    7  A    between atoms: N2_16  and  S1_18
ROOT
HETATM    1  C4  UNL     1      -2.119  -1.900  24.455  1.00  0.00     0.271 C
HETATM    2  C5  UNL     1      -0.971  -1.191  25.014  1.00  0.00     0.095 C
HETATM    3  N1  UNL     1      -0.075  -0.613  25.458  1.00  0.00    -0.194 NA
ENDROOT
BRANCH   1   4
HETATM    4  C2  UNL     1      -3.373  -1.521  25.239  1.00  0.00     0.090 C
HETATM    5  C1  UNL     1      -3.846  -0.194  24.685  1.00  0.00     0.049 C
HETATM    6  C3  UNL     1      -4.445  -2.571  25.101  1.00  0.00     0.049 C
BRANCH   4   7
HETATM    7  O1  UNL     1      -3.059  -1.398  26.585  1.00  0.00    -0.387 OA
ATOM      8  H1  UNL     1      -2.662  -2.199  26.906  1.00  0.00     0.210 HD
ENDBRANCH   4   7
ENDBRANCH   1   4
BRANCH   1   9
HETATM    9  O2  UNL     1      -2.274  -1.713  23.086  1.00  0.00    -0.294 OA
BRANCH   9  10
HETATM   10  C6  UNL     1      -2.153  -2.774  22.204  1.00  0.00     0.294 C
HETATM   11  O3  UNL     1      -1.508  -3.776  22.610  1.00  0.00    -0.259 OA
BRANCH  10  12
HETATM   12  C7  UNL     1      -2.755  -2.722  20.856  1.00  0.00     0.041 A
HETATM   13  C8  UNL     1      -3.175  -1.546  20.328  1.00  0.00     0.020 A
HETATM   14  C9  UNL     1      -3.741  -1.539  19.047  1.00  0.00     0.033 A
HETATM   15  C10 UNL     1      -3.869  -2.695  18.336  1.00  0.00     0.064 A
HETATM   16  C12 UNL     1      -3.427  -3.897  18.903  1.00  0.00     0.062 A
HETATM   17 CL1  UNL     1      -3.611  -5.343  17.959  1.00  0.00    -0.082 Cl
HETATM   18  C13 UNL     1      -2.874  -3.887  20.162  1.00  0.00     0.044 A
BRANCH  15  19
HETATM   19  N2  UNL     1      -4.443  -2.695  17.027  1.00  0.00    -0.283 N
ATOM     20  H2  UNL     1      -3.845  -2.708  16.201  1.00  0.00     0.178 HD
BRANCH  19  21
HETATM   21  S1  UNL     1      -6.153  -2.671  16.861  1.00  0.00     0.227 S
HETATM   22  C11 UNL     1      -6.911  -4.119  17.531  1.00  0.00     0.186 C
HETATM   23  O4  UNL     1      -6.748  -1.417  17.450  1.00  0.00    -0.206 OA
HETATM   24  O5  UNL     1      -6.473  -2.647  15.378  1.00  0.00    -0.206 OA
ENDBRANCH  19  21
ENDBRANCH  15  19
ENDBRANCH  10  12
ENDBRANCH   9  10
ENDBRANCH   1   9
TORSDOF 7
ENDMDL