MODEL 2
REMARK VINA RESULT: -6.837299448      8.938     10.381
REMARK  5 active torsions:
REMARK  status: ('A' for Active; 'I' for Inactive)
REMARK    1  A    between atoms: C2_2  and  O1_3
REMARK    2  A    between atoms: O1_3  and  C3_4
REMARK    3  A    between atoms: C3_4  and  C4_6
REMARK    4  A    between atoms: C5_7  and  N1_8
REMARK       I    between atoms: N1_8  and  C6_10
REMARK    5  A    between atoms: C6_10  and  C7_12
ROOT
HETATM    1  C4  UNL     1      -1.927  -2.921  24.593  1.00  0.00     0.109 A
HETATM    2  C5  UNL     1      -0.683  -3.513  24.538  1.00  0.00     0.077 A
HETATM    3  C11 UNL     1       0.247  -2.484  24.584  1.00  0.00     0.174 A
HETATM    4  O5  UNL     1      -0.401  -1.325  24.663  1.00  0.00    -0.312 OA
HETATM    5  C12 UNL     1      -1.681  -1.558  24.670  1.00  0.00     0.139 A
HETATM    6 BR1  UNL     1      -3.109  -0.275  24.769  1.00  0.00    -0.022 Br
ENDROOT
BRANCH   2   7
HETATM    7  N1  UNL     1      -0.447  -4.903  24.452  1.00  0.00    -0.322 N
HETATM    8  C6  UNL     1      -0.360  -5.555  23.198  1.00  0.00     0.251 C
HETATM    9  O3  UNL     1      -0.475  -5.007  22.077  1.00  0.00    -0.270 OA
ATOM     10  H1  UNL     1      -0.337  -5.447  25.308  1.00  0.00     0.169 HD
BRANCH   8  11
HETATM   11  C7  UNL     1      -0.107  -7.038  23.142  1.00  0.00     0.213 C
HETATM   12  C8  UNL     1      -0.829  -7.536  21.909  1.00  0.00     0.044 C
HETATM   13  C9  UNL     1      -2.158  -7.998  22.466  1.00  0.00     0.029 C
HETATM   14  C10 UNL     1      -1.995  -7.911  23.946  1.00  0.00     0.168 C
HETATM   15  O4  UNL     1      -0.671  -7.634  24.226  1.00  0.00    -0.376 OA
ENDBRANCH   8  11
ENDBRANCH   2   7
BRANCH   1  16
HETATM   16  C3  UNL     1      -3.224  -3.574  24.577  1.00  0.00     0.299 C
HETATM   17  O2  UNL     1      -4.045  -3.601  25.519  1.00  0.00    -0.259 OA
BRANCH  16  18
HETATM   18  O1  UNL     1      -3.661  -4.260  23.424  1.00  0.00    -0.318 OA
BRANCH  18  19
HETATM   19  C2  UNL     1      -3.709  -3.633  22.155  1.00  0.00     0.174 C
HETATM   20  C1  UNL     1      -4.819  -2.584  22.178  1.00  0.00     0.034 C
ENDBRANCH  18  19
ENDBRANCH  16  18
ENDBRANCH   1  16
TORSDOF 5
ENDMDL