MODEL 4
REMARK VINA RESULT: -7.852154428      4.240      6.040
REMARK  4 active torsions:
REMARK  status: ('A' for Active; 'I' for Inactive)
REMARK       I    between atoms: C1_2  and  N1_3
REMARK    1  A    between atoms: C1_2  and  C12_23
REMARK    2  A    between atoms: N1_3  and  C2_5
REMARK    3  A    between atoms: C5_8  and  N2_9
REMARK    4  A    between atoms: C6_14  and  C7_15
ROOT
HETATM    1  C2  UNL     1      -5.396  -2.676  18.215  1.00  0.00     0.086 C
HETATM    2  C3  UNL     1      -4.949  -1.317  18.684  1.00  0.00     0.027 C
HETATM    3  C4  UNL     1      -3.543  -1.486  19.203  1.00  0.00     0.031 C
HETATM    4  C5  UNL     1      -3.274  -2.955  19.249  1.00  0.00     0.130 C
HETATM    5  C11 UNL     1      -4.617  -3.636  19.084  1.00  0.00     0.054 C
ENDROOT
BRANCH   4   6
HETATM    6  N2  UNL     1      -2.735  -3.389  20.526  1.00  0.00    -0.213 N
HETATM    7  N3  UNL     1      -2.018  -2.616  21.308  1.00  0.00    -0.224 N
HETATM    8  N4  UNL     1      -1.674  -3.287  22.393  1.00  0.00    -0.272 N
ATOM      9  H3  UNL     1      -1.765  -1.649  21.108  1.00  0.00     0.210 HD
HETATM   10  C6  UNL     1      -2.193  -4.520  22.287  1.00  0.00     0.117 A
ATOM     11  H4  UNL     1      -1.117  -2.932  23.170  1.00  0.00     0.190 HD
HETATM   12  N5  UNL     1      -2.849  -4.563  21.121  1.00  0.00    -0.269 N
ATOM     13  H5  UNL     1      -3.353  -5.370  20.752  1.00  0.00     0.190 HD
BRANCH  10  14
HETATM   14  C7  UNL     1      -2.049  -5.617  23.300  1.00  0.00     0.061 C
HETATM   15  C8  UNL     1      -1.594  -6.913  22.672  1.00  0.00     0.049 C
HETATM   16  C9  UNL     1      -0.500  -6.981  23.742  1.00  0.00     0.171 C
HETATM   17  F1  UNL     1      -0.873  -7.806  24.803  1.00  0.00    -0.249 F
HETATM   18  C10 UNL     1      -0.743  -5.501  24.045  1.00  0.00     0.049 C
ENDBRANCH  10  14
ENDBRANCH   4   6
BRANCH   1  19
HETATM   19  N1  UNL     1      -5.014  -2.928  16.836  1.00  0.00    -0.356 N
HETATM   20  C1  UNL     1      -5.966  -2.975  15.782  1.00  0.00     0.222 C
HETATM   21  O1  UNL     1      -7.172  -2.787  16.087  1.00  0.00    -0.273 OA
ATOM     22  H1  UNL     1      -4.029  -3.077  16.616  1.00  0.00     0.162 HD
BRANCH  20  23
HETATM   23  C12 UNL     1      -5.546  -3.233  14.391  1.00  0.00     0.082 C
HETATM   24  C13 UNL     1      -6.160  -2.276  13.412  1.00  0.00     0.040 C
HETATM   25  C14 UNL     1      -5.798  -2.731  12.021  1.00  0.00     0.168 C
HETATM   26  O2  UNL     1      -4.441  -2.924  11.851  1.00  0.00    -0.391 OA
HETATM   27  C15 UNL     1      -3.684  -2.467  12.919  1.00  0.00     0.168 C
HETATM   28  C16 UNL     1      -4.044  -3.163  14.220  1.00  0.00     0.040 C
ENDBRANCH  20  23
ENDBRANCH   1  19
TORSDOF 4
ENDMDL