MODEL 5
REMARK VINA RESULT: -7.075842542      3.391      5.742
REMARK  6 active torsions:
REMARK  status: ('A' for Active; 'I' for Inactive)
REMARK    1  A    between atoms: C1_2  and  C2_3
REMARK       I    between atoms: C1_2  and  N2_16
REMARK    2  A    between atoms: C2_3  and  O2_4
REMARK    3  A    between atoms: O2_4  and  C3_5
REMARK    4  A    between atoms: C3_5  and  C4_7
REMARK    5  A    between atoms: C7_10  and  N1_11
REMARK    6  A    between atoms: N2_16  and  C10_18
ROOT
HETATM    1  C2  UNL     1      -3.169  -0.250  25.045  1.00  0.00     0.282 C
ENDROOT
BRANCH   1   2
HETATM    2  C1  UNL     1      -4.129   0.220  24.031  1.00  0.00     0.247 C
HETATM    3  O1  UNL     1      -4.300   1.454  23.890  1.00  0.00    -0.271 OA
HETATM    4  N2  UNL     1      -4.882  -0.633  23.195  1.00  0.00    -0.305 N
ATOM      5  H2  UNL     1      -5.747  -1.068  23.516  1.00  0.00     0.171 HD
BRANCH   4   6
HETATM    6  C10 UNL     1      -4.415  -0.839  21.984  1.00  0.00     0.153 A
HETATM    7  N3  UNL     1      -3.449  -0.192  21.329  1.00  0.00    -0.343 N
HETATM    8  C11 UNL     1      -3.150  -0.574  20.121  1.00  0.00     0.140 A
ATOM      9  H3  UNL     1      -2.956   0.586  21.765  1.00  0.00     0.167 HD
HETATM   10  C12 UNL     1      -3.837  -1.621  19.581  1.00  0.00     0.176 A
HETATM   11  F1  UNL     1      -3.669  -2.169  18.328  1.00  0.00    -0.197 F
HETATM   12  S1  UNL     1      -4.910  -2.031  20.843  1.00  0.00    -0.022 SA
ENDBRANCH   4   6
ENDBRANCH   1   2
BRANCH   1  13
HETATM   13  O2  UNL     1      -2.782  -1.576  24.826  1.00  0.00    -0.308 OA
BRANCH  13  14
HETATM   14  C3  UNL     1      -1.528  -1.932  24.407  1.00  0.00     0.293 C
HETATM   15  O3  UNL     1      -0.548  -1.203  24.691  1.00  0.00    -0.259 OA
BRANCH  14  16
HETATM   16  C4  UNL     1      -1.288  -3.165  23.622  1.00  0.00     0.039 A
HETATM   17  C5  UNL     1      -0.671  -4.249  24.176  1.00  0.00     0.020 A
HETATM   18  C6  UNL     1      -0.462  -5.380  23.423  1.00  0.00     0.037 A
HETATM   19  C7  UNL     1      -0.853  -5.477  22.106  1.00  0.00     0.102 A
HETATM   20  C8  UNL     1      -1.475  -4.373  21.558  1.00  0.00     0.037 A
HETATM   21  C9  UNL     1      -1.688  -3.238  22.309  1.00  0.00     0.020 A
BRANCH  19  22
HETATM   22  N1  UNL     1      -0.622  -6.661  21.354  1.00  0.00    -0.116 N
HETATM   23  O4  UNL     1      -0.166  -7.675  21.896  1.00  0.00    -0.532 OA
HETATM   24  O5  UNL     1      -0.908  -6.675  20.029  1.00  0.00    -0.532 OA
ENDBRANCH  19  22
ENDBRANCH  14  16
ENDBRANCH  13  14
ENDBRANCH   1  13
TORSDOF 6
ENDMDL