MODEL 1
REMARK VINA RESULT: -6.932328357      0.000      0.000
REMARK  7 active torsions:
REMARK  status: ('A' for Active; 'I' for Inactive)
REMARK    1  A    between atoms: N1_2  and  N2_4
REMARK    2  A    between atoms: N2_4  and  C2_6
REMARK    3  A    between atoms: C3_7  and  O1_8
REMARK    4  A    between atoms: C6_11  and  O2_12
REMARK    5  A    between atoms: C8_14  and  C9_15
REMARK    6  A    between atoms: C9_15  and  O3_16
REMARK    7  A    between atoms: C9_15  and  N3_18
ROOT
HETATM    1  C2  UNL     1      -1.847  -1.926  24.480  1.00  0.00     0.121 A
HETATM    2  C3  UNL     1      -2.561  -1.077  23.686  1.00  0.00     0.102 A
HETATM    3  C5  UNL     1      -2.787  -1.439  22.393  1.00  0.00     0.077 A
HETATM    4  C6  UNL     1      -2.308  -2.629  21.889  1.00  0.00     0.088 A
HETATM    5  C8  UNL     1      -1.563  -3.536  22.666  1.00  0.00     0.089 A
HETATM    6  C16 UNL     1      -1.360  -3.142  23.961  1.00  0.00     0.164 A
HETATM    7  F1  UNL     1      -0.765  -3.967  24.834  1.00  0.00    -0.202 F
ENDROOT
BRANCH   5   8
HETATM    8  C9  UNL     1      -1.230  -4.782  22.050  1.00  0.00     0.154 C
BRANCH   8   9
HETATM    9  O3  UNL     1      -0.157  -4.763  21.277  1.00  0.00    -0.345 OA
ATOM     10  H3  UNL     1       0.495  -5.426  21.469  1.00  0.00     0.219 HD
ENDBRANCH   8   9
BRANCH   8  11
HETATM   11  N3  UNL     1      -1.811  -6.056  22.102  1.00  0.00    -0.356 N
HETATM   12  C10 UNL     1      -2.272  -6.606  20.808  1.00  0.00     0.156 C
HETATM   13  C11 UNL     1      -1.508  -7.866  20.562  1.00  0.00     0.136 C
HETATM   14  C12 UNL     1      -1.899  -8.501  19.236  1.00  0.00     0.041 C
HETATM   15  O4  UNL     1      -1.875  -8.764  21.582  1.00  0.00    -0.378 OA
HETATM   16  C13 UNL     1      -1.414  -8.370  22.791  1.00  0.00     0.136 C
HETATM   17  C14 UNL     1      -1.818  -9.340  23.862  1.00  0.00     0.041 C
HETATM   18  C15 UNL     1      -1.891  -6.969  23.190  1.00  0.00     0.156 C
ENDBRANCH   8  11
ENDBRANCH   5   8
BRANCH   4  19
HETATM   19  O2  UNL     1      -2.557  -2.976  20.555  1.00  0.00    -0.355 OA
HETATM   20  C7  UNL     1      -3.452  -2.237  19.756  1.00  0.00     0.210 C
ENDBRANCH   4  19
BRANCH   1  21
HETATM   21  N2  UNL     1      -1.613  -1.602  25.829  1.00  0.00    -0.296 N
ATOM     22  H2  UNL     1      -2.010  -2.218  26.538  1.00  0.00     0.187 HD
BRANCH  21  23
HETATM   23  N1  UNL     1      -0.873  -0.495  26.271  1.00  0.00    -0.321 N
HETATM   24  C1  UNL     1       0.352  -0.320  25.896  1.00  0.00     0.139 C
ATOM     25  H1  UNL     1      -1.308   0.182  26.898  1.00  0.00     0.185 HD
ENDBRANCH  21  23
ENDBRANCH   1  21
BRANCH   2  26
HETATM   26  O1  UNL     1      -3.030   0.124  24.228  1.00  0.00    -0.353 OA
HETATM   27  C4  UNL     1      -4.326   0.542  23.906  1.00  0.00     0.210 C
ENDBRANCH   2  26
TORSDOF 7
ENDMDL