MODEL 1
REMARK VINA RESULT: -6.427045155      0.000      0.000
REMARK  7 active torsions:
REMARK  status: ('A' for Active; 'I' for Inactive)
REMARK    1  A    between atoms: C2_2  and  C3_3
REMARK    2  A    between atoms: C3_3  and  O1_4
REMARK    3  A    between atoms: O1_4  and  C4_5
REMARK    4  A    between atoms: C4_5  and  O3_7
REMARK    5  A    between atoms: O3_7  and  C5_8
REMARK    6  A    between atoms: C8_11  and  C9_12
REMARK    7  A    between atoms: C12_18  and  N2_19
ROOT
HETATM    1  C5  UNL     1      -3.611  -5.569  14.742  1.00  0.00     0.216 C
HETATM    2  C6  UNL     1      -3.221  -5.473  16.168  1.00  0.00     0.045 A
HETATM    3  C7  UNL     1      -2.279  -5.974  17.042  1.00  0.00     0.045 A
HETATM    4  C8  UNL     1      -2.528  -5.422  18.285  1.00  0.00     0.038 A
HETATM    5  C10 UNL     1      -3.624  -4.604  18.098  1.00  0.00     0.095 A
HETATM    6 BR1  UNL     1      -4.410  -3.573  19.525  1.00  0.00    -0.030 Br
HETATM    7  N1  UNL     1      -4.020  -4.651  16.831  1.00  0.00    -0.339 N
HETATM    8  C11 UNL     1      -5.044  -4.083  15.961  1.00  0.00     0.165 C
HETATM    9  C12 UNL     1      -4.568  -4.410  14.566  1.00  0.00     0.237 C
ENDROOT
BRANCH   1  10
HETATM   10  O3  UNL     1      -2.502  -5.487  13.868  1.00  0.00    -0.284 OA
BRANCH  10  11
HETATM   11  C4  UNL     1      -1.940  -6.627  13.288  1.00  0.00     0.407 C
HETATM   12  O2  UNL     1      -1.804  -7.650  14.017  1.00  0.00    -0.229 OA
BRANCH  11  13
HETATM   13  O1  UNL     1      -1.530  -6.704  11.984  1.00  0.00    -0.298 OA
BRANCH  13  14
HETATM   14  C3  UNL     1      -0.214  -6.307  11.572  1.00  0.00     0.180 C
BRANCH  14  15
HETATM   15  C2  UNL     1       0.374  -7.269  10.596  1.00  0.00     0.022 C
HETATM   16  C1  UNL     1       0.758  -8.525  11.334  1.00  0.00     0.007 C
ENDBRANCH  14  15
ENDBRANCH  13  14
ENDBRANCH  11  13
ENDBRANCH  10  11
ENDBRANCH   1  10
BRANCH   9  17
HETATM   17  N2  UNL     1      -3.841  -3.293  13.976  1.00  0.00    -0.071 N
ATOM     18  H23 UNL     1      -3.285  -2.783  14.661  1.00  0.00     0.274 HD
ATOM     19  H22 UNL     1      -3.077  -3.599  13.374  1.00  0.00     0.274 HD
ATOM     20  H21 UNL     1      -4.508  -2.693  13.489  1.00  0.00     0.274 HD
ENDBRANCH   9  17
BRANCH   4  21
HETATM   21  C9  UNL     1      -1.796  -5.649  19.536  1.00  0.00     0.272 C
HETATM   22  O4  UNL     1      -0.936  -6.559  19.569  1.00  0.00    -0.301 OA
ENDBRANCH   4  21
TORSDOF 7
ENDMDL