MODEL 2
REMARK VINA RESULT: -6.426988469      5.675      6.793
REMARK  7 active torsions:
REMARK  status: ('A' for Active; 'I' for Inactive)
REMARK    1  A    between atoms: C2_2  and  O1_5
REMARK    2  A    between atoms: O1_5  and  C5_6
REMARK    3  A    between atoms: C5_6  and  O3_8
REMARK    4  A    between atoms: O3_8  and  C6_9
REMARK    5  A    between atoms: C6_9  and  C7_10
REMARK    6  A    between atoms: C7_10  and  N1_11
REMARK       I    between atoms: N1_11  and  C8_13
REMARK    7  A    between atoms: C8_13  and  C9_15
ROOT
HETATM    1  C7  UNL     1      -2.191  -8.662  16.231  1.00  0.00     0.149 C
ENDROOT
BRANCH   1   2
HETATM    2  C6  UNL     1      -2.726  -7.732  15.174  1.00  0.00     0.200 C
BRANCH   2   3
HETATM    3  O3  UNL     1      -1.879  -7.784  14.059  1.00  0.00    -0.296 OA
BRANCH   3   4
HETATM    4  C5  UNL     1      -1.509  -6.766  13.244  1.00  0.00     0.407 C
HETATM    5  O2  UNL     1      -2.245  -5.778  13.112  1.00  0.00    -0.229 OA
BRANCH   4   6
HETATM    6  O1  UNL     1      -0.311  -6.743  12.509  1.00  0.00    -0.288 OA
BRANCH   6   7
HETATM    7  C2  UNL     1      -0.124  -7.466  11.337  1.00  0.00     0.062 C
HETATM    8  C1  UNL     1       0.986  -8.479  11.420  1.00  0.00     0.046 C
HETATM    9  C3  UNL     1      -1.381  -8.132  10.823  1.00  0.00     0.046 C
HETATM   10  C4  UNL     1       0.300  -6.452  10.263  1.00  0.00     0.046 C
ENDBRANCH   6   7
ENDBRANCH   4   6
ENDBRANCH   3   4
ENDBRANCH   2   3
ENDBRANCH   1   2
BRANCH   1  11
HETATM   11  N1  UNL     1      -1.838  -7.830  17.391  1.00  0.00    -0.353 N
HETATM   12  C8  UNL     1      -1.843  -8.409  18.675  1.00  0.00     0.275 C
HETATM   13  O4  UNL     1      -2.144  -9.613  18.820  1.00  0.00    -0.265 OA
ATOM     14  H1  UNL     1      -1.593  -6.847  17.268  1.00  0.00     0.162 HD
BRANCH  12  15
HETATM   15  C9  UNL     1      -1.499  -7.617  19.844  1.00  0.00     0.144 A
HETATM   16  C10 UNL     1      -1.475  -6.225  19.896  1.00  0.00     0.046 A
HETATM   17  C11 UNL     1      -1.103  -5.888  21.170  1.00  0.00     0.048 A
HETATM   18  C12 UNL     1      -0.915  -7.070  21.842  1.00  0.00     0.122 A
HETATM   19 BR1  UNL     1      -0.390  -7.225  23.649  1.00  0.00    -0.023 Br
HETATM   20  O5  UNL     1      -1.159  -8.048  21.019  1.00  0.00    -0.298 OA
ENDBRANCH  12  15
ENDBRANCH   1  11
TORSDOF 7
ENDMDL