MODEL 5
REMARK VINA RESULT: -6.571388242      4.458      4.977
REMARK  4 active torsions:
REMARK  status: ('A' for Active; 'I' for Inactive)
REMARK    1  A    between atoms: C3_3  and  O1_4
REMARK    2  A    between atoms: O1_4  and  N1_5
REMARK    3  A    between atoms: C4_7  and  C5_8
REMARK    4  A    between atoms: N2_10  and  C7_11
ROOT
HETATM    1  C1  UNL     1      -0.963  -7.576  12.167  1.00  0.00     0.014 C
HETATM    2  C2  UNL     1      -1.592  -7.067  13.058  1.00  0.00    -0.089 C
HETATM    3  C3  UNL     1      -2.333  -6.439  14.143  1.00  0.00     0.294 C
ENDROOT
BRANCH   3   4
HETATM    4  O1  UNL     1      -2.898  -5.218  13.697  1.00  0.00    -0.269 OA
BRANCH   4   5
HETATM    5  N1  UNL     1      -3.439  -4.290  14.513  1.00  0.00    -0.276 N
HETATM    6  C4  UNL     1      -3.775  -4.474  15.724  1.00  0.00     0.131 C
ATOM      7  H1  UNL     1      -3.591  -3.359  14.124  1.00  0.00     0.193 HD
BRANCH   6   8
HETATM    8  C5  UNL     1      -4.366  -3.394  16.553  1.00  0.00     0.057 A
HETATM    9  C6  UNL     1      -3.871  -3.005  17.743  1.00  0.00     0.124 A
HETATM   10  N2  UNL     1      -4.501  -2.022  18.381  1.00  0.00    -0.274 N
HETATM   11  S1  UNL     1      -5.774  -1.618  17.364  1.00  0.00     0.038 SA
HETATM   12  C11 UNL     1      -5.484  -2.731  16.109  1.00  0.00     0.242 A
HETATM   13  O2  UNL     1      -6.128  -2.925  15.014  1.00  0.00    -0.278 OA
BRANCH  10  14
HETATM   14  C7  UNL     1      -4.132  -1.457  19.669  1.00  0.00     0.119 A
HETATM   15  C8  UNL     1      -3.430  -2.122  20.651  1.00  0.00     0.070 A
HETATM   16  C9  UNL     1      -3.262  -1.282  21.731  1.00  0.00     0.030 A
HETATM   17 BR1  UNL     1      -2.369  -1.653  23.380  1.00  0.00    -0.050 Br
HETATM   18  C10 UNL     1      -3.880  -0.106  21.370  1.00  0.00     0.109 A
HETATM   19  N3  UNL     1      -4.389  -0.241  20.138  1.00  0.00    -0.350 N
ATOM     20  H3  UNL     1      -4.899   0.484  19.634  1.00  0.00     0.166 HD
ENDBRANCH  10  14
ENDBRANCH   6   8
ENDBRANCH   4   5
ENDBRANCH   3   4
TORSDOF 4
ENDMDL