MODEL 3
REMARK VINA RESULT: -7.576791890      1.744      2.186
REMARK  7 active torsions:
REMARK  status: ('A' for Active; 'I' for Inactive)
REMARK    1  A    between atoms: C4_4  and  C5_5
REMARK    2  A    between atoms: C5_5  and  C6_6
REMARK       I    between atoms: C6_6  and  N1_8
REMARK    3  A    between atoms: N1_8  and  C7_10
REMARK    4  A    between atoms: C12_18  and  S2_19
REMARK    5  A    between atoms: S2_19  and  C13_22
REMARK    6  A    between atoms: C13_22  and  C14_23
REMARK    7  A    between atoms: C14_23  and  C15_24
ROOT
HETATM    1  C1  UNL     1      28.030  13.009  37.385  1.00  0.00     0.015 C
HETATM    2  C2  UNL     1      27.388  12.624  38.460  1.00  0.00    -0.070 C
HETATM    3  C3  UNL     1      26.506  13.582  39.170  1.00  0.00     0.039 C
HETATM    4  C4  UNL     1      25.145  12.940  39.251  1.00  0.00    -0.002 C
HETATM    5  C10 UNL     1      25.135  11.501  39.613  1.00  0.00     0.007 C
HETATM    6  C11 UNL     1      26.120  10.640  38.863  1.00  0.00     0.025 C
HETATM    7  C12 UNL     1      27.491  11.274  39.004  1.00  0.00     0.136 C
ENDROOT
BRANCH   4   8
HETATM    8  C5  UNL     1      24.285  13.683  40.269  1.00  0.00     0.108 C
BRANCH   8   9
HETATM    9  C6  UNL     1      23.106  14.292  39.571  1.00  0.00     0.224 C
HETATM   10  O1  UNL     1      23.276  14.984  38.510  1.00  0.00    -0.273 OA
HETATM   11  N1  UNL     1      21.837  14.054  40.145  1.00  0.00    -0.307 N
ATOM     12  H1  UNL     1      21.455  13.111  40.219  1.00  0.00     0.171 HD
BRANCH  11  13
HETATM   13  C7  UNL     1      21.168  15.101  40.582  1.00  0.00     0.150 A
HETATM   14  N2  UNL     1      20.671  16.120  39.881  1.00  0.00    -0.346 N
HETATM   15  C8  UNL     1      20.032  17.064  40.513  1.00  0.00     0.097 A
ATOM     16  H2  UNL     1      20.788  16.160  38.869  1.00  0.00     0.167 HD
HETATM   17  C9  UNL     1      19.907  16.956  41.872  1.00  0.00     0.070 A
HETATM   18  S1  UNL     1      20.719  15.491  42.187  1.00  0.00    -0.064 SA
ENDBRANCH  11  13
ENDBRANCH   8   9
ENDBRANCH   4   8
BRANCH   7  19
HETATM   19  S2  UNL     1      28.773  10.268  38.308  1.00  0.00     0.153 S
HETATM   20  O2  UNL     1      29.273  10.725  37.002  1.00  0.00    -0.227 OA
HETATM   21  O3  UNL     1      28.072   8.922  38.053  1.00  0.00    -0.227 OA
BRANCH  19  22
HETATM   22  C13 UNL     1      30.004  10.000  39.526  1.00  0.00     0.159 C
BRANCH  22  23
HETATM   23  C14 UNL     1      30.213  11.114  40.519  1.00  0.00     0.070 A
HETATM   24  C16 UNL     1      30.338  10.600  41.949  1.00  0.00     0.020 A
HETATM   25  C17 UNL     1      29.139  11.385  41.525  1.00  0.00     0.020 A
BRANCH  23  26
HETATM   26  C15 UNL     1      31.150  12.258  40.241  1.00  0.00     0.396 C
HETATM   27  F1  UNL     1      30.449  13.157  39.426  1.00  0.00    -0.170 F
HETATM   28  F2  UNL     1      32.258  11.899  39.490  1.00  0.00    -0.170 F
HETATM   29  F3  UNL     1      31.446  12.911  41.401  1.00  0.00    -0.170 F
ENDBRANCH  23  26
ENDBRANCH  22  23
ENDBRANCH  19  22
ENDBRANCH   7  19
TORSDOF 7
ENDMDL