MODEL 5
REMARK VINA RESULT: -8.208963684      2.260      2.893
REMARK  5 active torsions:
REMARK  status: ('A' for Active; 'I' for Inactive)
REMARK    1  A    between atoms: C3_4  and  C4_5
REMARK    2  A    between atoms: C4_5  and  C5_6
REMARK       I    between atoms: N3_14  and  C10_15
REMARK    3  A    between atoms: C10_15  and  C11_17
REMARK    4  A    between atoms: C11_17  and  N4_18
REMARK       I    between atoms: N4_18  and  C12_20
REMARK    5  A    between atoms: C12_20  and  C13_22
ROOT
HETATM    1  N1  UNL     1      24.607  10.144  37.924  1.00  0.00    -0.195 NA
HETATM    2  C1  UNL     1      24.981  10.978  38.653  1.00  0.00     0.087 C
HETATM    3  C2  UNL     1      25.421  12.016  39.567  1.00  0.00     0.218 A
HETATM    4  C3  UNL     1      26.565  12.822  39.373  1.00  0.00     0.131 A
HETATM    5  N3  UNL     1      25.272  13.395  39.000  1.00  0.00    -0.323 N
HETATM    6  C10 UNL     1      24.429  14.417  38.499  1.00  0.00     0.239 C
HETATM    7  O1  UNL     1      24.935  15.487  38.127  1.00  0.00    -0.271 OA
ENDROOT
BRANCH   4   8
HETATM    8  C4  UNL     1      27.564  12.679  38.276  1.00  0.00     0.082 C
BRANCH   8   9
HETATM    9  C5  UNL     1      28.876  12.142  38.691  1.00  0.00     0.003 C
HETATM   10  N2  UNL     1      29.691  12.904  39.290  1.00  0.00    -0.395 N
HETATM   11  C6  UNL     1      30.987  12.533  39.750  1.00  0.00     0.119 C
ATOM     12  H2  UNL     1      29.394  13.866  39.458  1.00  0.00     0.159 HD
HETATM   13  C7  UNL     1      30.984  11.048  40.025  1.00  0.00     0.021 C
HETATM   14  C8  UNL     1      30.636  10.373  38.716  1.00  0.00     0.027 C
HETATM   15  C9  UNL     1      29.206  10.731  38.403  1.00  0.00     0.127 C
HETATM   16 CL1  UNL     1      28.130   9.712  39.401  1.00  0.00    -0.119 Cl
ENDBRANCH   8   9
ENDBRANCH   4   8
BRANCH   6  17
HETATM   17  C11 UNL     1      22.980  14.192  38.427  1.00  0.00     0.225 C
BRANCH  17  18
HETATM   18  N4  UNL     1      22.297  15.178  39.233  1.00  0.00    -0.348 N
HETATM   19  C12 UNL     1      21.750  14.833  40.477  1.00  0.00     0.252 C
HETATM   20  O2  UNL     1      21.848  13.642  40.894  1.00  0.00    -0.268 OA
ATOM     21  H4  UNL     1      22.211  16.136  38.894  1.00  0.00     0.163 HD
BRANCH  19  22
HETATM   22  C13 UNL     1      21.074  15.833  41.287  1.00  0.00     0.033 A
HETATM   23  C14 UNL     1      20.734  15.489  42.589  1.00  0.00     0.019 A
HETATM   24  C15 UNL     1      20.092  16.428  43.353  1.00  0.00     0.026 A
HETATM   25  C16 UNL     1      19.784  17.694  42.852  1.00  0.00     0.055 A
HETATM   26 CL2  UNL     1      18.964  18.885  43.839  1.00  0.00    -0.083 Cl
HETATM   27  C17 UNL     1      20.127  18.009  41.570  1.00  0.00     0.056 A
HETATM   28 CL3  UNL     1      19.771  19.584  40.871  1.00  0.00    -0.083 Cl
HETATM   29  C18 UNL     1      20.776  17.074  40.784  1.00  0.00     0.042 A
ENDBRANCH  19  22
ENDBRANCH  17  18
ENDBRANCH   6  17
TORSDOF 5
ENDMDL