MODEL 3
REMARK VINA RESULT: -6.866961645      3.885      7.315
REMARK  6 active torsions:
REMARK  status: ('A' for Active; 'I' for Inactive)
REMARK    1  A    between atoms: C2_2  and  C3_3
REMARK    2  A    between atoms: C5_5  and  C6_6
REMARK    3  A    between atoms: C6_6  and  C7_7
REMARK    4  A    between atoms: C7_7  and  C8_8
REMARK    5  A    between atoms: C14_18  and  O1_19
REMARK    6  A    between atoms: C17_24  and  C18_25
ROOT
HETATM    1  C3  UNL     1      25.143   8.753  37.411  1.00  0.00     0.055 C
HETATM    2  C4  UNL     1      24.659  10.164  37.680  1.00  0.00     0.021 C
HETATM    3  C5  UNL     1      24.964  10.436  39.138  1.00  0.00     0.061 C
HETATM    4  C13 UNL     1      25.733   9.221  39.624  1.00  0.00     0.273 C
HETATM    5  F1  UNL     1      25.549   8.988  40.960  1.00  0.00    -0.203 F
HETATM    6  F2  UNL     1      27.040   9.375  39.258  1.00  0.00    -0.203 F
HETATM    7  C14 UNL     1      25.035   8.134  38.792  1.00  0.00     0.197 C
ENDROOT
BRANCH   1   8
HETATM    8  C2  UNL     1      24.229   8.043  36.413  1.00  0.00     0.068 C
HETATM    9  C1  UNL     1      23.403   9.161  35.758  1.00  0.00     0.047 C
HETATM   10  C15 UNL     1      25.059   7.449  35.321  1.00  0.00     0.064 C
HETATM   11  C16 UNL     1      25.252   5.979  35.411  1.00  0.00     0.174 C
HETATM   12  O2  UNL     1      24.298   5.276  36.057  1.00  0.00    -0.360 OA
HETATM   13  C17 UNL     1      23.221   5.951  36.537  1.00  0.00     0.270 C
HETATM   14  O3  UNL     1      23.456   7.168  37.101  1.00  0.00    -0.349 OA
BRANCH  13  15
HETATM   15  C18 UNL     1      22.060   6.004  35.535  1.00  0.00     0.146 C
HETATM   16 BR1  UNL     1      20.470   5.471  36.499  1.00  0.00    -0.091 Br
ENDBRANCH  13  15
ENDBRANCH   1   8
BRANCH   7  17
HETATM   17  O1  UNL     1      23.708   8.146  39.252  1.00  0.00    -0.389 OA
ATOM     18  H1  UNL     1      23.646   7.795  40.132  1.00  0.00     0.210 HD
ENDBRANCH   7  17
BRANCH   3  19
HETATM   19  C6  UNL     1      25.851  11.636  39.319  1.00  0.00     0.017 C
BRANCH  19  20
HETATM   20  C7  UNL     1      25.212  12.893  38.769  1.00  0.00     0.057 C
BRANCH  20  21
HETATM   21  C8  UNL     1      26.233  13.770  38.177  1.00  0.00     0.009 A
HETATM   22  C9  UNL     1      27.515  13.316  38.025  1.00  0.00     0.025 A
HETATM   23  C10 UNL     1      28.518  14.100  37.471  1.00  0.00     0.003 A
HETATM   24  C11 UNL     1      28.177  15.371  37.074  1.00  0.00     0.017 A
HETATM   25  C12 UNL     1      26.892  15.822  37.229  1.00  0.00     0.088 A
HETATM   26  N1  UNL     1      25.940  15.013  37.778  1.00  0.00    -0.369 N
ATOM     27  H1  UNL     1      24.989  15.362  37.887  1.00  0.00     0.165 HD
ENDBRANCH  20  21
ENDBRANCH  19  20
ENDBRANCH   3  19
TORSDOF 6
ENDMDL