MODEL 1
REMARK VINA RESULT: -6.393279648      0.000      0.000
REMARK  6 active torsions:
REMARK  status: ('A' for Active; 'I' for Inactive)
REMARK    1  A    between atoms: N1_2  and  C3_4
REMARK    2  A    between atoms: C7_8  and  N2_9
REMARK    3  A    between atoms: N3_12  and  C10_13
REMARK    4  A    between atoms: C10_13  and  C11_14
REMARK    5  A    between atoms: C11_14  and  O1_15
REMARK    6  A    between atoms: C12_17  and  C13_18
ROOT
HETATM    1  N2  UNL     1      25.601   7.964  38.051  1.00  0.00    -0.359 N
HETATM    2  C8  UNL     1      24.496   7.863  38.934  1.00  0.00     0.143 C
HETATM    3  C9  UNL     1      24.338   8.965  39.939  1.00  0.00     0.116 C
HETATM    4  N3  UNL     1      24.708  10.314  39.473  1.00  0.00    -0.278 NA
HETATM    5  C12 UNL     1      25.979  10.211  38.889  1.00  0.00     0.038 C
HETATM    6  C19 UNL     1      26.167   9.224  37.804  1.00  0.00     0.115 C
ENDROOT
BRANCH   5   7
HETATM    7  C13 UNL     1      26.879  11.373  38.768  1.00  0.00     0.010 A
HETATM    8  C14 UNL     1      26.421  12.421  37.953  1.00  0.00     0.017 A
HETATM    9  C15 UNL     1      27.227  13.507  37.605  1.00  0.00     0.026 A
HETATM   10  C16 UNL     1      28.512  13.577  38.070  1.00  0.00     0.057 A
HETATM   11 CL1  UNL     1      29.502  14.942  37.657  1.00  0.00    -0.082 Cl
HETATM   12  C17 UNL     1      28.942  12.550  38.864  1.00  0.00     0.078 A
HETATM   13 CL2  UNL     1      30.547  12.657  39.544  1.00  0.00    -0.081 Cl
HETATM   14  C18 UNL     1      28.168  11.466  39.218  1.00  0.00     0.069 A
HETATM   15 CL3  UNL     1      28.752  10.250  40.367  1.00  0.00    -0.082 Cl
ENDBRANCH   5   7
BRANCH   4  16
HETATM   16  C10 UNL     1      24.779  11.093  40.723  1.00  0.00     0.121 C
BRANCH  16  17
HETATM   17  C11 UNL     1      23.559  11.865  41.034  1.00  0.00     0.179 C
BRANCH  17  18
HETATM   18  O1  UNL     1      23.306  12.996  40.253  1.00  0.00    -0.400 OA
ATOM     19  H1  UNL     1      23.329  13.838  40.693  1.00  0.00     0.209 HD
ENDBRANCH  17  18
ENDBRANCH  16  17
ENDBRANCH   4  16
BRANCH   1  20
HETATM   20  C7  UNL     1      25.462   7.108  36.934  1.00  0.00     0.011 C
HETATM   21  C3  UNL     1      24.936   7.647  35.662  1.00  0.00     0.124 C
HETATM   22  C4  UNL     1      25.114   6.431  34.778  1.00  0.00     0.031 C
HETATM   23  C5  UNL     1      24.933   5.217  35.696  1.00  0.00     0.008 C
HETATM   24  C6  UNL     1      24.823   5.782  37.098  1.00  0.00     0.055 C
BRANCH  21  25
HETATM   25  N1  UNL     1      23.666   8.189  35.615  1.00  0.00    -0.412 N
HETATM   26  C1  UNL     1      22.512   7.442  35.449  1.00  0.00     0.143 C
HETATM   27  C2  UNL     1      23.505   9.602  35.726  1.00  0.00     0.143 C
ENDBRANCH  21  25
ENDBRANCH   1  20
TORSDOF 6
ENDMDL