MODEL 2
REMARK VINA RESULT: -7.607156277      4.284      9.827
REMARK  6 active torsions:
REMARK  status: ('A' for Active; 'I' for Inactive)
REMARK    1  A    between atoms: C4_8  and  C5_9
REMARK    2  A    between atoms: C5_9  and  C6_10
REMARK    3  A    between atoms: N3_13  and  C9_14
REMARK    4  A    between atoms: N4_17  and  C12_18
REMARK    5  A    between atoms: C12_18  and  C13_19
REMARK    6  A    between atoms: C12_18  and  C17_24
ROOT
HETATM    1  C9  UNL     1      24.418   8.295  37.148  1.00  0.00     0.094 C
HETATM    2  C10 UNL     1      25.055   6.991  36.714  1.00  0.00     0.070 C
HETATM    3  C11 UNL     1      23.861   6.182  36.185  1.00  0.00     0.066 C
HETATM    4  N4  UNL     1      23.017   6.838  35.313  1.00  0.00    -0.358 N
HETATM    5  C18 UNL     1      23.005   8.242  35.173  1.00  0.00     0.130 C
HETATM    6  C19 UNL     1      24.106   8.987  35.846  1.00  0.00     0.046 C
ENDROOT
BRANCH   1   7
HETATM    7  N3  UNL     1      25.073   9.036  38.132  1.00  0.00    -0.369 N
HETATM    8  C8  UNL     1      24.782  10.379  38.307  1.00  0.00     0.064 C
HETATM    9  C7  UNL     1      25.831  11.192  39.031  1.00  0.00     0.050 C
HETATM   10  C6  UNL     1      26.653  10.372  39.946  1.00  0.00     0.001 C
HETATM   11  C21 UNL     1      27.361   9.356  39.027  1.00  0.00     0.050 C
HETATM   12  C20 UNL     1      26.305   8.476  38.481  1.00  0.00     0.064 C
BRANCH  10  13
HETATM   13  C5  UNL     1      27.617  11.101  40.792  1.00  0.00     0.064 C
BRANCH  13  14
HETATM   14  C4  UNL     1      29.004  11.175  40.358  1.00  0.00     0.032 A
HETATM   15  C2  UNL     1      29.584  11.938  39.386  1.00  0.00     0.029 A
HETATM   16  C1  UNL     1      28.989  12.983  38.511  1.00  0.00     0.070 C
HETATM   17  N1  UNL     1      30.917  11.641  39.308  1.00  0.00    -0.354 N
HETATM   18  C3  UNL     1      31.170  10.702  40.225  1.00  0.00     0.180 A
ATOM     19  H1  UNL     1      31.593  12.058  38.669  1.00  0.00     0.166 HD
HETATM   20  N2  UNL     1      30.033  10.419  40.855  1.00  0.00    -0.354 N
ATOM     21  H2  UNL     1      29.940   9.734  41.604  1.00  0.00     0.166 HD
ENDBRANCH  13  14
ENDBRANCH  10  13
ENDBRANCH   1   7
BRANCH   4  22
HETATM   22  C12 UNL     1      22.369   6.125  34.285  1.00  0.00     0.124 C
BRANCH  22  23
HETATM   23  C13 UNL     1      20.915   5.910  34.427  1.00  0.00     0.176 C
HETATM   24  C14 UNL     1      20.447   5.885  35.841  1.00  0.00     0.040 C
HETATM   25  C15 UNL     1      18.945   6.134  35.623  1.00  0.00     0.029 C
HETATM   26  C16 UNL     1      19.008   7.124  34.497  1.00  0.00     0.168 C
HETATM   27  O1  UNL     1      20.163   6.929  33.809  1.00  0.00    -0.380 OA
ENDBRANCH  22  23
BRANCH  22  28
HETATM   28  C17 UNL     1      23.143   4.943  33.751  1.00  0.00     0.431 C
HETATM   29  F1  UNL     1      22.747   3.822  34.450  1.00  0.00    -0.165 F
HETATM   30  F2  UNL     1      24.494   5.014  33.880  1.00  0.00    -0.165 F
HETATM   31  F3  UNL     1      22.741   4.750  32.441  1.00  0.00    -0.165 F
ENDBRANCH  22  28
ENDBRANCH   4  22
TORSDOF 6
ENDMDL