MODEL 1
REMARK VINA RESULT: -8.500243992      0.000      0.000
REMARK  8 active torsions:
REMARK  status: ('A' for Active; 'I' for Inactive)
REMARK    1  A    between atoms: C2_2  and  C3_3
REMARK    2  A    between atoms: C3_3  and  N1_4
REMARK    3  A    between atoms: N1_4  and  C4_6
REMARK    4  A    between atoms: N3_9  and  C5_10
REMARK    5  A    between atoms: N4_13  and  C8_14
REMARK    6  A    between atoms: C8_14  and  O1_15
REMARK    7  A    between atoms: C8_14  and  C9_17
REMARK    8  A    between atoms: C9_17  and  C10_18
ROOT
HETATM    1  C5  UNL     1      24.638   8.184  38.098  1.00  0.00     0.110 C
HETATM    2  C6  UNL     1      25.866   7.476  38.564  1.00  0.00     0.047 C
HETATM    3  C7  UNL     1      27.135   8.158  38.059  1.00  0.00     0.127 C
HETATM    4  N4  UNL     1      27.235   9.467  38.646  1.00  0.00    -0.365 N
HETATM    5  C16 UNL     1      25.942   9.876  39.257  1.00  0.00     0.127 C
HETATM    6  C17 UNL     1      24.838   9.655  38.204  1.00  0.00     0.047 C
ENDROOT
BRANCH   1   7
HETATM    7  N3  UNL     1      24.226   7.757  36.751  1.00  0.00    -0.294 N
HETATM    8  N2  UNL     1      23.465   8.397  35.895  1.00  0.00    -0.281 N
HETATM    9  C4  UNL     1      23.292   7.702  34.746  1.00  0.00     0.158 A
ATOM     10  H2  UNL     1      23.052   9.313  36.074  1.00  0.00     0.189 HD
HETATM   11  C19 UNL     1      23.994   6.544  34.898  1.00  0.00     0.178 A
HETATM   12  C18 UNL     1      24.563   6.606  36.149  1.00  0.00     0.156 A
HETATM   13  F3  UNL     1      24.153   5.488  34.024  1.00  0.00    -0.201 F
BRANCH   9  14
HETATM   14  N1  UNL     1      22.605   8.070  33.739  1.00  0.00    -0.356 N
ATOM     15  H1  UNL     1      23.067   8.651  33.039  1.00  0.00     0.162 HD
BRANCH  14  16
HETATM   16  C3  UNL     1      21.228   7.728  33.516  1.00  0.00     0.098 A
HETATM   17  C20 UNL     1      20.477   8.870  32.800  1.00  0.00     0.120 A
HETATM   18  C21 UNL     1      20.117   8.363  34.200  1.00  0.00     0.158 A
HETATM   19  O2  UNL     1      19.255   8.669  35.041  1.00  0.00    -0.295 OA
BRANCH  16  20
HETATM   20  C2  UNL     1      21.005   6.362  32.831  1.00  0.00     0.035 C
HETATM   21  C1  UNL     1      20.523   5.422  33.937  1.00  0.00     0.008 C
ENDBRANCH  16  20
ENDBRANCH  14  16
ENDBRANCH   9  14
ENDBRANCH   1   7
BRANCH   4  22
HETATM   22  C8  UNL     1      28.301  10.345  38.708  1.00  0.00     0.123 C
BRANCH  22  23
HETATM   23  O1  UNL     1      29.458   9.797  38.425  1.00  0.00    -0.349 OA
ATOM     24  H1  UNL     1      29.866   9.357  39.162  1.00  0.00     0.219 HD
ENDBRANCH  22  23
BRANCH  22  25
HETATM   25  C9  UNL     1      28.424  11.767  39.021  1.00  0.00     0.038 C
HETATM   26  C13 UNL     1      27.244  12.658  38.932  1.00  0.00     0.097 C
HETATM   27  C14 UNL     1      27.885  13.541  37.850  1.00  0.00     0.246 C
HETATM   28  F1  UNL     1      28.244  14.808  38.280  1.00  0.00    -0.206 F
HETATM   29  F2  UNL     1      27.112  13.704  36.710  1.00  0.00    -0.206 F
HETATM   30  C15 UNL     1      28.974  12.525  37.796  1.00  0.00     0.097 C
BRANCH  25  31
HETATM   31  C10 UNL     1      29.316  12.004  40.224  1.00  0.00    -0.006 C
HETATM   32  C11 UNL     1      29.227  10.891  41.235  1.00  0.00     0.011 C
HETATM   33  C12 UNL     1      30.736  12.298  39.982  1.00  0.00     0.011 C
ENDBRANCH  25  31
ENDBRANCH  22  25
ENDBRANCH   4  22
TORSDOF 8
ENDMDL