MODEL 1
REMARK VINA RESULT: -8.147835767      0.000      0.000
REMARK  5 active torsions:
REMARK  status: ('A' for Active; 'I' for Inactive)
REMARK    1  A    between atoms: C2_2  and  C4_4
REMARK    2  A    between atoms: C4_4  and  C5_5
REMARK    3  A    between atoms: N2_10  and  C8_11
REMARK    4  A    between atoms: N3_14  and  C11_15
REMARK    5  A    between atoms: C11_15  and  C12_16
ROOT
HETATM    1  C8  UNL     1      25.497   8.879  38.774  1.00  0.00     0.229 C
HETATM    2  C9  UNL     1      25.957   7.514  38.459  1.00  0.00     0.080 C
HETATM    3  C10 UNL     1      25.397   6.848  37.243  1.00  0.00     0.065 C
HETATM    4  N3  UNL     1      24.324   7.460  36.611  1.00  0.00    -0.368 N
HETATM    5  C17 UNL     1      24.273   8.871  36.551  1.00  0.00     0.129 C
HETATM    6  C18 UNL     1      24.401   9.432  37.910  1.00  0.00     0.056 C
ENDROOT
BRANCH   1   7
HETATM    7  N2  UNL     1      26.583   9.810  38.962  1.00  0.00     0.093 N
HETATM    8  C7  UNL     1      26.502  10.670  40.072  1.00  0.00     0.274 C
HETATM    9  C6  UNL     1      27.737  11.429  40.354  1.00  0.00     0.049 C
HETATM   10  C4  UNL     1      28.776  11.500  39.284  1.00  0.00     0.044 C
HETATM   11  C20 UNL     1      28.798  10.335  38.344  1.00  0.00     0.049 C
HETATM   12  C19 UNL     1      27.875   9.209  38.794  1.00  0.00     0.274 C
BRANCH  10  13
HETATM   13  C2  UNL     1      30.130  11.633  39.989  1.00  0.00    -0.005 C
HETATM   14  C1  UNL     1      31.169  10.745  39.386  1.00  0.00     0.011 C
HETATM   15  C3  UNL     1      30.048  11.415  41.451  1.00  0.00     0.011 C
ENDBRANCH  10  13
BRANCH  10  16
HETATM   16  C5  UNL     1      28.619  12.740  38.477  1.00  0.00     0.240 C
HETATM   17  N1  UNL     1      27.497  12.939  37.637  1.00  0.00    -0.061 NA
HETATM   18  O1  UNL     1      29.467  13.664  38.498  1.00  0.00    -0.276 OA
ENDBRANCH  10  16
ENDBRANCH   1   7
BRANCH   4  19
HETATM   19  C11 UNL     1      23.219   6.739  36.161  1.00  0.00     0.121 C
BRANCH  19  20
HETATM   20  C12 UNL     1      23.549   5.669  35.187  1.00  0.00     0.072 A
HETATM   21  N4  UNL     1      24.450   4.719  35.470  1.00  0.00    -0.360 N
HETATM   22  C13 UNL     1      24.781   3.727  34.607  1.00  0.00     0.134 A
ATOM     23  H4  UNL     1      24.910   4.743  36.380  1.00  0.00     0.165 HD
HETATM   24  C14 UNL     1      24.200   3.628  33.357  1.00  0.00     0.172 A
HETATM   25  F1  UNL     1      24.515   2.654  32.491  1.00  0.00    -0.201 F
HETATM   26  C15 UNL     1      23.257   4.608  33.041  1.00  0.00     0.180 A
HETATM   27  F2  UNL     1      22.635   4.590  31.840  1.00  0.00    -0.201 F
HETATM   28  C16 UNL     1      22.947   5.599  33.941  1.00  0.00     0.103 A
HETATM   29 CL1  UNL     1      21.758   6.794  33.476  1.00  0.00    -0.078 Cl
ENDBRANCH  19  20
ENDBRANCH   4  19
TORSDOF 5
ENDMDL