MODEL 2
REMARK VINA RESULT: -7.073660876      1.367      1.648
REMARK  8 active torsions:
REMARK  status: ('A' for Active; 'I' for Inactive)
REMARK       I    between atoms: N1_5  and  C5_6
REMARK    1  A    between atoms: C5_6  and  O2_8
REMARK    2  A    between atoms: O2_8  and  C6_9
REMARK    3  A    between atoms: C6_9  and  C7_10
REMARK    4  A    between atoms: C7_10  and  O3_11
REMARK    5  A    between atoms: C7_10  and  C8_13
REMARK    6  A    between atoms: C7_10  and  C10_17
REMARK    7  A    between atoms: C8_13  and  S1_14
REMARK    8  A    between atoms: C11_21  and  C12_22
ROOT
HETATM    1  C1  UNL     1      24.371  12.205  41.453  1.00  0.00     0.010 C
HETATM    2  C2  UNL     1      25.030  11.586  40.234  1.00  0.00    -0.015 C
HETATM    3  C3  UNL     1      23.987  10.998  39.357  1.00  0.00     0.024 C
HETATM    4  C4  UNL     1      24.633  10.263  38.197  1.00  0.00     0.129 C
HETATM    5  N1  UNL     1      25.645   9.337  38.675  1.00  0.00    -0.323 N
HETATM    6  C5  UNL     1      25.610   7.994  38.276  1.00  0.00     0.363 C
HETATM    7  O1  UNL     1      26.493   7.170  38.687  1.00  0.00    -0.238 OA
HETATM    8  C11 UNL     1      26.693   9.827  39.590  1.00  0.00     0.094 C
HETATM    9  C18 UNL     1      25.992  10.535  40.735  1.00  0.00     0.030 C
ENDROOT
BRANCH   6  10
HETATM   10  O2  UNL     1      24.650   7.462  37.433  1.00  0.00    -0.301 OA
BRANCH  10  11
HETATM   11  C6  UNL     1      24.937   7.238  36.072  1.00  0.00     0.228 C
BRANCH  11  12
HETATM   12  C7  UNL     1      23.627   7.167  35.230  1.00  0.00     0.188 C
BRANCH  12  13
HETATM   13  O3  UNL     1      23.835   6.089  34.339  1.00  0.00    -0.378 OA
ATOM     14  H3  UNL     1      23.703   5.312  34.870  1.00  0.00     0.211 HD
ENDBRANCH  12  13
BRANCH  12  15
HETATM   15  C8  UNL     1      22.616   6.711  36.205  1.00  0.00     0.157 C
BRANCH  15  16
HETATM   16  S1  UNL     1      21.624   5.358  36.000  1.00  0.00     0.014 S
HETATM   17  C9  UNL     1      20.138   5.238  36.885  1.00  0.00     0.127 C
HETATM   18  O4  UNL     1      22.412   3.884  35.924  1.00  0.00    -0.258 OA
ENDBRANCH  15  16
ENDBRANCH  12  15
BRANCH  12  19
HETATM   19  C10 UNL     1      23.487   8.425  34.498  1.00  0.00     0.421 C
HETATM   20  F1  UNL     1      24.574   8.864  33.829  1.00  0.00    -0.168 F
HETATM   21  F2  UNL     1      22.443   8.356  33.570  1.00  0.00    -0.168 F
HETATM   22  F3  UNL     1      23.194   9.432  35.436  1.00  0.00    -0.168 F
ENDBRANCH  12  19
ENDBRANCH  11  12
ENDBRANCH  10  11
ENDBRANCH   6  10
BRANCH   8  23
HETATM   23  C12 UNL     1      27.707  10.653  38.910  1.00  0.00     0.012 C
HETATM   24  C13 UNL     1      28.126  11.898  39.611  1.00  0.00     0.007 C
HETATM   25  C14 UNL     1      29.336  11.563  40.449  1.00  0.00     0.001 C
HETATM   26  C15 UNL     1      29.837  10.223  39.956  1.00  0.00     0.005 C
HETATM   27  C16 UNL     1      29.037   9.984  38.667  1.00  0.00    -0.013 C
HETATM   28  C17 UNL     1      29.826  10.703  37.583  1.00  0.00     0.010 C
ENDBRANCH   8  23
TORSDOF 8
ENDMDL