MODEL 5
REMARK VINA RESULT: -6.807218877      3.108      5.017
REMARK  6 active torsions:
REMARK  status: ('A' for Active; 'I' for Inactive)
REMARK    1  A    between atoms: C1_2  and  C2_4
REMARK    2  A    between atoms: C2_4  and  C15_20
REMARK    3  A    between atoms: N1_11  and  C9_12
REMARK    4  A    between atoms: C9_12  and  C10_13
REMARK    5  A    between atoms: C10_13  and  N2_14
REMARK    6  A    between atoms: C18_23  and  C19_24
ROOT
HETATM    1  C2  UNL     1      27.105  11.613  39.540  1.00  0.00     0.045 C
HETATM    2  C3  UNL     1      28.135  10.982  39.930  1.00  0.00     0.020 C
HETATM    3  C4  UNL     1      28.347  10.590  41.389  1.00  0.00     0.057 C
HETATM    4  C5  UNL     1      29.860  10.346  41.602  1.00  0.00     0.006 C
HETATM    5  C6  UNL     1      30.633  11.564  41.211  1.00  0.00     0.002 C
HETATM    6  C7  UNL     1      31.017  11.694  39.794  1.00  0.00     0.020 C
HETATM    7  C8  UNL     1      30.484  10.688  38.818  1.00  0.00     0.123 C
HETATM    8  N1  UNL     1      29.060  10.464  38.973  1.00  0.00    -0.382 N
ENDROOT
BRANCH   1   9
HETATM    9  C1  UNL     1      26.067  11.914  40.593  1.00  0.00     0.207 C
HETATM   10  O1  UNL     1      25.114  11.069  40.802  1.00  0.00    -0.644 OA
HETATM   11  O2  UNL     1      25.998  13.001  41.390  1.00  0.00    -0.644 OA
ENDBRANCH   1   9
BRANCH   1  12
HETATM   12  C15 UNL     1      26.742  12.330  38.304  1.00  0.00     0.027 C
HETATM   13  C16 UNL     1      27.629  13.152  37.506  1.00  0.00     0.010 C
HETATM   14  C17 UNL     1      26.791  13.978  36.485  1.00  0.00     0.014 C
HETATM   15  C18 UNL     1      26.198  15.117  37.245  1.00  0.00     0.093 C
HETATM   16  C20 UNL     1      25.920  14.701  38.674  1.00  0.00     0.014 C
HETATM   17  C21 UNL     1      25.500  13.209  38.660  1.00  0.00     0.010 C
BRANCH  15  18
HETATM   18  C19 UNL     1      26.942  16.397  37.218  1.00  0.00     0.391 C
HETATM   19  F1  UNL     1      27.280  16.819  38.513  1.00  0.00    -0.171 F
HETATM   20  F2  UNL     1      28.156  16.258  36.534  1.00  0.00    -0.171 F
HETATM   21  F3  UNL     1      26.256  17.388  36.568  1.00  0.00    -0.171 F
ENDBRANCH  15  18
ENDBRANCH   1  12
BRANCH   8  22
HETATM   22  C9  UNL     1      28.519   9.487  38.038  1.00  0.00     0.153 C
BRANCH  22  23
HETATM   23  C10 UNL     1      27.424   8.677  38.742  1.00  0.00     0.292 C
BRANCH  23  24
HETATM   24  N2  UNL     1      26.383   8.335  37.789  1.00  0.00     0.094 N
HETATM   25  C11 UNL     1      25.201   9.073  38.183  1.00  0.00     0.298 C
HETATM   26  C12 UNL     1      24.098   8.102  38.468  1.00  0.00     0.198 C
HETATM   27  O3  UNL     1      23.804   7.286  37.379  1.00  0.00    -0.388 OA
HETATM   28  C13 UNL     1      24.930   6.674  36.873  1.00  0.00     0.198 C
HETATM   29  C14 UNL     1      26.135   6.907  37.761  1.00  0.00     0.298 C
ENDBRANCH  23  24
ENDBRANCH  22  23
ENDBRANCH   8  22
TORSDOF 6
ENDMDL