MODEL 5
REMARK VINA RESULT: -6.584096869      3.078      5.922
REMARK  6 active torsions:
REMARK  status: ('A' for Active; 'I' for Inactive)
REMARK    1  A    between atoms: C2_2  and  C3_3
REMARK    2  A    between atoms: C7_8  and  S1_9
REMARK    3  A    between atoms: S1_9  and  N1_12
REMARK    4  A    between atoms: C13_21  and  C14_22
REMARK    5  A    between atoms: C14_22  and  O3_23
REMARK    6  A    between atoms: C14_22  and  C15_25
ROOT
HETATM    1  N1  UNL     1      25.938  10.681  39.239  1.00  0.00    -0.281 N
HETATM    2  C8  UNL     1      25.054  11.519  39.956  1.00  0.00     0.208 C
HETATM    3  C9  UNL     1      25.527  12.838  40.207  1.00  0.00     0.085 C
HETATM    4  N2  UNL     1      25.877  13.929  40.402  1.00  0.00    -0.195 NA
HETATM    5  C10 UNL     1      24.473  10.800  41.169  1.00  0.00     0.120 C
HETATM    6  C11 UNL     1      23.613   9.699  40.604  1.00  0.00     0.248 C
HETATM    7  F1  UNL     1      23.188   8.828  41.603  1.00  0.00    -0.206 F
HETATM    8  F2  UNL     1      22.459  10.188  40.023  1.00  0.00    -0.206 F
HETATM    9  C12 UNL     1      24.401   8.893  39.636  1.00  0.00     0.107 C
HETATM   10  C13 UNL     1      25.223   9.677  38.635  1.00  0.00     0.132 C
ENDROOT
BRANCH   1  11
HETATM   11  S1  UNL     1      27.524  10.951  39.350  1.00  0.00     0.264 S
HETATM   12  O1  UNL     1      28.319   9.775  38.754  1.00  0.00    -0.200 OA
HETATM   13  O2  UNL     1      28.080  11.022  40.783  1.00  0.00    -0.200 OA
BRANCH  11  14
HETATM   14  C7  UNL     1      28.196  12.410  38.642  1.00  0.00     0.102 A
HETATM   15  C6  UNL     1      29.467  12.869  38.851  1.00  0.00     0.057 A
HETATM   16  C5  UNL     1      29.903  14.052  38.272  1.00  0.00     0.026 A
HETATM   17 CL1  UNL     1      30.597  11.942  39.803  1.00  0.00    -0.083 Cl
HETATM   18  C4  UNL     1      29.065  14.791  37.470  1.00  0.00     0.013 A
HETATM   19  C3  UNL     1      27.756  14.357  37.227  1.00  0.00    -0.035 A
HETATM   20  C18 UNL     1      27.391  13.180  37.833  1.00  0.00     0.038 A
BRANCH  19  21
HETATM   21  C2  UNL     1      26.861  15.124  36.383  1.00  0.00     0.001 C
HETATM   22  C1  UNL     1      26.433  16.308  36.702  1.00  0.00     0.012 C
ENDBRANCH  19  21
ENDBRANCH  11  14
ENDBRANCH   1  11
BRANCH  10  23
HETATM   23  C14 UNL     1      25.834   8.735  37.666  1.00  0.00     0.146 C
BRANCH  23  24
HETATM   24  O3  UNL     1      26.582   7.748  38.391  1.00  0.00    -0.393 OA
ATOM     25  H3  UNL     1      26.592   6.942  37.888  1.00  0.00     0.210 HD
ENDBRANCH  23  24
BRANCH  23  26
HETATM   26  C15 UNL     1      24.807   7.837  36.981  1.00  0.00     0.016 A
HETATM   27  C16 UNL     1      24.345   8.328  35.589  1.00  0.00     0.007 A
HETATM   28  C17 UNL     1      25.082   7.022  35.805  1.00  0.00     0.007 A
ENDBRANCH  23  26
ENDBRANCH  10  23
TORSDOF 6
ENDMDL