MODEL 1
REMARK VINA RESULT: -5.628140183      0.000      0.000
REMARK  3 active torsions:
REMARK  status: ('A' for Active; 'I' for Inactive)
REMARK    1  A    between atoms: C3_3  and  O1_4
REMARK    2  A    between atoms: O1_4  and  C4_5
REMARK    3  A    between atoms: C4_5  and  C5_6
ROOT
HETATM    1  C1  UNL     1      94.360 -25.479  53.221  1.00  0.00     0.014 C
HETATM    2  C2  UNL     1      94.296 -24.581  54.023  1.00  0.00    -0.091 C
HETATM    3  C3  UNL     1      94.227 -23.456  55.000  1.00  0.00     0.260 C
ENDROOT
BRANCH   3   4
HETATM    4  O1  UNL     1      94.458 -22.319  54.296  1.00  0.00    -0.373 OA
BRANCH   4   5
HETATM    5  C4  UNL     1      95.673 -21.747  54.321  1.00  0.00     0.228 C
BRANCH   5   6
HETATM    6  C5  UNL     1      95.648 -20.284  54.170  1.00  0.00     0.064 C
HETATM    7  C6  UNL     1      96.134 -19.563  53.201  1.00  0.00     0.133 C
HETATM    8  N1  UNL     1      95.881 -18.162  53.459  1.00  0.00    -0.293 N
HETATM    9  N2  UNL     1      95.518 -18.059  54.810  1.00  0.00    -0.023 NA
ATOM     10  H1  UNL     1      95.951 -17.397  52.788  1.00  0.00     0.183 HD
HETATM   11  N3  UNL     1      95.060 -19.347  55.099  1.00  0.00    -0.285 N
ATOM     12  H3  UNL     1      94.413 -19.589  55.849  1.00  0.00     0.184 HD
ENDBRANCH   5   6
ENDBRANCH   4   5
ENDBRANCH   3   4
TORSDOF 3
ENDMDL