MODEL 2
REMARK VINA RESULT: -4.166790516      5.872      7.751
REMARK  2 active torsions:
REMARK  status: ('A' for Active; 'I' for Inactive)
REMARK    1  A    between atoms: N1_2  and  C2_5
REMARK    2  A    between atoms: C2_5  and  C3_6
ROOT
HETATM    1  C3  UNL     1      95.894 -20.291  54.188  1.00  0.00     0.141 C
HETATM    2  C4  UNL     1      95.466 -18.872  54.234  1.00  0.00     0.086 C
HETATM    3  N2  UNL     1      95.927 -18.068  53.179  1.00  0.00    -0.379 N
ATOM      4  H2  UNL     1      95.486 -17.168  52.987  1.00  0.00     0.164 HD
HETATM    5  C5  UNL     1      96.997 -18.513  52.395  1.00  0.00     0.079 C
HETATM    6  C6  UNL     1      97.801 -19.652  52.864  1.00  0.00     0.159 C
HETATM    7  N3  UNL     1      97.302 -20.370  53.990  1.00  0.00    -0.407 N
ATOM      8  H3  UNL     1      97.911 -20.903  54.611  1.00  0.00     0.154 HD
ENDROOT
BRANCH   1   9
HETATM    9  C2  UNL     1      95.101 -21.102  53.184  1.00  0.00     0.261 C
BRANCH   9  10
HETATM   10  N1  UNL     1      94.888 -22.452  53.661  1.00  0.00    -0.077 N
HETATM   11  C1  UNL     1      95.504 -23.355  52.687  1.00  0.00     0.267 C
ATOM     12  H12 UNL     1      93.906 -22.664  53.838  1.00  0.00     0.276 HD
ATOM     13  H11 UNL     1      95.226 -22.599  54.612  1.00  0.00     0.276 HD
ENDBRANCH   9  10
ENDBRANCH   1   9
TORSDOF 2
ENDMDL