MODEL 3
REMARK VINA RESULT: -4.656726611      5.382      7.908
REMARK  4 active torsions:
REMARK  status: ('A' for Active; 'I' for Inactive)
REMARK    1  A    between atoms: N1_2  and  C2_5
REMARK    2  A    between atoms: C2_5  and  C3_6
REMARK    3  A    between atoms: C3_6  and  N2_7
REMARK    4  A    between atoms: N2_7  and  C4_9
ROOT
HETATM    1  C4  UNL     1      92.571 -25.416  48.517  1.00  0.00     0.693 A
HETATM    2  N3  UNL     1      93.220 -25.716  47.346  1.00  0.00    -0.185 N
ATOM      3  H3  UNL     1      93.893 -25.119  46.866  1.00  0.00     0.185 HD
HETATM    4  C5  UNL     1      92.817 -26.923  46.946  1.00  0.00     0.215 A
HETATM    5  N4  UNL     1      91.927 -27.387  47.846  1.00  0.00    -0.281 N
ATOM      6  H4  UNL     1      91.443 -28.285  47.815  1.00  0.00     0.188 HD
HETATM    7  N5  UNL     1      91.804 -26.471  48.761  1.00  0.00    -0.131 N
ATOM      8  H5  UNL     1      91.190 -26.554  49.572  1.00  0.00     0.205 HD
ENDROOT
BRANCH   1   9
HETATM    9  N2  UNL     1      92.787 -24.322  49.103  1.00  0.00    -0.223 N
ATOM     10  H2  UNL     1      92.000 -23.673  49.098  1.00  0.00     0.177 HD
BRANCH   9  11
HETATM   11  C3  UNL     1      93.940 -23.844  49.767  1.00  0.00     0.165 C
BRANCH  11  12
HETATM   12  C2  UNL     1      94.266 -24.810  50.886  1.00  0.00     0.252 C
BRANCH  12  13
HETATM   13  N1  UNL     1      93.368 -24.694  51.963  1.00  0.00    -0.077 N
HETATM   14  C1  UNL     1      93.864 -25.279  53.172  1.00  0.00     0.267 C
ATOM     15  H12 UNL     1      92.455 -25.080  51.719  1.00  0.00     0.276 HD
ATOM     16  H11 UNL     1      93.102 -23.720  52.112  1.00  0.00     0.276 HD
ENDBRANCH  12  13
ENDBRANCH  11  12
ENDBRANCH   9  11
ENDBRANCH   1   9
TORSDOF 4
ENDMDL