MODEL 1
REMARK VINA RESULT: -4.789990542      0.000      0.000
REMARK  3 active torsions:
REMARK  status: ('A' for Active; 'I' for Inactive)
REMARK    1  A    between atoms: N1_2  and  N2_3
REMARK    2  A    between atoms: N1_2  and  N3_6
REMARK    3  A    between atoms: N3_6  and  C2_8
ROOT
HETATM    1  C2  UNL     1      93.493 -25.047  48.645  1.00  0.00     0.693 A
HETATM    2  N4  UNL     1      92.770 -25.956  49.355  1.00  0.00    -0.199 N
ATOM      3  H4  UNL     1      92.567 -25.888  50.353  1.00  0.00     0.183 HD
HETATM    4  C3  UNL     1      92.361 -26.956  48.554  1.00  0.00     0.123 A
HETATM    5  C4  UNL     1      92.833 -26.687  47.294  1.00  0.00     0.123 A
HETATM    6  N5  UNL     1      93.504 -25.544  47.375  1.00  0.00    -0.199 N
ATOM      7  H5  UNL     1      93.969 -25.094  46.587  1.00  0.00     0.183 HD
ENDROOT
BRANCH   1   8
HETATM    8  N3  UNL     1      94.098 -23.858  49.114  1.00  0.00    -0.135 N
ATOM      9  H3  UNL     1      93.539 -23.018  49.265  1.00  0.00     0.201 HD
BRANCH   8  10
HETATM   10  N1  UNL     1      95.459 -23.851  49.364  1.00  0.00    -0.136 NA
HETATM   11  C1  UNL     1      95.840 -24.460  50.593  1.00  0.00     0.163 C
BRANCH  10  12
HETATM   12  N2  UNL     1      96.190 -24.448  48.332  1.00  0.00    -0.346 NA
ATOM     13  H22 UNL     1      97.159 -24.132  48.312  1.00  0.00     0.172 HD
ATOM     14  H21 UNL     1      95.680 -24.313  47.458  1.00  0.00     0.172 HD
ENDBRANCH  10  12
ENDBRANCH   8  10
ENDBRANCH   1   8
TORSDOF 3
ENDMDL