MODEL 4
REMARK VINA RESULT: -4.241908917      4.638      7.111
REMARK  4 active torsions:
REMARK  status: ('A' for Active; 'I' for Inactive)
REMARK    1  A    between atoms: N1_1  and  C1_5
REMARK    2  A    between atoms: C1_5  and  C2_6
REMARK    3  A    between atoms: C2_6  and  N2_7
REMARK    4  A    between atoms: N2_7  and  C3_9
ROOT
HETATM    1  N2  UNL     1      96.178 -21.412  54.212  1.00  0.00    -0.361 N
ATOM      2  H2  UNL     1      97.142 -21.267  54.513  1.00  0.00     0.162 HD
ENDROOT
BRANCH   1   3
HETATM    3  C2  UNL     1      95.367 -20.280  53.812  1.00  0.00     0.150 C
BRANCH   3   4
HETATM    4  C1  UNL     1      95.305 -19.242  54.884  1.00  0.00     0.249 C
BRANCH   4   5
HETATM    5  N1  UNL     1      95.584 -17.934  54.331  1.00  0.00    -0.078 N
ATOM      6  H13 UNL     1      96.054 -17.995  53.427  1.00  0.00     0.274 HD
ATOM      7  H12 UNL     1      94.734 -17.460  54.027  1.00  0.00     0.274 HD
ATOM      8  H11 UNL     1      96.115 -17.374  54.999  1.00  0.00     0.274 HD
ENDBRANCH   4   5
ENDBRANCH   3   4
ENDBRANCH   1   3
BRANCH   1   9
HETATM    9  C3  UNL     1      95.627 -22.736  54.184  1.00  0.00     0.171 C
HETATM   10  N3  UNL     1      95.938 -23.683  54.990  1.00  0.00    -0.361 N
HETATM   11  C4  UNL     1      95.204 -24.883  54.691  1.00  0.00     0.142 C
ATOM     12  H3  UNL     1      96.617 -23.596  55.747  1.00  0.00     0.162 HD
HETATM   13  C5  UNL     1      94.788 -24.677  53.253  1.00  0.00     0.142 C
HETATM   14  N4  UNL     1      94.653 -23.210  53.252  1.00  0.00    -0.361 N
ATOM     15  H4  UNL     1      94.002 -22.651  52.702  1.00  0.00     0.162 HD
ENDBRANCH   1   9
TORSDOF 4
ENDMDL