MODEL 1
REMARK VINA RESULT: -4.813401870      0.000      0.000
REMARK  3 active torsions:
REMARK  status: ('A' for Active; 'I' for Inactive)
REMARK    1  A    between atoms: C2_3  and  N2_4
REMARK    2  A    between atoms: N2_4  and  C3_7
REMARK    3  A    between atoms: C3_7  and  C4_8
ROOT
HETATM    1  N1  UNL     1      94.032 -23.157  55.629  1.00  0.00    -0.196 NA
HETATM    2  C1  UNL     1      94.577 -23.223  54.606  1.00  0.00     0.086 C
HETATM    3  C2  UNL     1      95.277 -23.316  53.329  1.00  0.00     0.355 C
ENDROOT
BRANCH   3   4
HETATM    4  N2  UNL     1      95.151 -22.108  52.551  1.00  0.00    -0.063 N
ATOM      5  H22 UNL     1      95.302 -22.280  51.557  1.00  0.00     0.278 HD
ATOM      6  H21 UNL     1      94.185 -21.785  52.504  1.00  0.00     0.278 HD
BRANCH   4   7
HETATM    7  C3  UNL     1      96.050 -21.068  53.068  1.00  0.00     0.241 C
BRANCH   7   8
HETATM    8  C4  UNL     1      95.273 -19.892  53.566  1.00  0.00     0.062 C
HETATM    9  C5  UNL     1      96.001 -18.554  53.355  1.00  0.00     0.240 C
HETATM   10  N3  UNL     1      95.352 -18.136  54.602  1.00  0.00    -0.074 N
HETATM   11  C6  UNL     1      95.411 -19.524  55.017  1.00  0.00     0.240 C
ATOM     12  H32 UNL     1      95.746 -17.395  55.180  1.00  0.00     0.277 HD
ATOM     13  H31 UNL     1      94.470 -17.624  54.592  1.00  0.00     0.277 HD
ENDBRANCH   7   8
ENDBRANCH   4   7
ENDBRANCH   3   4
TORSDOF 3
ENDMDL