MODEL 5
REMARK VINA RESULT: -4.710000343      1.481      3.902
REMARK  3 active torsions:
REMARK  status: ('A' for Active; 'I' for Inactive)
REMARK    1  A    between atoms: N2_3  and  C2_5
REMARK    2  A    between atoms: C2_5  and  C3_6
REMARK    3  A    between atoms: C3_6  and  C4_7
ROOT
HETATM    1  C4  UNL     1      95.975 -21.251  52.483  1.00  0.00     0.082 A
HETATM    2  N3  UNL     1      96.974 -20.486  52.034  1.00  0.00    -0.354 N
ATOM      3  H3  UNL     1      97.571 -20.724  51.241  1.00  0.00     0.166 HD
HETATM    4  C5  UNL     1      97.089 -19.365  52.763  1.00  0.00     0.106 A
HETATM    5  C6  UNL     1      96.098 -19.446  53.720  1.00  0.00     0.106 A
HETATM    6  N4  UNL     1      95.440 -20.596  53.527  1.00  0.00    -0.354 N
ATOM      7  H4  UNL     1      94.654 -20.925  54.087  1.00  0.00     0.166 HD
ENDROOT
BRANCH   1   8
HETATM    8  C3  UNL     1      95.474 -22.565  52.005  1.00  0.00     0.096 C
BRANCH   8   9
HETATM    9  C2  UNL     1      95.574 -23.613  53.106  1.00  0.00     0.127 C
BRANCH   9  10
HETATM   10  N2  UNL     1      94.255 -24.080  53.487  1.00  0.00    -0.388 N
HETATM   11  C1  UNL     1      93.729 -23.754  54.600  1.00  0.00     0.185 C
HETATM   12  N1  UNL     1      94.441 -22.923  55.482  1.00  0.00    -0.097 NA
ATOM     13  H2  UNL     1      93.736 -24.683  52.849  1.00  0.00     0.159 HD
ENDBRANCH   9  10
ENDBRANCH   8   9
ENDBRANCH   1   8
TORSDOF 3
ENDMDL