MODEL 2
REMARK VINA RESULT: -5.148098289      0.599      1.144
REMARK  4 active torsions:
REMARK  status: ('A' for Active; 'I' for Inactive)
REMARK    1  A    between atoms: N1_1  and  N2_4
REMARK    2  A    between atoms: N2_4  and  N3_6
REMARK    3  A    between atoms: N3_6  and  N4_8
REMARK    4  A    between atoms: C1_10  and  N5_11
ROOT
HETATM    1  N4  UNL     1      97.173 -20.562  51.727  1.00  0.00    -0.280 N
ATOM      2  H4  UNL     1      97.196 -20.438  50.715  1.00  0.00     0.189 HD
HETATM    3  C1  UNL     1      96.582 -21.604  52.198  1.00  0.00     0.206 C
ENDROOT
BRANCH   1   4
HETATM    4  N3  UNL     1      97.781 -19.594  52.524  1.00  0.00    -0.228 N
ATOM      5  H3  UNL     1      98.635 -19.805  53.039  1.00  0.00     0.210 HD
BRANCH   4   6
HETATM    6  N2  UNL     1      97.200 -18.346  52.599  1.00  0.00    -0.235 N
ATOM      7  H2  UNL     1      97.514 -17.560  52.030  1.00  0.00     0.209 HD
BRANCH   6   8
HETATM    8  N1  UNL     1      96.168 -18.242  53.496  1.00  0.00    -0.330 N
ATOM      9  H12 UNL     1      96.334 -18.041  54.482  1.00  0.00     0.178 HD
ATOM     10  H11 UNL     1      95.238 -18.380  53.100  1.00  0.00     0.178 HD
ENDBRANCH   6   8
ENDBRANCH   4   6
ENDBRANCH   1   4
BRANCH   3  11
HETATM   11  N5  UNL     1      95.980 -22.555  51.337  1.00  0.00    -0.312 N
HETATM   12  C2  UNL     1      96.290 -23.862  51.308  1.00  0.00     0.115 A
HETATM   13  C3  UNL     1      95.493 -24.473  50.339  1.00  0.00     0.106 A
HETATM   14  N6  UNL     1      94.715 -23.508  49.802  1.00  0.00    -0.360 N
HETATM   15  C4  UNL     1      95.024 -22.334  50.425  1.00  0.00     0.188 A
ATOM     16  H6  UNL     1      94.022 -23.634  49.064  1.00  0.00     0.166 HD
ENDBRANCH   3  11
TORSDOF 4
ENDMDL