MODEL 2
REMARK VINA RESULT: -4.169128748      5.174      7.128
REMARK  4 active torsions:
REMARK  status: ('A' for Active; 'I' for Inactive)
REMARK    1  A    between atoms: N1_2  and  C2_4
REMARK    2  A    between atoms: C2_4  and  C3_5
REMARK    3  A    between atoms: C5_7  and  C6_8
REMARK    4  A    between atoms: C6_8  and  N2_9
ROOT
HETATM    1  C3  UNL     1      93.544 -24.254  49.723  1.00  0.00     0.226 C
HETATM    2  C4  UNL     1      92.499 -25.187  49.250  1.00  0.00     0.073 C
HETATM    3  C5  UNL     1      93.628 -25.810  48.443  1.00  0.00     0.214 C
HETATM    4  N3  UNL     1      94.351 -24.598  48.552  1.00  0.00    -0.060 N
ATOM      5  H31 UNL     1      95.370 -24.608  48.609  1.00  0.00     0.278 HD
ATOM      6  H32 UNL     1      94.411 -23.960  47.759  1.00  0.00     0.278 HD
ENDROOT
BRANCH   3   7
HETATM    7  C6  UNL     1      93.172 -26.268  47.097  1.00  0.00     0.262 C
BRANCH   7   8
HETATM    8  N2  UNL     1      93.590 -27.604  46.750  1.00  0.00    -0.077 N
ATOM      9  H23 UNL     1      93.333 -27.818  45.787  1.00  0.00     0.274 HD
ATOM     10  H22 UNL     1      94.606 -27.650  46.675  1.00  0.00     0.274 HD
ATOM     11  H21 UNL     1      93.247 -28.329  47.380  1.00  0.00     0.274 HD
ENDBRANCH   7   8
ENDBRANCH   3   7
BRANCH   1  12
HETATM   12  C2  UNL     1      94.297 -24.515  50.971  1.00  0.00     0.088 C
BRANCH  12  13
HETATM   13  N1  UNL     1      93.610 -24.960  52.113  1.00  0.00    -0.405 N
HETATM   14  C1  UNL     1      94.348 -25.338  53.266  1.00  0.00     0.145 C
ATOM     15  H1  UNL     1      92.591 -25.011  52.114  1.00  0.00     0.158 HD
ENDBRANCH  12  13
ENDBRANCH   1  12
TORSDOF 4
ENDMDL