MODEL 5
REMARK VINA RESULT: -4.197588698      4.814      6.476
REMARK  6 active torsions:
REMARK  status: ('A' for Active; 'I' for Inactive)
REMARK    1  A    between atoms: N1_1  and  C1_5
REMARK    2  A    between atoms: C1_5  and  C2_6
REMARK    3  A    between atoms: C2_6  and  C3_7
REMARK    4  A    between atoms: C3_7  and  C4_8
REMARK    5  A    between atoms: C4_8  and  N2_9
REMARK    6  A    between atoms: C6_14  and  N3_15
ROOT
HETATM    1  C4  UNL     1      93.492 -25.888  49.165  1.00  0.00     0.153 A
HETATM    2  C5  UNL     1      92.038 -25.797  49.537  1.00  0.00     0.076 A
HETATM    3  C6  UNL     1      92.540 -27.059  48.942  1.00  0.00     0.221 A
ENDROOT
BRANCH   1   4
HETATM    4  C3  UNL     1      94.492 -26.151  50.268  1.00  0.00     0.042 C
BRANCH   4   5
HETATM    5  C2  UNL     1      94.653 -24.922  51.172  1.00  0.00     0.030 C
BRANCH   5   6
HETATM    6  C1  UNL     1      94.461 -25.443  52.593  1.00  0.00     0.230 C
BRANCH   6   7
HETATM    7  N1  UNL     1      93.269 -24.976  53.207  1.00  0.00    -0.079 N
ATOM      8  H13 UNL     1      93.474 -24.514  54.092  1.00  0.00     0.274 HD
ATOM      9  H12 UNL     1      92.881 -24.186  52.690  1.00  0.00     0.274 HD
ATOM     10  H11 UNL     1      92.567 -25.706  53.333  1.00  0.00     0.274 HD
ENDBRANCH   6   7
ENDBRANCH   5   6
ENDBRANCH   4   5
ENDBRANCH   1   4
BRANCH   1  11
HETATM   11  N2  UNL     1      93.958 -25.188  47.981  1.00  0.00    -0.068 N
ATOM     12  H23 UNL     1      94.882 -25.539  47.726  1.00  0.00     0.275 HD
ATOM     13  H22 UNL     1      93.408 -25.488  47.176  1.00  0.00     0.275 HD
ATOM     14  H21 UNL     1      93.982 -24.169  48.010  1.00  0.00     0.275 HD
ENDBRANCH   1  11
BRANCH   3  15
HETATM   15  N3  UNL     1      92.207 -27.318  47.546  1.00  0.00    -0.072 N
ATOM     16  H33 UNL     1      92.344 -28.305  47.328  1.00  0.00     0.274 HD
ATOM     17  H32 UNL     1      91.199 -27.245  47.404  1.00  0.00     0.274 HD
ATOM     18  H31 UNL     1      92.703 -26.734  46.872  1.00  0.00     0.274 HD
ENDBRANCH   3  15
TORSDOF 6
ENDMDL