MODEL 5
REMARK VINA RESULT: -4.524657524      1.623      4.291
REMARK  3 active torsions:
REMARK  status: ('A' for Active; 'I' for Inactive)
REMARK    1  A    between atoms: C2_5  and  N2_6
REMARK    2  A    between atoms: N2_6  and  O1_8
REMARK    3  A    between atoms: O1_8  and  C3_9
ROOT
HETATM    1  N2  UNL     1      95.051 -20.869  53.506  1.00  0.00    -0.269 N
ATOM      2  H2  UNL     1      94.621 -21.396  54.266  1.00  0.00     0.190 HD
ENDROOT
BRANCH   1   3
HETATM    3  C2  UNL     1      96.076 -19.893  53.732  1.00  0.00     0.330 A
HETATM    4  C1  UNL     1      95.836 -19.041  54.977  1.00  0.00     0.290 A
HETATM    5  N1  UNL     1      95.788 -18.484  53.639  1.00  0.00    -0.047 N
ATOM      6  H12 UNL     1      95.078 -17.953  53.135  1.00  0.00     0.279 HD
ATOM      7  H11 UNL     1      96.273 -17.705  53.194  1.00  0.00     0.279 HD
ENDBRANCH   1   3
BRANCH   1   8
HETATM    8  O1  UNL     1      94.703 -21.035  52.237  1.00  0.00    -0.274 OA
BRANCH   8   9
HETATM    9  C3  UNL     1      95.612 -21.957  51.676  1.00  0.00     0.203 C
HETATM   10  C4  UNL     1      95.024 -22.508  50.418  1.00  0.00     0.268 C
HETATM   11  N3  UNL     1      94.583 -23.671  51.190  1.00  0.00    -0.070 N
HETATM   12  C5  UNL     1      95.478 -23.339  52.303  1.00  0.00     0.268 C
ATOM     13  H32 UNL     1      93.587 -23.797  51.374  1.00  0.00     0.277 HD
ATOM     14  H31 UNL     1      94.639 -24.598  50.767  1.00  0.00     0.277 HD
ENDBRANCH   8   9
ENDBRANCH   1   8
TORSDOF 3
ENDMDL