MODEL 3
REMARK VINA RESULT: -4.409412179      2.348      2.397
REMARK  3 active torsions:
REMARK  status: ('A' for Active; 'I' for Inactive)
REMARK    1  A    between atoms: O1_2  and  C2_3
REMARK    2  A    between atoms: C4_5  and  N1_6
REMARK    3  A    between atoms: N1_6  and  C5_8
ROOT
HETATM    1  C2  UNL     1      95.236 -23.476  51.339  1.00  0.00     0.326 C
HETATM    2  C3  UNL     1      96.650 -23.263  51.855  1.00  0.00     0.115 C
HETATM    3  C4  UNL     1      96.201 -21.881  52.223  1.00  0.00     0.291 C
HETATM    4  N3  UNL     1      95.088 -22.013  51.314  1.00  0.00    -0.028 N
ATOM      5  H31 UNL     1      94.190 -21.588  51.544  1.00  0.00     0.282 HD
ATOM      6  H32 UNL     1      95.097 -21.516  50.424  1.00  0.00     0.282 HD
ENDROOT
BRANCH   3   7
HETATM    7  N1  UNL     1      97.079 -20.803  51.883  1.00  0.00    -0.359 N
ATOM      8  H1  UNL     1      97.362 -20.711  50.907  1.00  0.00     0.162 HD
BRANCH   7   9
HETATM    9  C5  UNL     1      97.585 -19.850  52.809  1.00  0.00     0.170 C
HETATM   10  N2  UNL     1      97.292 -18.617  52.642  1.00  0.00    -0.395 N
ATOM     11  H22 UNL     1      96.706 -18.339  51.855  1.00  0.00     0.156 HD
ATOM     12  H21 UNL     1      97.656 -17.934  53.307  1.00  0.00     0.156 HD
ENDBRANCH   7   9
ENDBRANCH   3   7
BRANCH   1  13
HETATM   13  O1  UNL     1      94.360 -23.990  52.291  1.00  0.00    -0.364 OA
HETATM   14  C1  UNL     1      94.353 -25.381  52.130  1.00  0.00     0.204 C
ENDBRANCH   1  13
TORSDOF 3
ENDMDL