MODEL 5
REMARK VINA RESULT: -4.538339125      2.539      5.102
REMARK  5 active torsions:
REMARK  status: ('A' for Active; 'I' for Inactive)
REMARK    1  A    between atoms: N1_2  and  N2_4
REMARK    2  A    between atoms: C2_6  and  N3_7
REMARK    3  A    between atoms: N3_7  and  C3_9
REMARK    4  A    between atoms: C3_9  and  C4_10
REMARK    5  A    between atoms: C6_12  and  N4_13
ROOT
HETATM    1  N3  UNL     1      96.266 -24.826  49.166  1.00  0.00    -0.385 N
ATOM      2  H3  UNL     1      96.971 -24.414  48.556  1.00  0.00     0.160 HD
ENDROOT
BRANCH   1   3
HETATM    3  C2  UNL     1      95.183 -25.622  48.649  1.00  0.00     0.192 C
HETATM    4  N2  UNL     1      94.419 -25.072  47.780  1.00  0.00    -0.301 N
ATOM      5  H2  UNL     1      94.597 -24.111  47.488  1.00  0.00     0.187 HD
BRANCH   4   6
HETATM    6  N1  UNL     1      93.353 -25.769  47.233  1.00  0.00    -0.340 N
HETATM    7  C1  UNL     1      93.443 -27.186  47.003  1.00  0.00     0.167 C
ATOM      8  H1  UNL     1      92.495 -25.272  46.992  1.00  0.00     0.179 HD
ENDBRANCH   4   6
ENDBRANCH   1   3
BRANCH   1   9
HETATM    9  C3  UNL     1      96.296 -24.649  50.572  1.00  0.00     0.127 C
BRANCH   9  10
HETATM   10  C4  UNL     1      95.205 -25.329  51.290  1.00  0.00     0.036 A
HETATM   11  C5  UNL     1      95.521 -26.295  52.395  1.00  0.00     0.041 A
HETATM   12  C6  UNL     1      94.879 -24.991  52.728  1.00  0.00     0.189 A
BRANCH  12  13
HETATM   13  N4  UNL     1      93.449 -24.973  53.002  1.00  0.00    -0.075 N
ATOM     14  H43 UNL     1      93.197 -25.708  53.663  1.00  0.00     0.274 HD
ATOM     15  H42 UNL     1      93.197 -24.155  53.557  1.00  0.00     0.274 HD
ATOM     16  H41 UNL     1      92.879 -25.031  52.159  1.00  0.00     0.274 HD
ENDBRANCH  12  13
ENDBRANCH   9  10
ENDBRANCH   1   9
TORSDOF 5
ENDMDL