MODEL 1
REMARK VINA RESULT: -5.092522254      0.000      0.000
REMARK  3 active torsions:
REMARK  status: ('A' for Active; 'I' for Inactive)
REMARK    1  A    between atoms: C2_4  and  C3_5
REMARK    2  A    between atoms: C3_5  and  N2_6
REMARK    3  A    between atoms: N2_6  and  C4_8
ROOT
HETATM    1  C3  UNL     1      98.199 -21.136  53.297  1.00  0.00     0.181 C
ENDROOT
BRANCH   1   2
HETATM    2  C2  UNL     1      96.998 -22.017  53.141  1.00  0.00     0.043 A
HETATM    3  N1  UNL     1      96.672 -22.771  52.074  1.00  0.00    -0.353 N
HETATM    4  C1  UNL     1      95.520 -23.411  52.333  1.00  0.00     0.180 A
ATOM      5  H1  UNL     1      97.212 -22.845  51.212  1.00  0.00     0.166 HD
HETATM    6  N5  UNL     1      95.079 -23.088  53.563  1.00  0.00    -0.360 N
HETATM    7  C5  UNL     1      95.995 -22.228  54.055  1.00  0.00     0.115 A
ATOM      8  H5  UNL     1      94.233 -23.422  54.025  1.00  0.00     0.166 HD
ENDBRANCH   1   2
BRANCH   1   9
HETATM    9  N2  UNL     1      98.019 -19.921  52.554  1.00  0.00    -0.354 N
ATOM     10  H2  UNL     1      98.623 -19.750  51.751  1.00  0.00     0.163 HD
BRANCH   9  11
HETATM   11  C4  UNL     1      97.041 -18.950  52.881  1.00  0.00     0.209 A
HETATM   12  N3  UNL     1      96.348 -17.939  52.476  1.00  0.00    -0.267 N
HETATM   13  N4  UNL     1      96.114 -18.314  53.751  1.00  0.00    -0.267 N
ATOM     14  H3  UNL     1      96.128 -17.297  51.715  1.00  0.00     0.190 HD
ATOM     15  H4  UNL     1      95.639 -18.216  54.647  1.00  0.00     0.190 HD
ENDBRANCH   9  11
ENDBRANCH   1   9
TORSDOF 3
ENDMDL