MODEL 1
REMARK VINA RESULT: -4.356739427      0.000      0.000
REMARK  2 active torsions:
REMARK  status: ('A' for Active; 'I' for Inactive)
REMARK    1  A    between atoms: C3_6  and  C4_7
REMARK    2  A    between atoms: C4_7  and  N2_8
ROOT
HETATM    1  C1  UNL     1      93.798 -27.920  47.146  1.00  0.00     0.071 C
HETATM    2  C2  UNL     1      92.852 -26.754  47.102  1.00  0.00     0.383 C
HETATM    3  N1  UNL     1      92.355 -26.483  48.452  1.00  0.00    -0.016 N
ATOM      4  H11 UNL     1      92.153 -27.238  49.108  1.00  0.00     0.282 HD
ATOM      5  H12 UNL     1      91.410 -26.134  48.612  1.00  0.00     0.282 HD
HETATM    6  C3  UNL     1      93.522 -25.626  48.615  1.00  0.00     0.415 C
HETATM    7  N3  UNL     1      93.515 -25.463  47.175  1.00  0.00    -0.016 N
ATOM      8  H31 UNL     1      93.109 -24.635  46.738  1.00  0.00     0.282 HD
ATOM      9  H32 UNL     1      94.377 -25.281  46.660  1.00  0.00     0.282 HD
ENDROOT
BRANCH   6  10
HETATM   10  C4  UNL     1      93.135 -24.397  49.393  1.00  0.00     0.333 C
BRANCH  10  11
HETATM   11  N2  UNL     1      94.141 -23.912  50.281  1.00  0.00     0.083 N
HETATM   12  C5  UNL     1      95.200 -24.914  50.337  1.00  0.00     0.309 C
HETATM   13  C6  UNL     1      94.716 -22.642  49.897  1.00  0.00     0.309 C
ENDBRANCH  10  11
ENDBRANCH   6  10
TORSDOF 2
ENDMDL