MODEL 4
REMARK VINA RESULT: -7.460912835      3.707      7.143
REMARK  10 active torsions:
REMARK  status: ('A' for Active; 'I' for Inactive)
REMARK    1  A    between atoms: N1_1  and  C1_4
REMARK    2  A    between atoms: N5_15  and  C5_16
REMARK    3  A    between atoms: C6_18  and  O2_19
REMARK    4  A    between atoms: C6_18  and  C7_21
REMARK    5  A    between atoms: C8_24  and  N6_25
REMARK    6  A    between atoms: C8_24  and  C12_37
REMARK       I    between atoms: N6_25  and  C9_27
REMARK    7  A    between atoms: C9_27  and  C10_29
REMARK    8  A    between atoms: C10_29  and  C11_30
REMARK    9  A    between atoms: C11_30  and  O6_31
REMARK   10  A    between atoms: N7_33  and  O7_35
ROOT
HETATM    1  C5  UNL     1      24.086  -1.092  16.889  1.00  0.00     0.386 C
HETATM    2  O1  UNL     1      24.121  -2.200  17.694  1.00  0.00    -0.292 OA
HETATM    3  C6  UNL     1      22.894  -2.882  17.404  1.00  0.00     0.320 C
HETATM    4  C8  UNL     1      22.699  -2.621  15.968  1.00  0.00     0.300 C
HETATM    5  O10 UNL     1      23.211  -1.317  15.841  1.00  0.00    -0.297 OA
ENDROOT
BRANCH   1   6
HETATM    6  N5  UNL     1      25.342  -0.527  16.525  1.00  0.00    -0.277 N
HETATM    7  C4  UNL     1      25.506   0.127  15.341  1.00  0.00     0.190 A
HETATM    8  N4  UNL     1      26.753   0.560  15.240  1.00  0.00    -0.346 N
HETATM    9  C3  UNL     1      27.447   0.220  16.321  1.00  0.00     0.123 A
ATOM     10  H4  UNL     1      27.127   1.079  14.446  1.00  0.00     0.167 HD
HETATM   11  C2  UNL     1      28.757   0.427  16.700  1.00  0.00     0.145 A
HETATM   12  C13 UNL     1      26.536  -0.467  17.124  1.00  0.00     0.158 A
HETATM   13  N2  UNL     1      29.112  -0.079  17.905  1.00  0.00    -0.175 N
HETATM   14  N3  UNL     1      29.606   1.050  15.988  1.00  0.00    -0.383 N
HETATM   15  C1  UNL     1      28.226  -0.741  18.671  1.00  0.00     0.679 A
ATOM     16  H2  UNL     1      30.069   0.044  18.237  1.00  0.00     0.186 HD
HETATM   17  N8  UNL     1      26.937  -0.940  18.292  1.00  0.00    -0.174 N
ATOM     18  H8  UNL     1      26.290  -1.446  18.897  1.00  0.00     0.186 HD
ATOM     19  H32 UNL     1      30.574   1.203  16.269  1.00  0.00     0.157 HD
ATOM     20  H31 UNL     1      29.338   1.432  15.081  1.00  0.00     0.157 HD
BRANCH  15  21
HETATM   21  N1  UNL     1      28.599  -1.214  19.824  1.00  0.00    -0.234 N
ATOM     22  H12 UNL     1      29.535  -0.979  20.154  1.00  0.00     0.174 HD
ATOM     23  H11 UNL     1      27.960  -1.800  20.360  1.00  0.00     0.174 HD
ENDBRANCH  15  21
ENDBRANCH   1   6
BRANCH   3  24
HETATM   24  O2  UNL     1      21.980  -2.287  18.253  1.00  0.00    -0.353 OA
ATOM     25  H2  UNL     1      21.208  -2.177  17.710  1.00  0.00     0.213 HD
ENDBRANCH   3  24
BRANCH   3  26
HETATM   26  C7  UNL     1      23.112  -4.290  17.801  1.00  0.00     0.245 C
HETATM   27  O3  UNL     1      22.147  -5.100  17.566  1.00  0.00    -0.644 OA
HETATM   28  O4  UNL     1      24.206  -4.841  18.384  1.00  0.00    -0.644 OA
ENDBRANCH   3  26
BRANCH   4  29
HETATM   29  N6  UNL     1      21.305  -2.663  15.602  1.00  0.00    -0.310 N
HETATM   30  C9  UNL     1      20.573  -1.755  14.841  1.00  0.00     0.271 C
HETATM   31  O5  UNL     1      21.141  -0.736  14.354  1.00  0.00    -0.266 OA
ATOM     32  H6  UNL     1      20.783  -3.468  15.949  1.00  0.00     0.166 HD
BRANCH  30  33
HETATM   33  C10 UNL     1      19.157  -1.923  14.571  1.00  0.00     0.122 C
HETATM   34  N7  UNL     1      18.231  -1.089  14.667  1.00  0.00    -0.266 N
ATOM     35  H7  UNL     1      17.326  -1.485  14.412  1.00  0.00     0.194 HD
BRANCH  33  36
HETATM   36  C11 UNL     1      18.755  -3.314  14.108  1.00  0.00     0.229 C
BRANCH  36  37
HETATM   37  O6  UNL     1      19.844  -3.899  13.529  1.00  0.00    -0.395 OA
ATOM     38  H6  UNL     1      19.536  -4.571  12.932  1.00  0.00     0.209 HD
ENDBRANCH  36  37
ENDBRANCH  33  36
BRANCH  34  39
HETATM   39  O7  UNL     1      18.141   0.186  15.020  1.00  0.00    -0.290 OA
ATOM     40  H7  UNL     1      17.984   1.005  14.565  1.00  0.00     0.244 HD
ENDBRANCH  34  39
ENDBRANCH  30  33
ENDBRANCH   4  29
BRANCH   4  41
HETATM   41  C12 UNL     1      23.446  -3.492  15.036  1.00  0.00     0.238 C
HETATM   42  O8  UNL     1      22.842  -4.339  14.298  1.00  0.00    -0.644 OA
HETATM   43  O9  UNL     1      24.817  -3.457  14.893  1.00  0.00    -0.644 OA
ENDBRANCH   4  41
TORSDOF 10
ENDMDL