MODEL 4
REMARK VINA RESULT: -8.275541680      2.423      5.324
REMARK  11 active torsions:
REMARK  status: ('A' for Active; 'I' for Inactive)
REMARK    1  A    between atoms: N1_1  and  C1_4
REMARK    2  A    between atoms: N3_8  and  N4_9
REMARK    3  A    between atoms: N4_9  and  S1_11
REMARK    4  A    between atoms: S1_11  and  N5_14
REMARK    5  A    between atoms: N5_14  and  C3_16
REMARK    6  A    between atoms: C3_16  and  N6_17
REMARK    7  A    between atoms: C3_16  and  C4_20
REMARK    8  A    between atoms: N6_17  and  O3_18
REMARK    9  A    between atoms: C5_25  and  N8_26
REMARK   10  A    between atoms: C8_32  and  O7_33
REMARK   11  A    between atoms: C10_38  and  N11_39
ROOT
HETATM    1  C1  UNL     1      21.483  -1.932  14.829  1.00  0.00     0.679 A
HETATM    2  N2  UNL     1      22.696  -1.334  14.849  1.00  0.00    -0.171 N
ATOM      3  H2  UNL     1      22.985  -0.787  14.038  1.00  0.00     0.186 HD
HETATM    4  C2  UNL     1      23.529  -1.429  15.886  1.00  0.00     0.192 A
HETATM    5  N3  UNL     1      24.726  -0.835  15.889  1.00  0.00    -0.152 N
HETATM    6  N7  UNL     1      25.499  -0.972  16.946  1.00  0.00    -0.106 N
ATOM      7  H7  UNL     1      26.411  -0.517  16.946  1.00  0.00     0.208 HD
HETATM    8  C5  UNL     1      25.139  -1.677  18.009  1.00  0.00     0.722 A
HETATM    9  N10 UNL     1      23.954  -2.301  18.079  1.00  0.00    -0.181 N
ATOM     10  H10 UNL     1      23.701  -2.836  18.911  1.00  0.00     0.184 HD
HETATM   11  C9  UNL     1      23.107  -2.215  17.049  1.00  0.00     0.141 A
HETATM   12  C10 UNL     1      21.868  -2.814  17.008  1.00  0.00     0.146 A
HETATM   13  N12 UNL     1      21.116  -2.647  15.905  1.00  0.00    -0.175 N
ATOM     14  H12 UNL     1      20.201  -3.097  15.885  1.00  0.00     0.186 HD
ENDROOT
BRANCH   5  15
HETATM   15  N4  UNL     1      25.123  -0.070  14.790  1.00  0.00    -0.186 N
ATOM     16  H4  UNL     1      24.545   0.711  14.480  1.00  0.00     0.204 HD
BRANCH  15  17
HETATM   17  S1  UNL     1      26.565  -0.435  13.969  1.00  0.00     0.336 S
HETATM   18  O1  UNL     1      26.837   0.649  12.932  1.00  0.00    -0.181 OA
HETATM   19  O2  UNL     1      26.355  -1.743  13.219  1.00  0.00    -0.181 OA
BRANCH  17  20
HETATM   20  N5  UNL     1      27.954  -0.532  14.947  1.00  0.00    -0.270 N
ATOM     21  H5  UNL     1      28.480  -1.386  15.134  1.00  0.00     0.176 HD
BRANCH  20  22
HETATM   22  C3  UNL     1      28.275   0.763  15.468  1.00  0.00     0.316 C
BRANCH  22  23
HETATM   23  N6  UNL     1      27.127   1.418  16.077  1.00  0.00    -0.066 NA
BRANCH  23  24
HETATM   24  O3  UNL     1      27.196   1.335  17.420  1.00  0.00    -0.294 OA
ATOM     25  H3  UNL     1      28.090   1.470  17.715  1.00  0.00     0.238 HD
ENDBRANCH  23  24
ENDBRANCH  22  23
BRANCH  22  26
HETATM   26  C4  UNL     1      29.391   0.738  16.456  1.00  0.00     0.216 C
HETATM   27  O4  UNL     1      29.591  -0.315  17.095  1.00  0.00    -0.645 OA
HETATM   28  O5  UNL     1      30.156   1.879  16.623  1.00  0.00    -0.645 OA
ENDBRANCH  22  26
ENDBRANCH  20  22
ENDBRANCH  17  20
ENDBRANCH  15  17
ENDBRANCH   5  15
BRANCH   8  29
HETATM   29  N8  UNL     1      26.027  -1.767  19.128  1.00  0.00    -0.059 N
HETATM   30  N9  UNL     1      27.328  -1.524  19.108  1.00  0.00    -0.243 N
HETATM   31  C6  UNL     1      27.852  -1.703  20.328  1.00  0.00     0.264 A
ATOM     32  H9  UNL     1      27.855  -1.241  18.282  1.00  0.00     0.191 HD
HETATM   33  O6  UNL     1      29.057  -1.562  20.685  1.00  0.00    -0.267 OA
HETATM   34  C7  UNL     1      26.821  -2.077  21.150  1.00  0.00     0.134 A
HETATM   35  C8  UNL     1      25.684  -2.110  20.370  1.00  0.00     0.185 A
BRANCH  35  36
HETATM   36  O7  UNL     1      24.433  -2.445  20.836  1.00  0.00    -0.344 OA
ATOM     37  H7  UNL     1      24.059  -3.314  20.926  1.00  0.00     0.219 HD
ENDBRANCH  35  36
ENDBRANCH   8  29
BRANCH   1  38
HETATM   38  N1  UNL     1      20.693  -1.822  13.791  1.00  0.00    -0.234 N
ATOM     39  H12 UNL     1      20.779  -1.037  13.146  1.00  0.00     0.174 HD
ATOM     40  H11 UNL     1      19.970  -2.516  13.605  1.00  0.00     0.174 HD
ENDBRANCH   1  38
BRANCH  12  41
HETATM   41  N11 UNL     1      21.472  -3.512  18.017  1.00  0.00    -0.383 N
ATOM     42 2H11 UNL     1      21.896  -4.405  18.265  1.00  0.00     0.157 HD
ATOM     43 1H11 UNL     1      20.708  -3.162  18.596  1.00  0.00     0.157 HD
ENDBRANCH  12  41
TORSDOF 11
ENDMDL