MODEL 5
REMARK VINA RESULT: -7.712452976      1.886      3.564
REMARK  10 active torsions:
REMARK  status: ('A' for Active; 'I' for Inactive)
REMARK    1  A    between atoms: C2_2  and  N1_3
REMARK    2  A    between atoms: C2_2  and  C14_41
REMARK       I    between atoms: N1_3  and  C3_5
REMARK    3  A    between atoms: C3_5  and  C4_7
REMARK    4  A    between atoms: C6_9  and  N2_10
REMARK    5  A    between atoms: N3_13  and  C7_14
REMARK    6  A    between atoms: C7_14  and  C8_15
REMARK    7  A    between atoms: C9_18  and  N5_19
REMARK    8  A    between atoms: N10_32  and  O3_34
REMARK    9  A    between atoms: C14_41  and  O5_42
REMARK   10  A    between atoms: C14_41  and  O6_44
ROOT
HETATM    1  C7  UNL     1      24.512  -2.555  18.993  1.00  0.00     0.195 C
ENDROOT
BRANCH   1   2
HETATM    2  N3  UNL     1      23.690  -3.692  18.497  1.00  0.00    -0.280 N
HETATM    3  C6  UNL     1      22.475  -3.519  17.991  1.00  0.00     0.107 A
HETATM    4  C5  UNL     1      21.742  -4.587  17.460  1.00  0.00     0.083 A
HETATM    5  C4  UNL     1      22.259  -5.846  17.447  1.00  0.00     0.108 A
HETATM    6  N11 UNL     1      23.493  -6.003  17.964  1.00  0.00    -0.304 N
HETATM    7  C13 UNL     1      24.169  -4.947  18.466  1.00  0.00     0.329 A
ATOM      8  H11 UNL     1      23.921  -6.929  17.977  1.00  0.00     0.171 HD
HETATM    9  O4  UNL     1      25.317  -5.209  18.915  1.00  0.00    -0.246 OA
BRANCH   3  10
HETATM   10  N2  UNL     1      21.911  -2.346  17.968  1.00  0.00    -0.385 N
ATOM     11  H22 UNL     1      22.450  -1.494  18.123  1.00  0.00     0.157 HD
ATOM     12  H21 UNL     1      20.907  -2.319  17.790  1.00  0.00     0.157 HD
ENDBRANCH   3  10
BRANCH   5  13
HETATM   13  C3  UNL     1      21.493  -6.951  16.894  1.00  0.00     0.268 C
HETATM   14  N1  UNL     1      20.315  -7.477  17.463  1.00  0.00    -0.347 N
ATOM     15  H1  UNL     1      19.965  -7.061  18.325  1.00  0.00     0.163 HD
HETATM   16  O1  UNL     1      21.897  -7.489  15.830  1.00  0.00    -0.266 OA
BRANCH  14  17
HETATM   17  C2  UNL     1      19.586  -8.571  16.887  1.00  0.00     0.135 C
HETATM   18  C1  UNL     1      18.302  -8.085  16.206  1.00  0.00     0.037 C
BRANCH  17  19
HETATM   19  C14 UNL     1      19.129  -9.537  17.967  1.00  0.00     0.276 C
BRANCH  19  20
HETATM   20  O5  UNL     1      19.118  -8.937  19.231  1.00  0.00    -0.369 OA
ATOM     21  H5  UNL     1      19.349  -9.553  19.916  1.00  0.00     0.212 HD
ENDBRANCH  19  20
BRANCH  19  22
HETATM   22  O6  UNL     1      19.922 -10.655  18.040  1.00  0.00    -0.369 OA
ATOM     23  H6  UNL     1      19.551 -11.328  18.599  1.00  0.00     0.212 HD
ENDBRANCH  19  22
ENDBRANCH  17  19
ENDBRANCH  14  17
ENDBRANCH   5  13
ENDBRANCH   1   2
BRANCH   1  24
HETATM   24  C8  UNL     1      25.246  -2.058  17.844  1.00  0.00     0.062 A
HETATM   25  N4  UNL     1      24.787  -2.271  16.565  1.00  0.00    -0.338 N
HETATM   26  C9  UNL     1      25.486  -1.982  15.458  1.00  0.00     0.171 A
ATOM     27  H4  UNL     1      23.857  -2.673  16.452  1.00  0.00     0.167 HD
HETATM   28  C10 UNL     1      26.727  -1.443  15.601  1.00  0.00     0.312 A
HETATM   29  O2  UNL     1      27.405  -1.165  14.572  1.00  0.00    -0.262 OA
HETATM   30  N6  UNL     1      27.241  -1.202  16.816  1.00  0.00    -0.196 N
HETATM   31  N7  UNL     1      28.428  -0.638  16.941  1.00  0.00    -0.218 N
HETATM   32  C12 UNL     1      26.517  -1.499  17.946  1.00  0.00     0.133 A
HETATM   33  N8  UNL     1      28.934  -0.350  18.113  1.00  0.00    -0.226 N
ATOM     34  H7  UNL     1      28.966  -0.422  16.102  1.00  0.00     0.210 HD
HETATM   35  N9  UNL     1      28.297  -0.601  19.225  1.00  0.00    -0.266 N
ATOM     36  H8  UNL     1      29.856   0.085  18.160  1.00  0.00     0.210 HD
HETATM   37  C11 UNL     1      27.070  -1.181  19.162  1.00  0.00     0.172 A
ATOM     38  H9  UNL     1      28.713  -0.366  20.126  1.00  0.00     0.190 HD
HETATM   39  N10 UNL     1      26.418  -1.366  20.249  1.00  0.00    -0.250 N
ATOM     40  H10 UNL     1      25.496  -1.800  20.227  1.00  0.00     0.196 HD
BRANCH  26  41
HETATM   41  N5  UNL     1      24.964  -2.225  14.277  1.00  0.00    -0.381 N
ATOM     42  H52 UNL     1      24.509  -1.496  13.726  1.00  0.00     0.157 HD
ATOM     43  H51 UNL     1      25.010  -3.166  13.887  1.00  0.00     0.157 HD
ENDBRANCH  26  41
BRANCH  39  44
HETATM   44  O3  UNL     1      26.969  -0.976  21.437  1.00  0.00    -0.288 OA
ATOM     45  H3  UNL     1      26.909  -1.552  22.190  1.00  0.00     0.244 HD
ENDBRANCH  39  44
ENDBRANCH   1  24
TORSDOF 10
ENDMDL