MODEL 4
REMARK VINA RESULT: -7.421416934      2.309      4.130
REMARK  12 active torsions:
REMARK  status: ('A' for Active; 'I' for Inactive)
REMARK    1  A    between atoms: C5_12  and  C6_13
REMARK    2  A    between atoms: N4_14  and  N5_16
REMARK    3  A    between atoms: N5_16  and  C7_18
REMARK    4  A    between atoms: C8_22  and  C9_23
REMARK    5  A    between atoms: C9_23  and  N8_24
REMARK    6  A    between atoms: C9_23  and  O2_28
REMARK    7  A    between atoms: C10_32  and  C11_33
REMARK    8  A    between atoms: C11_33  and  O3_34
REMARK    9  A    between atoms: C11_33  and  C12_36
REMARK   10  A    between atoms: C12_36  and  O4_37
REMARK   11  A    between atoms: C12_36  and  C13_39
REMARK   12  A    between atoms: C13_39  and  O5_40
ROOT
HETATM    1  C13 UNL     1      29.206  -0.193  17.748  1.00  0.00     0.255 C
HETATM    2  C14 UNL     1      30.180   0.896  17.506  1.00  0.00     0.093 C
HETATM    3  N10 UNL     1      30.929   1.762  17.317  1.00  0.00    -0.194 NA
ENDROOT
BRANCH   1   4
HETATM    4  C12 UNL     1      27.872   0.338  17.350  1.00  0.00     0.192 C
BRANCH   4   5
HETATM    5  C11 UNL     1      27.763   0.621  15.882  1.00  0.00     0.180 C
BRANCH   5   6
HETATM    6  C10 UNL     1      27.691  -0.634  15.022  1.00  0.00     0.180 C
HETATM    7  C7  UNL     1      26.355  -0.774  14.400  1.00  0.00     0.133 C
HETATM    8  N6  UNL     1      26.160  -0.285  13.229  1.00  0.00    -0.288 N
HETATM    9  N7  UNL     1      27.247   0.342  12.605  1.00  0.00    -0.110 NA
ATOM     10  H6  UNL     1      25.251  -0.350  12.771  1.00  0.00     0.183 HD
HETATM   11  C8  UNL     1      28.481  -0.459  12.727  1.00  0.00     0.249 C
HETATM   12  N9  UNL     1      28.737  -0.797  14.095  1.00  0.00    -0.386 N
ATOM     13  H9  UNL     1      29.649  -1.145  14.388  1.00  0.00     0.155 HD
BRANCH   7  14
HETATM   14  N5  UNL     1      25.289  -1.440  15.120  1.00  0.00    -0.287 N
ATOM     15  H5  UNL     1      25.291  -2.452  15.250  1.00  0.00     0.188 HD
BRANCH  14  16
HETATM   16  N4  UNL     1      24.279  -0.661  15.622  1.00  0.00    -0.307 N
HETATM   17  C6  UNL     1      23.522  -1.016  16.564  1.00  0.00     0.155 C
ATOM     18  H4  UNL     1      24.132   0.259  15.208  1.00  0.00     0.186 HD
BRANCH  17  19
HETATM   19  C5  UNL     1      23.646  -2.294  17.217  1.00  0.00     0.125 A
HETATM   20  N3  UNL     1      24.275  -2.325  18.426  1.00  0.00    -0.306 N
HETATM   21  C4  UNL     1      24.453  -3.447  19.136  1.00  0.00     0.277 A
ATOM     22  H3  UNL     1      24.627  -1.448  18.811  1.00  0.00     0.170 HD
HETATM   23  C3  UNL     1      23.999  -4.655  18.666  1.00  0.00     0.145 A
HETATM   24  O1  UNL     1      25.043  -3.445  20.261  1.00  0.00    -0.266 OA
HETATM   25  N2  UNL     1      24.007  -5.923  19.097  1.00  0.00    -0.293 N
HETATM   26  C15 UNL     1      23.360  -4.631  17.438  1.00  0.00     0.091 A
HETATM   27  N1  UNL     1      23.409  -6.716  18.218  1.00  0.00    -0.302 N
ATOM     28  H2  UNL     1      24.416  -6.235  19.977  1.00  0.00     0.187 HD
HETATM   29  C2  UNL     1      23.004  -5.948  17.192  1.00  0.00     0.051 A
ATOM     30  H1  UNL     1      23.281  -7.723  18.305  1.00  0.00     0.186 HD
HETATM   31  C1  UNL     1      22.286  -6.399  15.967  1.00  0.00     0.072 C
HETATM   32  N11 UNL     1      23.208  -3.471  16.767  1.00  0.00    -0.338 N
ATOM     33  H11 UNL     1      22.732  -3.495  15.866  1.00  0.00     0.167 HD
ENDBRANCH  17  19
ENDBRANCH  14  16
ENDBRANCH   7  14
BRANCH  11  34
HETATM   34  C9  UNL     1      29.658   0.187  12.084  1.00  0.00     0.356 C
BRANCH  34  35
HETATM   35  N8  UNL     1      30.170   1.197  12.984  1.00  0.00    -0.050 N
ATOM     36  H83 UNL     1      30.446   0.814  13.888  1.00  0.00     0.277 HD
ATOM     37  H82 UNL     1      31.084   1.550  12.699  1.00  0.00     0.277 HD
ATOM     38  H81 UNL     1      29.473   1.937  13.068  1.00  0.00     0.277 HD
ENDBRANCH  34  35
BRANCH  34  39
HETATM   39  O2  UNL     1      30.602  -0.807  11.800  1.00  0.00    -0.367 OA
ATOM     40  H2  UNL     1      31.469  -0.443  11.942  1.00  0.00     0.212 HD
ENDBRANCH  34  39
ENDBRANCH  11  34
ENDBRANCH   5   6
BRANCH   5  41
HETATM   41  O3  UNL     1      26.519   1.315  15.752  1.00  0.00    -0.390 OA
ATOM     42  H3  UNL     1      26.190   1.489  16.625  1.00  0.00     0.210 HD
ENDBRANCH   5  41
ENDBRANCH   4   5
BRANCH   4  43
HETATM   43  O4  UNL     1      26.791  -0.361  17.868  1.00  0.00    -0.389 OA
ATOM     44  H4  UNL     1      26.834  -1.299  17.722  1.00  0.00     0.210 HD
ENDBRANCH   4  43
ENDBRANCH   1   4
BRANCH   1  45
HETATM   45  O5  UNL     1      29.217  -0.379  19.152  1.00  0.00    -0.379 OA
ATOM     46  H5  UNL     1      29.946  -0.945  19.377  1.00  0.00     0.211 HD
ENDBRANCH   1  45
TORSDOF 12
ENDMDL