MODEL 1
REMARK VINA RESULT: -7.139662234      0.000      0.000
REMARK  11 active torsions:
REMARK  status: ('A' for Active; 'I' for Inactive)
REMARK    1  A    between atoms: O1_2  and  C2_3
REMARK    2  A    between atoms: C2_3  and  C3_4
REMARK    3  A    between atoms: C3_4  and  N1_5
REMARK    4  A    between atoms: C3_4  and  C16_41
REMARK    5  A    between atoms: N1_5  and  C4_7
REMARK    6  A    between atoms: C5_10  and  O2_11
REMARK    7  A    between atoms: N5_21  and  C10_22
REMARK    8  A    between atoms: C11_25  and  N7_26
REMARK    9  A    between atoms: C13_34  and  N10_35
REMARK   10  A    between atoms: C16_41  and  O3_42
REMARK   11  A    between atoms: C16_41  and  O4_44
ROOT
HETATM    1  C4  UNL     1      21.749  -6.774  17.017  1.00  0.00     0.675 C
HETATM    2  N2  UNL     1      21.632  -5.505  16.823  1.00  0.00    -0.150 N
ATOM      3  H2  UNL     1      21.012  -5.033  17.481  1.00  0.00     0.184 HD
HETATM    4  C5  UNL     1      22.240  -4.618  15.815  1.00  0.00     0.409 C
HETATM    5  N3  UNL     1      22.322  -5.268  14.544  1.00  0.00     0.005 N
ATOM      6  H31 UNL     1      22.305  -4.632  13.747  1.00  0.00     0.286 HD
ATOM      7  H32 UNL     1      21.485  -5.790  14.286  1.00  0.00     0.286 HD
HETATM    8  C7  UNL     1      23.509  -6.065  14.638  1.00  0.00     0.230 C
HETATM    9  C8  UNL     1      23.217  -7.512  14.962  1.00  0.00     0.173 C
HETATM   10  N4  UNL     1      22.550  -7.654  16.239  1.00  0.00    -0.224 N
ATOM     11  H4  UNL     1      22.682  -8.571  16.667  1.00  0.00     0.177 HD
HETATM   12  C9  UNL     1      24.409  -5.424  15.640  1.00  0.00     0.166 C
HETATM   13  N5  UNL     1      23.610  -4.330  16.164  1.00  0.00    -0.289 N
ENDROOT
BRANCH  13  14
HETATM   14  C10 UNL     1      24.168  -3.270  16.898  1.00  0.00     0.155 A
HETATM   15  N6  UNL     1      24.154  -3.351  18.269  1.00  0.00    -0.174 N
HETATM   16  C11 UNL     1      24.665  -2.397  19.047  1.00  0.00     0.679 A
ATOM     17  H6  UNL     1      23.737  -4.173  18.708  1.00  0.00     0.186 HD
HETATM   18  N8  UNL     1      25.224  -1.303  18.505  1.00  0.00    -0.174 N
HETATM   19  C12 UNL     1      25.276  -1.155  17.186  1.00  0.00     0.167 A
ATOM     20  H8  UNL     1      25.612  -0.580  19.112  1.00  0.00     0.186 HD
HETATM   21  N9  UNL     1      25.788  -0.167  16.431  1.00  0.00    -0.174 N
HETATM   22  C15 UNL     1      24.738  -2.158  16.356  1.00  0.00     0.141 A
HETATM   23  C13 UNL     1      25.584  -0.530  15.144  1.00  0.00     0.680 A
ATOM     24  H9  UNL     1      26.240   0.685  16.762  1.00  0.00     0.186 HD
HETATM   25  N11 UNL     1      24.954  -1.726  15.106  1.00  0.00    -0.180 N
HETATM   26  C14 UNL     1      24.613  -2.391  13.893  1.00  0.00     0.176 C
BRANCH  16  27
HETATM   27  N7  UNL     1      24.621  -2.534  20.340  1.00  0.00    -0.234 N
ATOM     28  H72 UNL     1      25.394  -2.979  20.834  1.00  0.00     0.174 HD
ATOM     29  H71 UNL     1      23.807  -2.193  20.852  1.00  0.00     0.174 HD
ENDBRANCH  16  27
BRANCH  23  30
HETATM   30  N10 UNL     1      25.948   0.182  14.134  1.00  0.00    -0.234 N
ATOM     31 2H10 UNL     1      26.739   0.003  13.515  1.00  0.00     0.174 HD
ATOM     32 1H10 UNL     1      25.466   1.029  13.834  1.00  0.00     0.174 HD
ENDBRANCH  23  30
ENDBRANCH  13  14
BRANCH   4  33
HETATM   33  O2  UNL     1      21.509  -3.457  15.856  1.00  0.00    -0.326 OA
HETATM   34  C6  UNL     1      21.061  -3.026  14.631  1.00  0.00     0.208 C
ENDBRANCH   4  33
BRANCH   1  35
HETATM   35  N1  UNL     1      21.053  -7.399  18.065  1.00  0.00    -0.215 N
ATOM     36  H1  UNL     1      21.567  -7.602  18.922  1.00  0.00     0.178 HD
BRANCH  35  37
HETATM   37  C3  UNL     1      19.659  -7.774  18.009  1.00  0.00     0.177 C
BRANCH  37  38
HETATM   38  C2  UNL     1      19.493  -9.262  18.224  1.00  0.00     0.197 C
BRANCH  38  39
HETATM   39  O1  UNL     1      18.158  -9.611  18.411  1.00  0.00    -0.394 OA
HETATM   40  C1  UNL     1      17.720 -10.490  17.421  1.00  0.00     0.201 C
ENDBRANCH  38  39
ENDBRANCH  37  38
BRANCH  37  41
HETATM   41  C16 UNL     1      18.957  -7.090  19.184  1.00  0.00     0.279 C
BRANCH  41  42
HETATM   42  O3  UNL     1      19.292  -7.702  20.369  1.00  0.00    -0.369 OA
ATOM     43  H3  UNL     1      19.525  -7.054  21.025  1.00  0.00     0.212 HD
ENDBRANCH  41  42
BRANCH  41  44
HETATM   44  O4  UNL     1      17.579  -7.131  19.046  1.00  0.00    -0.369 OA
ATOM     45  H4  UNL     1      17.190  -7.771  19.632  1.00  0.00     0.212 HD
ENDBRANCH  41  44
ENDBRANCH  37  41
ENDBRANCH  35  37
ENDBRANCH   1  35
TORSDOF 11
ENDMDL