MODEL 5
REMARK VINA RESULT: -8.214332874      1.791      3.806
REMARK  13 active torsions:
REMARK  status: ('A' for Active; 'I' for Inactive)
REMARK    1  A    between atoms: N1_2  and  C2_4
REMARK    2  A    between atoms: C4_8  and  C5_9
REMARK    3  A    between atoms: C5_9  and  O1_10
REMARK    4  A    between atoms: C5_9  and  O2_12
REMARK    5  A    between atoms: C7_15  and  N3_16
REMARK    6  A    between atoms: N3_16  and  C8_18
REMARK    7  A    between atoms: C8_18  and  O3_19
REMARK    8  A    between atoms: C8_18  and  C9_21
REMARK    9  A    between atoms: N6_27  and  O4_28
REMARK   10  A    between atoms: C12_30  and  N7_31
REMARK   11  A    between atoms: N7_31  and  O5_32
REMARK   12  A    between atoms: N7_31  and  N8_34
REMARK   13  A    between atoms: N8_34  and  O6_35
ROOT
HETATM    1  C9  UNL     1      27.829  -0.400  15.490  1.00  0.00     0.134 A
HETATM    2  N4  UNL     1      26.687  -1.072  15.715  1.00  0.00    -0.337 N
ATOM      3  H4  UNL     1      26.062  -1.300  14.942  1.00  0.00     0.167 HD
HETATM    4  C10 UNL     1      26.381  -1.441  16.972  1.00  0.00     0.110 A
HETATM    5  C11 UNL     1      25.206  -2.135  17.225  1.00  0.00     0.176 A
HETATM    6  N5  UNL     1      24.340  -2.445  16.141  1.00  0.00    -0.077 NA
HETATM    7  N6  UNL     1      24.958  -2.473  18.503  1.00  0.00    -0.177 N
HETATM    8  C12 UNL     1      25.785  -2.172  19.512  1.00  0.00     0.232 A
HETATM    9  N9  UNL     1      26.924  -1.505  19.304  1.00  0.00    -0.321 N
ATOM     10  H9  UNL     1      27.549  -1.279  20.078  1.00  0.00     0.169 HD
HETATM   11  C13 UNL     1      27.225  -1.137  18.034  1.00  0.00     0.134 A
HETATM   12  C14 UNL     1      28.397  -0.447  17.795  1.00  0.00     0.276 A
HETATM   13  O7  UNL     1      29.202  -0.143  18.710  1.00  0.00    -0.266 OA
HETATM   14  N10 UNL     1      28.657  -0.101  16.521  1.00  0.00    -0.307 N
ATOM     15  H10 UNL     1      29.517   0.409  16.322  1.00  0.00     0.170 HD
ENDROOT
BRANCH   1  16
HETATM   16  C8  UNL     1      28.205   0.027  14.107  1.00  0.00     0.287 C
BRANCH  16  17
HETATM   17  N3  UNL     1      27.135  -0.012  13.181  1.00  0.00    -0.356 N
ATOM     18  H3  UNL     1      26.669   0.880  13.009  1.00  0.00     0.162 HD
BRANCH  17  19
HETATM   19  C7  UNL     1      26.669  -1.010  12.530  1.00  0.00     0.060 A
HETATM   20  C2  UNL     1      27.254  -1.415  11.333  1.00  0.00     0.070 A
HETATM   21  C3  UNL     1      26.736  -2.489  10.662  1.00  0.00     0.119 A
HETATM   22  N2  UNL     1      25.667  -3.189  11.112  1.00  0.00    -0.363 N
HETATM   23  C4  UNL     1      25.079  -2.835  12.251  1.00  0.00     0.066 A
ATOM     24  H2  UNL     1      25.315  -3.983  10.579  1.00  0.00     0.165 HD
HETATM   25  C6  UNL     1      25.590  -1.744  12.950  1.00  0.00     0.061 A
BRANCH  20  26
HETATM   26  N1  UNL     1      28.384  -0.709  10.815  1.00  0.00    -0.391 N
HETATM   27  C1  UNL     1      29.496  -1.402  10.197  1.00  0.00     0.146 C
ATOM     28  H1  UNL     1      28.408   0.309  10.882  1.00  0.00     0.159 HD
ENDBRANCH  20  26
BRANCH  23  29
HETATM   29  C5  UNL     1      23.895  -3.599  12.762  1.00  0.00     0.305 C
BRANCH  29  30
HETATM   30  O1  UNL     1      24.257  -4.493  13.751  1.00  0.00    -0.366 OA
ATOM     31  H1  UNL     1      24.472  -5.345  13.389  1.00  0.00     0.213 HD
ENDBRANCH  29  30
BRANCH  29  32
HETATM   32  O2  UNL     1      22.977  -2.658  13.234  1.00  0.00    -0.366 OA
ATOM     33  H2  UNL     1      22.732  -2.927  14.112  1.00  0.00     0.213 HD
ENDBRANCH  29  32
ENDBRANCH  23  29
ENDBRANCH  17  19
ENDBRANCH  16  17
BRANCH  16  34
HETATM   34  O3  UNL     1      29.281  -0.751  13.679  1.00  0.00    -0.370 OA
ATOM     35  H3  UNL     1      29.961  -0.219  13.284  1.00  0.00     0.212 HD
ENDBRANCH  16  34
ENDBRANCH   1  16
BRANCH   7  36
HETATM   36  O4  UNL     1      23.782  -3.165  18.737  1.00  0.00    -0.279 OA
ATOM     37  H4  UNL     1      23.854  -4.111  18.794  1.00  0.00     0.245 HD
ENDBRANCH   7  36
BRANCH   8  38
HETATM   38  N7  UNL     1      25.466  -2.554  20.839  1.00  0.00    -0.011 NA
BRANCH  38  39
HETATM   39  O5  UNL     1      24.263  -2.028  21.148  1.00  0.00    -0.288 OA
ATOM     40  H5  UNL     1      24.275  -1.784  22.067  1.00  0.00     0.239 HD
ENDBRANCH  38  39
BRANCH  38  41
HETATM   41  N8  UNL     1      26.498  -2.095  21.650  1.00  0.00     0.026 NA
BRANCH  41  42
HETATM   42  O6  UNL     1      26.201  -0.983  22.322  1.00  0.00    -0.279 OA
ATOM     43  H6  UNL     1      26.620  -0.926  23.173  1.00  0.00     0.240 HD
ENDBRANCH  41  42
ENDBRANCH  38  41
ENDBRANCH   8  38
TORSDOF 13
ENDMDL