MODEL 4
REMARK VINA RESULT: -8.194373564      1.489      1.942
REMARK  11 active torsions:
REMARK  status: ('A' for Active; 'I' for Inactive)
REMARK    1  A    between atoms: N1_1  and  C1_4
REMARK    2  A    between atoms: C2_7  and  C3_8
REMARK    3  A    between atoms: C3_8  and  N3_9
REMARK    4  A    between atoms: C3_8  and  C12_41
REMARK    5  A    between atoms: C5_14  and  N5_15
REMARK    6  A    between atoms: C7_17  and  C8_18
REMARK       I    between atoms: C8_18  and  N6_20
REMARK    7  A    between atoms: N6_20  and  N7_22
REMARK       I    between atoms: N7_22  and  C9_24
REMARK    8  A    between atoms: C9_24  and  C10_26
REMARK    9  A    between atoms: C11_35  and  N11_36
REMARK   10  A    between atoms: C12_41  and  O5_42
REMARK   11  A    between atoms: C12_41  and  O6_44
ROOT
HETATM    1  N3  UNL     1      26.150  -2.161  18.944  1.00  0.00    -0.208 N
ATOM      2  H3  UNL     1      26.698  -3.021  18.922  1.00  0.00     0.178 HD
HETATM    3  C4  UNL     1      24.950  -2.356  18.648  1.00  0.00     0.708 A
HETATM    4  N4  UNL     1      24.549  -3.649  18.347  1.00  0.00    -0.019 N
ATOM      5  H4  UNL     1      25.253  -4.386  18.376  1.00  0.00     0.203 HD
HETATM    6  C5  UNL     1      23.298  -3.989  18.021  1.00  0.00     0.733 A
HETATM    7  N10 UNL     1      22.376  -3.004  17.984  1.00  0.00    -0.020 N
ATOM      8  H10 UNL     1      21.412  -3.232  17.738  1.00  0.00     0.203 HD
HETATM    9  C11 UNL     1      22.694  -1.738  18.262  1.00  0.00     0.705 A
HETATM   10  N12 UNL     1      23.984  -1.434  18.592  1.00  0.00    -0.022 N
ATOM     11  H12 UNL     1      24.219  -0.465  18.805  1.00  0.00     0.203 HD
ENDROOT
BRANCH   1  12
HETATM   12  C3  UNL     1      26.908  -1.071  19.290  1.00  0.00     0.231 C
BRANCH  12  13
HETATM   13  C2  UNL     1      27.936  -0.569  18.347  1.00  0.00     0.190 A
HETATM   14  N2  UNL     1      27.776  -0.429  17.025  1.00  0.00    -0.168 N
HETATM   15  C1  UNL     1      28.966   0.050  16.578  1.00  0.00     0.698 A
ATOM     16  H2  UNL     1      26.942  -0.636  16.475  1.00  0.00     0.186 HD
HETATM   17  N13 UNL     1      29.799   0.185  17.617  1.00  0.00    -0.090 N
HETATM   18  O7  UNL     1      29.174  -0.189  18.675  1.00  0.00    -0.207 OA
ATOM     19  H13 UNL     1      30.760   0.525  17.576  1.00  0.00     0.213 HD
BRANCH  15  20
HETATM   20  N1  UNL     1      29.233   0.318  15.340  1.00  0.00    -0.233 N
ATOM     21  H12 UNL     1      30.051   0.005  14.817  1.00  0.00     0.174 HD
ATOM     22  H11 UNL     1      28.643   0.879  14.726  1.00  0.00     0.174 HD
ENDBRANCH  15  20
ENDBRANCH  12  13
BRANCH  12  23
HETATM   23  C12 UNL     1      27.636  -1.269  20.643  1.00  0.00     0.285 C
BRANCH  23  24
HETATM   24  O5  UNL     1      28.444  -2.380  20.567  1.00  0.00    -0.369 OA
ATOM     25  H5  UNL     1      28.663  -2.547  19.658  1.00  0.00     0.212 HD
ENDBRANCH  23  24
BRANCH  23  26
HETATM   26  O6  UNL     1      26.722  -1.298  21.665  1.00  0.00    -0.369 OA
ATOM     27  H6  UNL     1      25.970  -1.820  21.411  1.00  0.00     0.212 HD
ENDBRANCH  23  26
ENDBRANCH  12  23
ENDBRANCH   1  12
BRANCH   6  28
HETATM   28  N5  UNL     1      22.964  -5.344  17.754  1.00  0.00    -0.080 N
HETATM   29  C6  UNL     1      21.763  -5.916  17.799  1.00  0.00     0.173 A
HETATM   30  C7  UNL     1      21.897  -7.253  17.436  1.00  0.00     0.137 A
HETATM   31  N8  UNL     1      23.224  -7.414  17.185  1.00  0.00    -0.279 N
HETATM   32  N9  UNL     1      23.842  -6.275  17.377  1.00  0.00    -0.221 N
ATOM     33  H8  UNL     1      23.667  -8.284  16.892  1.00  0.00     0.189 HD
ATOM     34  H9  UNL     1      24.843  -6.122  17.257  1.00  0.00     0.209 HD
BRANCH  30  35
HETATM   35  C8  UNL     1      20.855  -8.263  17.331  1.00  0.00     0.289 C
HETATM   36  O1  UNL     1      21.071  -9.435  17.713  1.00  0.00    -0.264 OA
HETATM   37  N6  UNL     1      19.588  -7.938  16.799  1.00  0.00    -0.262 N
ATOM     38  H6  UNL     1      19.434  -6.978  16.491  1.00  0.00     0.190 HD
BRANCH  37  39
HETATM   39  N7  UNL     1      18.543  -8.831  16.668  1.00  0.00    -0.258 N
HETATM   40  C9  UNL     1      17.406  -8.794  17.538  1.00  0.00     0.336 C
HETATM   41  O2  UNL     1      17.378  -7.918  18.432  1.00  0.00    -0.259 OA
ATOM     42  H7  UNL     1      18.581  -9.536  15.931  1.00  0.00     0.190 HD
BRANCH  40  43
HETATM   43  C10 UNL     1      16.307  -9.725  17.415  1.00  0.00     0.271 C
HETATM   44  O3  UNL     1      15.795 -10.261  18.459  1.00  0.00    -0.640 OA
HETATM   45  O4  UNL     1      15.814 -10.034  16.163  1.00  0.00    -0.640 OA
ENDBRANCH  40  43
ENDBRANCH  37  39
ENDBRANCH  30  35
ENDBRANCH   6  28
BRANCH   9  46
HETATM   46  N11 UNL     1      21.847  -0.749  18.241  1.00  0.00    -0.234 N
ATOM     47 2H11 UNL     1      21.333  -0.568  19.103  1.00  0.00     0.174 HD
ATOM     48 1H11 UNL     1      21.674  -0.160  17.427  1.00  0.00     0.174 HD
ENDBRANCH   9  46
TORSDOF 11
ENDMDL