MODEL 4
REMARK VINA RESULT: -7.820891246      1.133      1.319
REMARK  13 active torsions:
REMARK  status: ('A' for Active; 'I' for Inactive)
REMARK    1  A    between atoms: C6_9  and  O2_10
REMARK    2  A    between atoms: C7_12  and  O3_13
REMARK    3  A    between atoms: C8_15  and  O4_16
REMARK    4  A    between atoms: C10_19  and  N2_20
REMARK    5  A    between atoms: N2_20  and  N3_22
REMARK    6  A    between atoms: C11_26  and  C12_27
REMARK       I    between atoms: C12_27  and  N6_29
REMARK    7  A    between atoms: N6_29  and  C13_31
REMARK    8  A    between atoms: C13_31  and  O6_32
REMARK    9  A    between atoms: C13_31  and  C14_34
REMARK   10  A    between atoms: C14_34  and  O7_35
REMARK   11  A    between atoms: C14_34  and  C15_37
REMARK   12  A    between atoms: C15_37  and  O8_38
REMARK   13  A    between atoms: C16_40  and  O9_41
ROOT
HETATM    1  N3  UNL     1      23.537  -4.613  18.345  1.00  0.00    -0.153 N
HETATM    2  N4  UNL     1      24.378  -5.490  18.890  1.00  0.00     0.004 NA
HETATM    3  N5  UNL     1      23.993  -6.734  18.674  1.00  0.00    -0.274 N
ATOM      4  H5  UNL     1      24.480  -7.570  18.997  1.00  0.00     0.184 HD
HETATM    5  C11 UNL     1      22.858  -6.718  17.961  1.00  0.00     0.168 A
HETATM    6  C16 UNL     1      22.580  -5.387  17.760  1.00  0.00     0.211 A
ENDROOT
BRANCH   1   7
HETATM    7  N2  UNL     1      23.600  -3.220  18.375  1.00  0.00    -0.273 N
ATOM      8  H2  UNL     1      22.879  -2.685  18.857  1.00  0.00     0.189 HD
BRANCH   7   9
HETATM    9  C10 UNL     1      24.659  -2.560  17.739  1.00  0.00     0.131 C
HETATM   10  C1  UNL     1      24.408  -2.417  16.278  1.00  0.00     0.270 C
HETATM   11  O1  UNL     1      23.247  -2.645  15.855  1.00  0.00    -0.266 OA
HETATM   12  N1  UNL     1      25.367  -2.044  15.307  1.00  0.00    -0.352 N
HETATM   13  C2  UNL     1      26.461  -1.116  15.389  1.00  0.00     0.151 C
ATOM     14  H1  UNL     1      25.266  -2.509  14.405  1.00  0.00     0.163 HD
HETATM   15  C3  UNL     1      27.125  -1.057  16.701  1.00  0.00     0.005 C
HETATM   16  C4  UNL     1      26.854  -1.458  17.920  1.00  0.00    -0.020 A
HETATM   17  C5  UNL     1      27.886  -1.109  18.770  1.00  0.00     0.051 A
HETATM   18  C9  UNL     1      25.730  -2.126  18.376  1.00  0.00     0.044 A
HETATM   19  C6  UNL     1      27.832  -1.413  20.100  1.00  0.00     0.102 A
HETATM   20  C7  UNL     1      26.735  -2.073  20.585  1.00  0.00     0.133 A
HETATM   21  C8  UNL     1      25.697  -2.424  19.729  1.00  0.00     0.115 A
BRANCH  19  22
HETATM   22  O2  UNL     1      28.846  -1.080  20.977  1.00  0.00    -0.358 OA
ATOM     23  H2  UNL     1      29.061  -0.179  21.187  1.00  0.00     0.217 HD
ENDBRANCH  19  22
BRANCH  20  24
HETATM   24  O3  UNL     1      26.628  -2.406  21.928  1.00  0.00    -0.356 OA
ATOM     25  H3  UNL     1      26.742  -1.753  22.609  1.00  0.00     0.218 HD
ENDBRANCH  20  24
BRANCH  21  26
HETATM   26  O4  UNL     1      24.643  -3.073  20.275  1.00  0.00    -0.357 OA
ATOM     27  H4  UNL     1      24.774  -3.467  21.130  1.00  0.00     0.217 HD
ENDBRANCH  21  26
ENDBRANCH   7   9
ENDBRANCH   1   7
BRANCH   6  28
HETATM   28  O9  UNL     1      21.486  -4.890  17.064  1.00  0.00    -0.342 OA
ATOM     29  H9  UNL     1      21.276  -3.966  16.982  1.00  0.00     0.219 HD
ENDBRANCH   6  28
BRANCH   5  30
HETATM   30  C12 UNL     1      22.030  -7.810  17.462  1.00  0.00     0.275 C
HETATM   31  O5  UNL     1      22.465  -8.588  16.571  1.00  0.00    -0.266 OA
HETATM   32  N6  UNL     1      20.715  -8.043  17.951  1.00  0.00    -0.327 N
ATOM     33  H6  UNL     1      20.329  -7.434  18.672  1.00  0.00     0.165 HD
BRANCH  32  34
HETATM   34  C13 UNL     1      19.927  -9.123  17.441  1.00  0.00     0.251 C
BRANCH  34  35
HETATM   35  O6  UNL     1      20.402 -10.327  17.965  1.00  0.00    -0.374 OA
ATOM     36  H6  UNL     1      21.192 -10.580  17.502  1.00  0.00     0.212 HD
ENDBRANCH  34  35
BRANCH  34  37
HETATM   37  C14 UNL     1      18.463  -8.995  17.774  1.00  0.00     0.190 C
BRANCH  37  38
HETATM   38  O7  UNL     1      18.134  -9.817  18.850  1.00  0.00    -0.389 OA
ATOM     39  H7  UNL     1      18.357  -9.396  19.672  1.00  0.00     0.210 HD
ENDBRANCH  37  38
BRANCH  37  40
HETATM   40  C15 UNL     1      18.079  -7.563  18.081  1.00  0.00     0.200 C
BRANCH  40  41
HETATM   41  O8  UNL     1      18.358  -7.287  19.422  1.00  0.00    -0.398 OA
ATOM     42  H8  UNL     1      17.993  -6.440  19.651  1.00  0.00     0.209 HD
ENDBRANCH  40  41
ENDBRANCH  37  40
ENDBRANCH  34  37
ENDBRANCH  32  34
ENDBRANCH   5  30
TORSDOF 13
ENDMDL