MODEL 4
REMARK VINA RESULT: -6.957308388      3.133      7.175
REMARK  9 active torsions:
REMARK  status: ('A' for Active; 'I' for Inactive)
REMARK    1  A    between atoms: C2_2  and  C3_3
REMARK    2  A    between atoms: C3_3  and  O1_4
REMARK    3  A    between atoms: C3_3  and  N1_6
REMARK    4  A    between atoms: N1_6  and  C4_8
REMARK    5  A    between atoms: C6_18  and  O5_19
REMARK    6  A    between atoms: C6_18  and  C7_21
REMARK    7  A    between atoms: N8_32  and  C10_33
REMARK    8  A    between atoms: C11_34  and  C12_35
REMARK    9  A    between atoms: C12_35  and  O8_36
ROOT
HETATM    1  C3  UNL     1      22.124  -1.818  15.782  1.00  0.00     0.267 C
ENDROOT
BRANCH   1   2
HETATM    2  C2  UNL     1      21.817  -2.846  14.741  1.00  0.00     0.155 C
HETATM    3  C1  UNL     1      22.603  -2.552  13.440  1.00  0.00     0.068 C
HETATM    4  N4  UNL     1      22.201  -4.159  15.128  1.00  0.00    -0.334 N
HETATM    5  C8  UNL     1      21.504  -5.190  14.811  1.00  0.00     0.192 C
ATOM      6  H4  UNL     1      23.054  -4.286  15.672  1.00  0.00     0.164 HD
HETATM    7  N5  UNL     1      21.864  -6.510  15.173  1.00  0.00    -0.063 NA
HETATM    8  N6  UNL     1      20.227  -5.073  14.142  1.00  0.00    -0.304 N
HETATM    9  C9  UNL     1      19.749  -3.908  13.860  1.00  0.00     0.199 C
ATOM     10  H6  UNL     1      19.704  -5.912  13.893  1.00  0.00     0.171 HD
HETATM   11  N7  UNL     1      18.486  -3.777  13.179  1.00  0.00    -0.063 NA
HETATM   12  N8  UNL     1      20.443  -2.764  14.311  1.00  0.00    -0.300 N
BRANCH  12  13
HETATM   13  C10 UNL     1      19.703  -1.527  14.294  1.00  0.00     0.094 C
HETATM   14  C11 UNL     1      18.653  -1.316  15.051  1.00  0.00     0.016 C
BRANCH  14  15
HETATM   15  C12 UNL     1      17.897  -0.040  15.030  1.00  0.00     0.192 C
BRANCH  15  16
HETATM   16  O8  UNL     1      16.701  -0.157  15.740  1.00  0.00    -0.397 OA
ATOM     17  H8  UNL     1      16.787   0.207  16.613  1.00  0.00     0.209 HD
ENDBRANCH  15  16
ENDBRANCH  14  15
ENDBRANCH  12  13
ENDBRANCH   1   2
BRANCH   1  18
HETATM   18  O1  UNL     1      21.489  -2.203  16.974  1.00  0.00    -0.372 OA
ATOM     19  H1  UNL     1      21.018  -1.450  17.313  1.00  0.00     0.212 HD
ENDBRANCH   1  18
BRANCH   1  20
HETATM   20  N1  UNL     1      23.411  -1.322  15.952  1.00  0.00    -0.355 N
ATOM     21  H1  UNL     1      23.605  -0.347  15.726  1.00  0.00     0.162 HD
BRANCH  20  22
HETATM   22  C4  UNL     1      24.478  -2.163  16.443  1.00  0.00     0.144 C
HETATM   23  C5  UNL     1      25.507  -2.499  15.481  1.00  0.00     0.284 C
HETATM   24  O2  UNL     1      25.524  -3.559  14.783  1.00  0.00    -0.265 OA
HETATM   25  N2  UNL     1      26.594  -1.577  15.303  1.00  0.00    -0.232 N
HETATM   26  S1  UNL     1      26.805  -0.422  16.563  1.00  0.00     0.324 S
ATOM     27  H2  UNL     1      27.201  -1.604  14.484  1.00  0.00     0.183 HD
HETATM   28  O3  UNL     1      28.300  -0.407  16.887  1.00  0.00    -0.182 OA
HETATM   29  O4  UNL     1      26.406   0.963  16.172  1.00  0.00    -0.182 OA
HETATM   30  N3  UNL     1      26.021  -0.942  17.971  1.00  0.00    -0.254 N
HETATM   31  C6  UNL     1      24.882  -1.738  17.811  1.00  0.00     0.282 C
ATOM     32  H3  UNL     1      26.365  -0.686  18.897  1.00  0.00     0.178 HD
BRANCH  31  33
HETATM   33  O5  UNL     1      23.783  -1.013  18.330  1.00  0.00    -0.357 OA
ATOM     34  H5  UNL     1      24.154  -0.244  18.747  1.00  0.00     0.213 HD
ENDBRANCH  31  33
BRANCH  31  35
HETATM   35  C7  UNL     1      25.038  -2.932  18.678  1.00  0.00     0.239 C
HETATM   36  O6  UNL     1      25.985  -2.924  19.513  1.00  0.00    -0.644 OA
HETATM   37  O7  UNL     1      24.208  -4.016  18.596  1.00  0.00    -0.644 OA
ENDBRANCH  31  35
ENDBRANCH  20  22
ENDBRANCH   1  20
TORSDOF 9
ENDMDL