MODEL 3
REMARK VINA RESULT: -7.554623701      3.658      5.394
REMARK  11 active torsions:
REMARK  status: ('A' for Active; 'I' for Inactive)
REMARK    1  A    between atoms: C4_12  and  N5_13
REMARK       I    between atoms: N5_13  and  C5_15
REMARK    2  A    between atoms: C5_15  and  C6_17
REMARK    3  A    between atoms: C6_17  and  O2_18
REMARK    4  A    between atoms: C6_17  and  C7_20
REMARK    5  A    between atoms: C7_20  and  O3_21
REMARK    6  A    between atoms: C7_20  and  C8_23
REMARK    7  A    between atoms: C8_23  and  N6_24
REMARK    8  A    between atoms: C8_23  and  N7_28
REMARK    9  A    between atoms: C9_32  and  O4_33
REMARK   10  A    between atoms: N8_36  and  C11_37
REMARK   11  A    between atoms: C14_40  and  N9_41
ROOT
HETATM    1  N1  UNL     1      26.619  -2.229  19.741  1.00  0.00    -0.062 NA
HETATM    2  C1  UNL     1      26.597  -1.324  18.643  1.00  0.00     0.211 C
HETATM    3  N2  UNL     1      27.348  -0.251  18.633  1.00  0.00    -0.277 N
ATOM      4  H2  UNL     1      27.966  -0.045  19.419  1.00  0.00     0.189 HD
HETATM    5  N3  UNL     1      27.291   0.604  17.536  1.00  0.00    -0.326 N
ATOM      6  H3  UNL     1      28.045   1.265  17.350  1.00  0.00     0.180 HD
HETATM    7  C2  UNL     1      26.148   0.532  16.676  1.00  0.00     0.151 C
HETATM    8  C3  UNL     1      26.252   1.353  15.434  1.00  0.00     0.263 C
HETATM    9  N4  UNL     1      26.634   0.555  14.304  1.00  0.00    -0.050 N
ATOM     10  H41 UNL     1      26.916   1.130  13.510  1.00  0.00     0.279 HD
ATOM     11  H42 UNL     1      25.832   0.091  13.876  1.00  0.00     0.279 HD
HETATM   12  C4  UNL     1      27.681  -0.402  14.691  1.00  0.00     0.317 C
HETATM   13  C9  UNL     1      26.965  -1.507  15.448  1.00  0.00     0.193 C
HETATM   14  C10 UNL     1      25.900  -0.924  16.314  1.00  0.00     0.153 C
HETATM   15  N8  UNL     1      25.729  -1.633  17.564  1.00  0.00    -0.291 N
ENDROOT
BRANCH  12  16
HETATM   16  N5  UNL     1      28.245  -0.891  13.451  1.00  0.00    -0.329 N
HETATM   17  C5  UNL     1      29.133  -0.086  12.707  1.00  0.00     0.250 C
HETATM   18  O1  UNL     1      29.414   1.073  13.163  1.00  0.00    -0.271 OA
ATOM     19  H5  UNL     1      27.999  -1.821  13.112  1.00  0.00     0.164 HD
BRANCH  17  20
HETATM   20  C6  UNL     1      29.754  -0.513  11.428  1.00  0.00     0.242 C
BRANCH  20  21
HETATM   21  O2  UNL     1      30.821  -1.371  11.744  1.00  0.00    -0.383 OA
ATOM     22  H2  UNL     1      30.705  -2.167  11.239  1.00  0.00     0.210 HD
ENDBRANCH  20  21
BRANCH  20  23
HETATM   23  C7  UNL     1      28.739  -1.295  10.618  1.00  0.00     0.213 C
BRANCH  23  24
HETATM   24  O3  UNL     1      27.484  -0.751  10.763  1.00  0.00    -0.389 OA
ATOM     25  H3  UNL     1      26.826  -1.329  10.396  1.00  0.00     0.210 HD
ENDBRANCH  23  24
BRANCH  23  26
HETATM   26  C8  UNL     1      29.129  -1.434   9.171  1.00  0.00     0.409 C
BRANCH  26  27
HETATM   27  N6  UNL     1      28.872  -2.728   8.635  1.00  0.00    -0.048 N
ATOM     28  H63 UNL     1      28.421  -3.324   9.329  1.00  0.00     0.276 HD
ATOM     29  H62 UNL     1      28.129  -2.688   7.938  1.00  0.00     0.276 HD
ATOM     30  H61 UNL     1      29.702  -3.183   8.253  1.00  0.00     0.276 HD
ENDBRANCH  26  27
BRANCH  26  31
HETATM   31  N7  UNL     1      30.514  -1.078   8.940  1.00  0.00    -0.048 N
ATOM     32  H73 UNL     1      30.940  -0.686   9.780  1.00  0.00     0.276 HD
ATOM     33  H72 UNL     1      31.096  -1.909   8.835  1.00  0.00     0.276 HD
ATOM     34  H71 UNL     1      30.624  -0.449   8.144  1.00  0.00     0.276 HD
ENDBRANCH  26  31
ENDBRANCH  23  26
ENDBRANCH  20  23
ENDBRANCH  17  20
ENDBRANCH  12  16
BRANCH  13  35
HETATM   35  O4  UNL     1      27.874  -2.299  16.141  1.00  0.00    -0.390 OA
ATOM     36  H4  UNL     1      28.253  -1.820  16.868  1.00  0.00     0.210 HD
ENDBRANCH  13  35
BRANCH  15  37
HETATM   37  C11 UNL     1      24.715  -2.625  17.724  1.00  0.00     0.155 A
HETATM   38  C12 UNL     1      23.355  -2.410  17.665  1.00  0.00     0.061 A
HETATM   39  C13 UNL     1      22.721  -3.613  17.869  1.00  0.00     0.067 A
HETATM   40  C14 UNL     1      23.738  -4.542  18.049  1.00  0.00     0.216 A
HETATM   41  O7  UNL     1      24.849  -3.903  17.952  1.00  0.00    -0.271 OA
BRANCH  40  42
HETATM   42  N9  UNL     1      23.604  -5.937  18.295  1.00  0.00    -0.090 N
HETATM   43  O5  UNL     1      22.572  -6.566  17.950  1.00  0.00    -0.530 OA
HETATM   44  O6  UNL     1      24.631  -6.593  18.921  1.00  0.00    -0.530 OA
ENDBRANCH  40  42
ENDBRANCH  15  37
TORSDOF 11
ENDMDL