MODEL 2
REMARK VINA RESULT: -7.591162074      3.199      7.076
REMARK  10 active torsions:
REMARK  status: ('A' for Active; 'I' for Inactive)
REMARK       I    between atoms: C2_5  and  N3_6
REMARK       I    between atoms: C2_5  and  N6_23
REMARK    1  A    between atoms: N3_6  and  C3_8
REMARK    2  A    between atoms: C3_8  and  C4_9
REMARK    3  A    between atoms: C4_9  and  C5_10
REMARK    4  A    between atoms: C5_10  and  N4_11
REMARK    5  A    between atoms: N4_11  and  C6_13
REMARK    6  A    between atoms: C6_13  and  N5_15
REMARK    7  A    between atoms: C9_18  and  O1_19
REMARK    8  A    between atoms: N6_23  and  C12_25
REMARK    9  A    between atoms: C12_25  and  N7_27
REMARK   10  A    between atoms: N7_27  and  C13_29
ROOT
HETATM    1  N1  UNL     1       0.726  37.230  25.253  1.00  0.00    -0.171 NA
HETATM    2  C1  UNL     1       1.030  37.759  24.256  1.00  0.00     0.196 C
HETATM    3  N2  UNL     1       1.369  38.403  23.069  1.00  0.00    -0.126 N
ATOM      4  H2  UNL     1       1.200  39.407  22.995  1.00  0.00     0.197 HD
HETATM    5  C2  UNL     1       1.891  37.784  22.054  1.00  0.00     0.689 C
HETATM    6  N3  UNL     1       2.222  38.471  20.865  1.00  0.00    -0.225 N
ATOM      7  H3  UNL     1       2.749  37.984  20.141  1.00  0.00     0.177 HD
HETATM    8  N6  UNL     1       2.108  36.378  22.193  1.00  0.00    -0.166 N
ATOM      9  H6  UNL     1       1.437  35.729  21.782  1.00  0.00     0.186 HD
ENDROOT
BRANCH   6  10
HETATM   10  C3  UNL     1       1.837  39.838  20.648  1.00  0.00     0.139 C
BRANCH  10  11
HETATM   11  C4  UNL     1       3.003  40.684  20.170  1.00  0.00     0.040 C
BRANCH  11  12
HETATM   12  C5  UNL     1       4.035  40.879  21.223  1.00  0.00     0.123 C
BRANCH  12  13
HETATM   13  N4  UNL     1       5.265  40.201  20.972  1.00  0.00    -0.367 N
ATOM     14  H4  UNL     1       5.253  39.330  20.440  1.00  0.00     0.161 HD
BRANCH  13  15
HETATM   15  C6  UNL     1       6.496  40.701  21.439  1.00  0.00     0.169 C
HETATM   16  S1  UNL     1       6.578  42.221  22.092  1.00  0.00    -0.041 SA
BRANCH  15  17
HETATM   17  N5  UNL     1       7.684  39.934  21.335  1.00  0.00    -0.358 N
HETATM   18  C7  UNL     1       8.314  39.593  20.092  1.00  0.00     0.127 C
HETATM   19  C8  UNL     1       9.668  40.291  20.095  1.00  0.00     0.051 C
HETATM   20  C9  UNL     1      10.495  39.984  21.296  1.00  0.00     0.121 C
HETATM   21  C10 UNL     1       9.776  39.992  22.600  1.00  0.00     0.051 C
HETATM   22  C11 UNL     1       8.365  39.440  22.536  1.00  0.00     0.127 C
BRANCH  20  23
HETATM   23  O1  UNL     1      11.244  38.829  21.069  1.00  0.00    -0.395 OA
ATOM     24  H1  UNL     1      11.660  38.553  21.878  1.00  0.00     0.210 HD
ENDBRANCH  20  23
ENDBRANCH  15  17
ENDBRANCH  13  15
ENDBRANCH  12  13
ENDBRANCH  11  12
ENDBRANCH  10  11
ENDBRANCH   6  10
BRANCH   8  25
HETATM   25  C12 UNL     1       3.229  35.864  22.885  1.00  0.00     0.186 C
HETATM   26  S2  UNL     1       3.129  34.300  23.409  1.00  0.00    -0.040 SA
BRANCH  25  27
HETATM   27  N7  UNL     1       4.369  36.639  23.119  1.00  0.00    -0.362 N
ATOM     28  H7  UNL     1       4.969  36.815  22.313  1.00  0.00     0.162 HD
BRANCH  27  29
HETATM   29  C13 UNL     1       4.790  37.211  24.360  1.00  0.00     0.083 C
HETATM   30  C14 UNL     1       5.880  36.371  24.996  1.00  0.00     0.025 C
HETATM   31  C15 UNL     1       5.921  36.561  26.507  1.00  0.00     0.002 C
HETATM   32  C16 UNL     1       7.308  36.766  27.013  1.00  0.00     0.000 C
HETATM   33  C17 UNL     1       7.445  37.417  28.324  1.00  0.00     0.000 C
HETATM   34  C18 UNL     1       6.666  38.667  28.544  1.00  0.00     0.000 C
HETATM   35  C19 UNL     1       7.194  39.855  27.775  1.00  0.00     0.000 C
HETATM   36  C20 UNL     1       6.212  40.955  27.603  1.00  0.00     0.000 C
HETATM   37  C21 UNL     1       4.960  40.638  26.890  1.00  0.00     0.000 C
HETATM   38  C22 UNL     1       5.056  40.766  25.363  1.00  0.00     0.000 C
HETATM   39  C23 UNL     1       4.282  39.659  24.679  1.00  0.00     0.002 C
HETATM   40  C24 UNL     1       5.298  38.612  24.288  1.00  0.00     0.025 C
ENDBRANCH  27  29
ENDBRANCH  25  27
ENDBRANCH   8  25
TORSDOF 10
ENDMDL