MODEL 4
REMARK VINA RESULT: -7.900111589      3.943     11.374
REMARK  7 active torsions:
REMARK  status: ('A' for Active; 'I' for Inactive)
REMARK    1  A    between atoms: N1_1  and  C1_5
REMARK    2  A    between atoms: C1_5  and  C2_6
REMARK    3  A    between atoms: C3_7  and  C4_8
REMARK    4  A    between atoms: C4_8  and  O1_9
REMARK    5  A    between atoms: C4_8  and  C5_11
REMARK    6  A    between atoms: C14_23  and  C15_24
REMARK       I    between atoms: C15_24  and  N3_26
REMARK       I    between atoms: N4_29  and  C18_30
REMARK       I    between atoms: C18_30  and  N5_32
REMARK    7  A    between atoms: N5_32  and  C19_34
ROOT
HETATM    1  C5  UNL     1      11.673  44.704  18.875  1.00  0.00     0.018 C
HETATM    2  C6  UNL     1      12.923  44.228  19.515  1.00  0.00     0.007 C
HETATM    3  C7  UNL     1      14.072  45.141  19.623  1.00  0.00     0.000 C
HETATM    4  C8  UNL     1      15.101  44.511  20.536  1.00  0.00     0.000 C
HETATM    5  C9  UNL     1      14.572  43.911  21.789  1.00  0.00     0.000 C
HETATM    6  C10 UNL     1      14.430  42.400  21.750  1.00  0.00     0.000 C
HETATM    7  C11 UNL     1      13.626  41.821  22.851  1.00  0.00     0.002 C
HETATM    8  C12 UNL     1      12.165  41.589  22.538  1.00  0.00     0.027 C
HETATM    9  C13 UNL     1      11.895  40.650  21.431  1.00  0.00     0.233 C
HETATM   10  N2  UNL     1      11.287  41.220  20.251  1.00  0.00    -0.062 N
ATOM     11  H21 UNL     1      11.224  40.534  19.499  1.00  0.00     0.278 HD
ATOM     12  H22 UNL     1      11.910  41.894  19.804  1.00  0.00     0.278 HD
HETATM   13  C14 UNL     1       9.994  41.809  20.532  1.00  0.00     0.277 C
HETATM   14  C27 UNL     1      10.050  43.281  20.154  1.00  0.00     0.043 C
HETATM   15  C28 UNL     1      10.746  43.492  18.839  1.00  0.00     0.010 C
ENDROOT
BRANCH  13  16
HETATM   16  C15 UNL     1       8.993  41.199  19.621  1.00  0.00     0.250 C
HETATM   17  O2  UNL     1       9.121  41.370  18.352  1.00  0.00    -0.271 OA
HETATM   18  N3  UNL     1       7.897  40.439  20.034  1.00  0.00    -0.347 N
HETATM   19  C16 UNL     1       6.905  39.989  19.084  1.00  0.00     0.145 C
HETATM   20  C26 UNL     1       7.742  40.040  21.404  1.00  0.00     0.145 C
HETATM   21  C17 UNL     1       5.508  40.357  19.582  1.00  0.00     0.147 C
HETATM   22  N4  UNL     1       5.399  39.791  20.917  1.00  0.00    -0.331 N
HETATM   23  C18 UNL     1       4.340  38.894  21.189  1.00  0.00     0.318 C
HETATM   24  C25 UNL     1       6.337  40.222  21.913  1.00  0.00     0.147 C
HETATM   25  O3  UNL     1       3.445  38.717  20.292  1.00  0.00    -0.247 OA
HETATM   26  N5  UNL     1       4.195  38.161  22.398  1.00  0.00    -0.338 N
ATOM     27  H5  UNL     1       4.901  38.261  23.128  1.00  0.00     0.164 HD
BRANCH  26  28
HETATM   28  C19 UNL     1       3.070  37.274  22.622  1.00  0.00     0.086 C
HETATM   29  C20 UNL     1       1.948  37.866  23.375  1.00  0.00     0.025 C
HETATM   30  C21 UNL     1       1.158  36.773  24.090  1.00  0.00     0.002 C
HETATM   31  C22 UNL     1       2.040  36.243  25.213  1.00  0.00     0.000 C
HETATM   32  C23 UNL     1       3.465  36.065  24.729  1.00  0.00     0.002 C
HETATM   33  C24 UNL     1       3.519  35.953  23.237  1.00  0.00     0.025 C
ENDBRANCH  26  28
ENDBRANCH  13  16
BRANCH   1  34
HETATM   34  C4  UNL     1      11.852  45.328  17.516  1.00  0.00     0.144 C
BRANCH  34  35
HETATM   35  C3  UNL     1      11.058  44.657  16.475  1.00  0.00     0.002 C
HETATM   36  C2  UNL     1      11.616  44.366  15.317  1.00  0.00    -0.001 C
BRANCH  36  37
HETATM   37  C1  UNL     1      13.021  44.672  14.977  1.00  0.00     0.256 C
BRANCH  37  38
HETATM   38  N1  UNL     1      13.803  43.450  14.985  1.00  0.00    -0.076 N
ATOM     39  H13 UNL     1      14.806  43.636  15.016  1.00  0.00     0.274 HD
ATOM     40  H12 UNL     1      13.721  42.947  15.869  1.00  0.00     0.274 HD
ATOM     41  H11 UNL     1      13.545  42.869  14.188  1.00  0.00     0.274 HD
ENDBRANCH  37  38
ENDBRANCH  36  37
ENDBRANCH  34  35
BRANCH  34  42
HETATM   42  O1  UNL     1      11.365  46.643  17.619  1.00  0.00    -0.391 OA
ATOM     43  H1  UNL     1      11.173  46.795  18.536  1.00  0.00     0.210 HD
ENDBRANCH  34  42
ENDBRANCH   1  34
TORSDOF 7
ENDMDL