MODEL 5
REMARK VINA RESULT: -7.569755191      4.264      9.016
REMARK  6 active torsions:
REMARK  status: ('A' for Active; 'I' for Inactive)
REMARK    1  A    between atoms: C3_3  and  C4_4
REMARK    2  A    between atoms: C4_4  and  N1_5
REMARK       I    between atoms: N1_5  and  C5_7
REMARK    3  A    between atoms: C5_7  and  C6_9
REMARK    4  A    between atoms: C20_23  and  N2_24
REMARK    5  A    between atoms: C21_28  and  O2_29
REMARK    6  A    between atoms: C28_37  and  C29_38
ROOT
HETATM    1  C6  UNL     1       4.893  38.457  26.812  1.00  0.00     0.042 C
HETATM    2  C7  UNL     1       3.644  37.868  27.566  1.00  0.00     0.026 C
HETATM    3  C8  UNL     1       4.294  38.531  25.441  1.00  0.00     0.020 C
HETATM    4  C9  UNL     1       5.116  38.920  24.279  1.00  0.00     0.011 C
HETATM    5  C10 UNL     1       5.325  40.391  24.378  1.00  0.00    -0.031 A
HETATM    6  C11 UNL     1       4.338  41.099  23.651  1.00  0.00     0.016 A
HETATM    7  C12 UNL     1       5.658  41.391  23.334  1.00  0.00     0.004 A
HETATM    8  C13 UNL     1       6.799  40.936  22.597  1.00  0.00    -0.032 C
HETATM    9  C14 UNL     1       7.943  40.854  23.626  1.00  0.00     0.011 C
HETATM   10  C15 UNL     1       7.533  41.421  24.984  1.00  0.00     0.007 C
HETATM   11  C16 UNL     1       6.317  40.596  25.415  1.00  0.00     0.003 C
HETATM   12  C17 UNL     1       5.828  40.872  26.808  1.00  0.00    -0.033 C
HETATM   13  C18 UNL     1       4.981  42.157  26.838  1.00  0.00     0.016 C
HETATM   14  C19 UNL     1       7.096  41.273  27.581  1.00  0.00     0.045 C
HETATM   15  C20 UNL     1       6.821  41.662  28.990  1.00  0.00     0.212 C
HETATM   16  C21 UNL     1       5.805  40.827  29.668  1.00  0.00     0.149 C
HETATM   17  C22 UNL     1       5.693  39.512  28.879  1.00  0.00     0.040 C
HETATM   18  C23 UNL     1       5.146  39.729  27.484  1.00  0.00     0.014 C
HETATM   19  C24 UNL     1       7.262  42.077  21.655  1.00  0.00     0.011 C
HETATM   20  C25 UNL     1       6.623  41.824  20.341  1.00  0.00     0.011 C
HETATM   21  C26 UNL     1       6.393  40.354  20.284  1.00  0.00    -0.030 C
HETATM   22  C27 UNL     1       5.019  39.922  19.809  1.00  0.00     0.016 C
HETATM   23  C28 UNL     1       7.539  39.576  19.712  1.00  0.00     0.059 C
HETATM   24  C30 UNL     1       8.163  39.562  21.065  1.00  0.00     0.018 C
HETATM   25  C31 UNL     1       6.771  39.831  21.657  1.00  0.00     0.004 C
ENDROOT
BRANCH  23  26
HETATM   26  C29 UNL     1       8.277  40.293  18.639  1.00  0.00     0.091 C
HETATM   27  N3  UNL     1       7.787  40.466  17.459  1.00  0.00    -0.391 N
ATOM     28  H32 UNL     1       6.862  40.114  17.214  1.00  0.00     0.157 HD
ATOM     29  H31 UNL     1       8.294  40.958  16.722  1.00  0.00     0.157 HD
HETATM   30  N4  UNL     1       9.560  40.782  18.979  1.00  0.00    -0.088 NA
ENDBRANCH  23  26
BRANCH   1  31
HETATM   31  C5  UNL     1       5.827  37.327  26.960  1.00  0.00     0.226 C
HETATM   32  N1  UNL     1       7.184  37.251  26.606  1.00  0.00    -0.357 N
ATOM     33  H1  UNL     1       7.619  38.076  26.193  1.00  0.00     0.162 HD
HETATM   34  O1  UNL     1       5.411  36.220  27.476  1.00  0.00    -0.273 OA
BRANCH  32  35
HETATM   35  C4  UNL     1       8.003  36.071  26.794  1.00  0.00     0.149 C
BRANCH  35  36
HETATM   36  C3  UNL     1       8.610  36.020  28.120  1.00  0.00    -0.012 C
HETATM   37  C2  UNL     1       9.415  35.021  28.445  1.00  0.00    -0.033 C
HETATM   38  C1  UNL     1       9.742  33.916  27.499  1.00  0.00     0.036 C
ENDBRANCH  35  36
ENDBRANCH  32  35
ENDBRANCH   1  31
BRANCH  15  39
HETATM   39  N2  UNL     1       8.094  41.469  29.718  1.00  0.00    -0.073 N
ATOM     40  H23 UNL     1       8.901  41.356  29.105  1.00  0.00     0.274 HD
ATOM     41  H22 UNL     1       8.420  42.308  30.198  1.00  0.00     0.274 HD
ATOM     42  H21 UNL     1       7.941  40.677  30.342  1.00  0.00     0.274 HD
ENDBRANCH  15  39
BRANCH  16  43
HETATM   43  O2  UNL     1       4.582  41.393  29.908  1.00  0.00    -0.393 OA
ATOM     44  H2  UNL     1       4.542  42.100  30.541  1.00  0.00     0.210 HD
ENDBRANCH  16  43
TORSDOF 6
ENDMDL