MODEL 2
REMARK VINA RESULT: -7.486877755      3.266      4.095
REMARK  6 active torsions:
REMARK  status: ('A' for Active; 'I' for Inactive)
REMARK       I    between atoms: C2_2  and  N1_4
REMARK    1  A    between atoms: N1_4  and  C3_6
REMARK    2  A    between atoms: C3_6  and  C4_7
REMARK    3  A    between atoms: C7_10  and  N2_11
REMARK       I    between atoms: N2_11  and  C8_13
REMARK       I    between atoms: C8_13  and  N3_15
REMARK    4  A    between atoms: N3_15  and  C9_17
REMARK    5  A    between atoms: C13_21  and  O3_22
REMARK    6  A    between atoms: C23_33  and  O4_34
ROOT
HETATM    1  C9  UNL     1       5.711  39.402  24.898  1.00  0.00     0.091 C
HETATM    2  C10 UNL     1       6.306  39.887  26.211  1.00  0.00     0.031 C
HETATM    3  C11 UNL     1       6.577  38.622  26.964  1.00  0.00    -0.002 C
HETATM    4  C12 UNL     1       7.564  38.777  28.079  1.00  0.00     0.037 C
HETATM    5  C13 UNL     1       7.809  37.413  28.654  1.00  0.00     0.118 C
HETATM    6  C14 UNL     1       7.030  36.327  28.039  1.00  0.00     0.032 C
HETATM    7  C15 UNL     1       5.598  36.583  27.735  1.00  0.00     0.012 C
HETATM    8  C16 UNL     1       5.268  38.036  27.424  1.00  0.00    -0.036 C
HETATM    9  C17 UNL     1       5.010  38.663  28.809  1.00  0.00     0.016 C
HETATM   10  C18 UNL     1       4.118  38.266  26.534  1.00  0.00     0.000 C
HETATM   11  C19 UNL     1       3.132  37.083  26.484  1.00  0.00     0.007 C
HETATM   12  C20 UNL     1       2.029  37.534  25.512  1.00  0.00     0.012 C
HETATM   13  C21 UNL     1       2.619  37.379  24.115  1.00  0.00    -0.014 C
HETATM   14  C22 UNL     1       1.684  38.123  23.182  1.00  0.00     0.018 C
HETATM   15  C23 UNL     1       2.729  35.938  23.712  1.00  0.00     0.126 C
HETATM   16  C24 UNL     1       4.168  35.589  23.521  1.00  0.00     0.033 C
HETATM   17  C25 UNL     1       4.979  36.843  23.798  1.00  0.00     0.008 C
HETATM   18  C26 UNL     1       4.001  37.928  24.024  1.00  0.00     0.003 C
HETATM   19  C27 UNL     1       4.345  38.864  25.190  1.00  0.00     0.018 C
ENDROOT
BRANCH   1  20
HETATM   20  N3  UNL     1       5.698  40.525  24.006  1.00  0.00    -0.338 N
HETATM   21  C8  UNL     1       6.344  40.492  22.744  1.00  0.00     0.316 C
HETATM   22  N2  UNL     1       6.338  41.603  21.855  1.00  0.00    -0.339 N
HETATM   23  O2  UNL     1       6.940  39.436  22.412  1.00  0.00    -0.247 OA
ATOM     24  H2  UNL     1       5.853  42.457  22.132  1.00  0.00     0.164 HD
ATOM     25  H3  UNL     1       5.210  41.375  24.288  1.00  0.00     0.164 HD
BRANCH  22  26
HETATM   26  C7  UNL     1       7.001  41.556  20.568  1.00  0.00     0.086 C
HETATM   27  C6  UNL     1       5.962  41.327  19.513  1.00  0.00     0.026 C
HETATM   28  C5  UNL     1       6.633  41.027  18.189  1.00  0.00     0.008 C
HETATM   29  C4  UNL     1       7.936  41.779  18.074  1.00  0.00     0.003 C
HETATM   30  C29 UNL     1       7.760  43.117  18.765  1.00  0.00     0.008 C
HETATM   31  C28 UNL     1       7.633  42.919  20.257  1.00  0.00     0.026 C
BRANCH  29  32
HETATM   32  C3  UNL     1       8.272  41.962  16.608  1.00  0.00     0.127 C
BRANCH  32  33
HETATM   33  N1  UNL     1       7.784  43.206  16.085  1.00  0.00    -0.361 N
HETATM   34  C2  UNL     1       8.686  44.145  15.545  1.00  0.00     0.213 C
HETATM   35  C1  UNL     1       8.143  45.432  15.009  1.00  0.00     0.117 C
HETATM   36  O1  UNL     1       9.936  43.927  15.501  1.00  0.00    -0.274 OA
ATOM     37  H1  UNL     1       6.785  43.411  16.104  1.00  0.00     0.162 HD
ENDBRANCH  32  33
ENDBRANCH  29  32
ENDBRANCH  22  26
ENDBRANCH   1  20
BRANCH   5  38
HETATM   38  O3  UNL     1       9.182  37.126  28.445  1.00  0.00    -0.396 OA
ATOM     39  H3  UNL     1       9.321  36.235  28.744  1.00  0.00     0.210 HD
ENDBRANCH   5  38
BRANCH  15  40
HETATM   40  O4  UNL     1       2.078  35.777  22.489  1.00  0.00    -0.395 OA
ATOM     41  H4  UNL     1       2.735  35.611  21.822  1.00  0.00     0.210 HD
ENDBRANCH  15  40
TORSDOF 6
ENDMDL