MODEL 4
REMARK VINA RESULT: -7.747376664      3.551      6.950
REMARK  8 active torsions:
REMARK  status: ('A' for Active; 'I' for Inactive)
REMARK    1  A    between atoms: C2_2  and  C3_3
REMARK    2  A    between atoms: C3_3  and  N1_4
REMARK       I    between atoms: N1_4  and  C4_6
REMARK    3  A    between atoms: C4_6  and  C5_8
REMARK    4  A    between atoms: C5_8  and  C6_9
REMARK       I    between atoms: C6_9  and  N2_11
REMARK    5  A    between atoms: N2_11  and  C7_13
REMARK    6  A    between atoms: C13_19  and  O3_20
REMARK    7  A    between atoms: C14_22  and  O4_23
REMARK    8  A    between atoms: C21_31  and  O5_32
ROOT
HETATM    1  C7  UNL     1       4.229  39.278  28.808  1.00  0.00     0.045 C
HETATM    2  C8  UNL     1       3.956  40.045  30.046  1.00  0.00     0.039 C
HETATM    3  C9  UNL     1       3.518  38.853  30.933  1.00  0.00     0.020 C
HETATM    4  C10 UNL     1       2.984  37.769  30.002  1.00  0.00     0.020 C
HETATM    5  C11 UNL     1       2.882  38.573  28.748  1.00  0.00    -0.004 C
HETATM    6  C12 UNL     1       1.719  39.513  29.120  1.00  0.00     0.047 C
HETATM    7  C13 UNL     1       1.322  39.631  30.529  1.00  0.00     0.148 C
HETATM    8  C14 UNL     1       2.287  39.398  31.628  1.00  0.00     0.151 C
HETATM    9  C15 UNL     1       2.610  37.837  27.484  1.00  0.00    -0.029 C
HETATM   10  C16 UNL     1       1.390  38.365  26.722  1.00  0.00     0.016 C
HETATM   11  C17 UNL     1       2.440  36.369  27.797  1.00  0.00     0.011 C
HETATM   12  C18 UNL     1       1.937  35.729  26.520  1.00  0.00     0.006 C
HETATM   13  C19 UNL     1       2.905  35.793  25.390  1.00  0.00    -0.004 C
HETATM   14  C20 UNL     1       2.103  35.535  24.104  1.00  0.00     0.037 C
HETATM   15  C21 UNL     1       2.983  35.556  22.885  1.00  0.00     0.118 C
HETATM   16  C22 UNL     1       3.971  36.669  22.865  1.00  0.00     0.032 C
HETATM   17  C23 UNL     1       3.556  37.684  23.950  1.00  0.00     0.012 C
HETATM   18  C24 UNL     1       3.741  37.029  25.316  1.00  0.00    -0.036 C
HETATM   19  C25 UNL     1       5.194  36.484  25.110  1.00  0.00     0.016 C
HETATM   20  C26 UNL     1       3.758  37.903  26.474  1.00  0.00     0.003 C
HETATM   21  C27 UNL     1       4.045  39.346  26.305  1.00  0.00     0.013 C
HETATM   22  C28 UNL     1       4.548  40.011  27.575  1.00  0.00     0.011 C
HETATM   23  C29 UNL     1       4.151  41.469  27.555  1.00  0.00     0.012 C
ENDROOT
BRANCH   1  24
HETATM   24  N2  UNL     1       5.322  38.466  29.265  1.00  0.00    -0.350 N
HETATM   25  C6  UNL     1       6.675  38.759  28.989  1.00  0.00     0.227 C
HETATM   26  O2  UNL     1       6.964  39.758  28.308  1.00  0.00    -0.273 OA
ATOM     27  H2  UNL     1       5.109  37.635  29.817  1.00  0.00     0.163 HD
BRANCH  25  28
HETATM   28  C5  UNL     1       7.794  37.922  29.478  1.00  0.00     0.205 C
BRANCH  28  29
HETATM   29  C4  UNL     1       7.915  36.687  28.696  1.00  0.00     0.226 C
HETATM   30  N1  UNL     1       9.143  35.935  28.687  1.00  0.00    -0.361 N
ATOM     31  H1  UNL     1       9.938  36.267  29.235  1.00  0.00     0.162 HD
HETATM   32  O1  UNL     1       6.980  36.215  28.001  1.00  0.00    -0.273 OA
BRANCH  30  33
HETATM   33  C3  UNL     1       9.269  34.746  27.934  1.00  0.00     0.122 C
BRANCH  33  34
HETATM   34  C2  UNL     1      10.170  33.687  28.508  1.00  0.00     0.015 C
HETATM   35  C1  UNL     1       9.790  33.404  29.953  1.00  0.00     0.006 C
ENDBRANCH  33  34
ENDBRANCH  30  33
ENDBRANCH  28  29
ENDBRANCH  25  28
ENDBRANCH   1  24
BRANCH   8  36
HETATM   36  O4  UNL     1       2.664  40.563  32.288  1.00  0.00    -0.393 OA
ATOM     37  H4  UNL     1       1.870  41.032  32.513  1.00  0.00     0.210 HD
ENDBRANCH   8  36
BRANCH   7  38
HETATM   38  O3  UNL     1       0.847  40.962  30.703  1.00  0.00    -0.393 OA
ATOM     39  H3  UNL     1       1.341  41.331  31.427  1.00  0.00     0.210 HD
ENDBRANCH   7  38
BRANCH  15  40
HETATM   40  O5  UNL     1       3.564  34.294  22.640  1.00  0.00    -0.396 OA
ATOM     41  H5  UNL     1       3.441  34.020  21.739  1.00  0.00     0.210 HD
ENDBRANCH  15  40
TORSDOF 8
ENDMDL