MODEL 1
REMARK VINA RESULT: -7.646633858      0.000      0.000
REMARK  7 active torsions:
REMARK  status: ('A' for Active; 'I' for Inactive)
REMARK    1  A    between atoms: C2_2  and  C4_4
REMARK    2  A    between atoms: C4_4  and  C5_5
REMARK    3  A    between atoms: C5_5  and  O1_6
REMARK    4  A    between atoms: C5_5  and  C6_8
REMARK    5  A    between atoms: C6_8  and  O2_9
REMARK    6  A    between atoms: C6_8  and  C7_11
REMARK    7  A    between atoms: C7_11  and  C9_13
ROOT
HETATM    1  C9  UNL     1       8.721  40.452  21.999  1.00  0.00     0.135 C
HETATM    2  O3  UNL     1       9.212  39.361  22.750  1.00  0.00    -0.384 OA
HETATM    3  C10 UNL     1       8.162  38.506  23.104  1.00  0.00     0.178 C
HETATM    4  C11 UNL     1       7.098  39.257  23.920  1.00  0.00    -0.014 C
HETATM    5  C12 UNL     1       5.831  39.216  23.174  1.00  0.00     0.018 C
HETATM    6  C13 UNL     1       6.959  38.576  25.292  1.00  0.00     0.002 C
HETATM    7  C14 UNL     1       6.641  37.129  25.089  1.00  0.00     0.008 C
HETATM    8  C15 UNL     1       5.332  36.715  25.701  1.00  0.00     0.032 C
HETATM    9  C16 UNL     1       5.316  37.158  27.157  1.00  0.00     0.045 C
HETATM   10  C17 UNL     1       3.977  36.676  27.714  1.00  0.00     0.039 C
HETATM   11  N1  UNL     1       6.331  36.368  27.811  1.00  0.00    -0.357 N
ATOM     12  H1  UNL     1       6.141  35.372  27.924  1.00  0.00     0.162 HD
HETATM   13  C18 UNL     1       7.552  36.840  28.304  1.00  0.00     0.174 C
HETATM   14  S1  UNL     1       8.834  35.859  28.520  1.00  0.00    -0.041 SA
HETATM   15  N2  UNL     1       7.588  38.252  28.605  1.00  0.00    -0.303 N
ATOM     16  H2  UNL     1       8.436  38.686  28.969  1.00  0.00     0.171 HD
HETATM   17  C19 UNL     1       6.405  39.030  28.380  1.00  0.00     0.235 C
HETATM   18  O4  UNL     1       6.244  40.021  29.139  1.00  0.00    -0.272 OA
HETATM   19  C20 UNL     1       5.480  38.642  27.314  1.00  0.00     0.066 C
HETATM   20  C21 UNL     1       4.103  39.187  27.701  1.00  0.00     0.028 C
HETATM   21  C22 UNL     1       5.787  39.264  25.956  1.00  0.00     0.010 C
HETATM   22  C23 UNL     1       5.811  40.737  25.932  1.00  0.00     0.007 C
HETATM   23  C24 UNL     1       6.952  41.395  25.241  1.00  0.00     0.007 C
HETATM   24  C25 UNL     1       7.676  40.597  24.232  1.00  0.00     0.006 C
HETATM   25  C26 UNL     1       8.087  41.391  22.980  1.00  0.00    -0.017 C
HETATM   26  C27 UNL     1       9.039  42.438  23.520  1.00  0.00     0.018 C
HETATM   27  C28 UNL     1       6.932  42.073  22.337  1.00  0.00     0.018 C
ENDROOT
BRANCH   1  28
HETATM   28  C7  UNL     1       9.923  41.013  21.271  1.00  0.00     0.043 C
HETATM   29  C8  UNL     1       9.966  40.658  19.818  1.00  0.00     0.015 C
BRANCH  28  30
HETATM   30  C6  UNL     1      11.125  40.258  21.885  1.00  0.00     0.153 C
BRANCH  30  31
HETATM   31  C5  UNL     1      12.386  41.050  21.780  1.00  0.00     0.147 C
BRANCH  31  32
HETATM   32  C4  UNL     1      12.889  41.713  23.003  1.00  0.00     0.038 C
BRANCH  32  33
HETATM   33  C2  UNL     1      13.070  43.188  22.937  1.00  0.00    -0.020 C
HETATM   34  C1  UNL     1      12.288  43.891  21.894  1.00  0.00     0.009 C
HETATM   35  C3  UNL     1      14.550  43.434  22.638  1.00  0.00     0.009 C
ENDBRANCH  32  33
ENDBRANCH  31  32
BRANCH  31  36
HETATM   36  O1  UNL     1      13.384  40.349  21.091  1.00  0.00    -0.393 OA
ATOM     37  H1  UNL     1      13.167  40.200  20.178  1.00  0.00     0.210 HD
ENDBRANCH  31  36
ENDBRANCH  30  31
BRANCH  30  38
HETATM   38  O2  UNL     1      11.290  39.172  20.970  1.00  0.00    -0.393 OA
ATOM     39  H2  UNL     1      10.496  38.658  21.049  1.00  0.00     0.210 HD
ENDBRANCH  30  38
ENDBRANCH  28  30
ENDBRANCH   1  28
TORSDOF 7
ENDMDL