MODEL 5
REMARK VINA RESULT: -7.267566478      4.810      7.846
REMARK  7 active torsions:
REMARK  status: ('A' for Active; 'I' for Inactive)
REMARK    1  A    between atoms: C2_2  and  C3_3
REMARK    2  A    between atoms: C3_3  and  C4_4
REMARK    3  A    between atoms: C4_4  and  C5_5
REMARK       I    between atoms: C5_5  and  N1_7
REMARK       I    between atoms: N1_7  and  C6_9
REMARK       I    between atoms: C6_9  and  N3_13
REMARK    4  A    between atoms: N3_13  and  C7_15
REMARK    5  A    between atoms: C7_15  and  N4_16
REMARK    6  A    between atoms: C7_15  and  C8_20
REMARK    7  A    between atoms: C21_36  and  N6_37
ROOT
HETATM    1  C8  UNL     1       3.770  37.490  24.397  1.00  0.00     0.044 C
HETATM    2  C9  UNL     1       3.833  37.300  22.924  1.00  0.00     0.020 C
HETATM    3  C10 UNL     1       4.211  38.497  22.126  1.00  0.00     0.011 C
HETATM    4  C11 UNL     1       3.770  39.819  22.673  1.00  0.00    -0.032 C
HETATM    5  C12 UNL     1       5.048  40.602  23.023  1.00  0.00     0.016 C
HETATM    6  C13 UNL     1       2.968  39.722  23.943  1.00  0.00    -0.000 C
HETATM    7  C14 UNL     1       3.849  38.905  24.877  1.00  0.00     0.025 C
HETATM    8  C15 UNL     1       1.573  39.265  23.808  1.00  0.00    -0.004 C
HETATM    9  C16 UNL     1       1.286  37.810  24.136  1.00  0.00     0.057 C
HETATM   10  C17 UNL     1       2.355  37.110  24.808  1.00  0.00    -0.007 C
HETATM   11  N5  UNL     1       2.228  36.258  25.697  1.00  0.00    -0.405 N
ATOM     12  H51 UNL     1       1.279  36.004  25.972  1.00  0.00     0.155 HD
ATOM     13  H52 UNL     1       2.983  35.764  26.171  1.00  0.00     0.155 HD
HETATM   14  C18 UNL     1       0.889  39.603  22.532  1.00  0.00     0.011 C
HETATM   15  C19 UNL     1       1.702  40.082  21.403  1.00  0.00    -0.003 C
HETATM   16  C20 UNL     1       0.952  41.071  20.510  1.00  0.00     0.041 C
HETATM   17  C21 UNL     1       0.694  42.384  21.172  1.00  0.00     0.223 C
HETATM   18  C27 UNL     1       1.652  42.697  22.296  1.00  0.00     0.036 C
HETATM   19  C28 UNL     1       3.005  42.120  22.116  1.00  0.00     0.012 C
HETATM   20  C29 UNL     1       3.024  40.676  21.694  1.00  0.00    -0.033 C
HETATM   21  C30 UNL     1       3.842  40.629  20.391  1.00  0.00     0.016 C
ENDROOT
BRANCH   1  22
HETATM   22  C7  UNL     1       4.727  36.548  25.089  1.00  0.00     0.311 C
BRANCH  22  23
HETATM   23  N3  UNL     1       5.648  37.189  25.961  1.00  0.00    -0.196 N
HETATM   24  C6  UNL     1       5.658  36.863  27.343  1.00  0.00     0.676 C
HETATM   25  N1  UNL     1       6.755  36.290  28.029  1.00  0.00    -0.160 N
HETATM   26  N2  UNL     1       4.590  37.102  28.079  1.00  0.00    -0.235 N
HETATM   27  C5  UNL     1       7.958  35.984  27.307  1.00  0.00     0.235 C
ATOM     28  H1  UNL     1       6.692  36.096  29.028  1.00  0.00     0.187 HD
HETATM   29  O1  UNL     1       8.006  36.228  26.090  1.00  0.00    -0.273 OA
ATOM     30  H22 UNL     1       4.597  36.868  29.072  1.00  0.00     0.174 HD
ATOM     31  H21 UNL     1       3.799  37.514  27.585  1.00  0.00     0.174 HD
ATOM     32  H3  UNL     1       6.301  37.882  25.595  1.00  0.00     0.180 HD
BRANCH  27  33
HETATM   33  C4  UNL     1       9.050  35.402  28.061  1.00  0.00     0.103 C
BRANCH  33  34
HETATM   34  C3  UNL     1       9.752  34.195  27.593  1.00  0.00     0.009 C
BRANCH  34  35
HETATM   35  C2  UNL     1      10.248  33.180  28.531  1.00  0.00    -0.004 C
HETATM   36  C1  UNL     1       9.861  33.196  29.958  1.00  0.00     0.005 C
ENDBRANCH  34  35
ENDBRANCH  33  34
ENDBRANCH  27  33
ENDBRANCH  22  23
BRANCH  22  37
HETATM   37  N4  UNL     1       5.386  35.655  24.195  1.00  0.00    -0.057 N
ATOM     38  H43 UNL     1       6.155  36.116  23.708  1.00  0.00     0.276 HD
ATOM     39  H42 UNL     1       5.920  34.949  24.701  1.00  0.00     0.276 HD
ATOM     40  H41 UNL     1       4.731  35.229  23.539  1.00  0.00     0.276 HD
ENDBRANCH  22  37
ENDBRANCH   1  22
BRANCH  17  41
HETATM   41  N6  UNL     1       0.530  43.463  20.256  1.00  0.00     0.093 N
HETATM   42  C22 UNL     1       0.080  43.160  18.950  1.00  0.00     0.273 C
HETATM   43  C23 UNL     1      -0.123  44.499  18.219  1.00  0.00     0.030 C
HETATM   44  C24 UNL     1      -1.420  45.087  18.785  1.00  0.00     0.003 C
HETATM   45  C25 UNL     1      -1.496  44.867  20.265  1.00  0.00     0.030 C
HETATM   46  C26 UNL     1      -0.168  44.540  20.893  1.00  0.00     0.273 C
ENDBRANCH  17  41
TORSDOF 7
ENDMDL