MODEL 2
REMARK VINA RESULT: -7.021606054      2.671      7.605
REMARK  5 active torsions:
REMARK  status: ('A' for Active; 'I' for Inactive)
REMARK    1  A    between atoms: C2_2  and  C4_4
REMARK    2  A    between atoms: C4_4  and  C5_5
REMARK    3  A    between atoms: C7_10  and  C8_11
REMARK    4  A    between atoms: C8_11  and  C9_12
REMARK    5  A    between atoms: C15_21  and  C16_22
ROOT
HETATM    1  C5  UNL     1       3.100  37.924  23.673  1.00  0.00     0.177 C
HETATM    2  N1  UNL     1       3.429  39.276  23.278  1.00  0.00    -0.346 N
ATOM      3  H1  UNL     1       3.355  39.474  22.280  1.00  0.00     0.163 HD
HETATM    4  C6  UNL     1       3.833  40.351  24.080  1.00  0.00     0.241 C
HETATM    5  O1  UNL     1       3.110  41.415  24.041  1.00  0.00    -0.271 OA
HETATM    6  C7  UNL     1       5.003  40.440  24.987  1.00  0.00     0.177 C
HETATM    7  N2  UNL     1       4.664  40.430  26.388  1.00  0.00    -0.346 N
ATOM      8  H2  UNL     1       3.829  40.959  26.637  1.00  0.00     0.163 HD
HETATM    9  C14 UNL     1       5.317  39.799  27.460  1.00  0.00     0.249 C
HETATM   10  O2  UNL     1       5.745  40.550  28.412  1.00  0.00    -0.271 OA
HETATM   11  C15 UNL     1       5.585  38.362  27.656  1.00  0.00     0.280 C
HETATM   12  N3  UNL     1       4.936  37.939  28.918  1.00  0.00    -0.062 N
ATOM     13  H31 UNL     1       5.419  38.321  29.730  1.00  0.00     0.278 HD
ATOM     14  H32 UNL     1       5.083  36.946  29.096  1.00  0.00     0.278 HD
HETATM   15  C19 UNL     1       3.526  38.274  28.936  1.00  0.00     0.233 C
HETATM   16  C20 UNL     1       3.174  38.420  30.424  1.00  0.00     0.027 C
HETATM   17  C21 UNL     1       1.825  39.076  30.543  1.00  0.00     0.002 C
HETATM   18  C22 UNL     1       0.832  37.963  30.873  1.00  0.00     0.000 C
HETATM   19  C23 UNL     1      -0.593  38.390  30.717  1.00  0.00     0.000 C
HETATM   20  C24 UNL     1      -1.207  37.614  29.575  1.00  0.00     0.000 C
HETATM   21  C25 UNL     1      -1.182  38.460  28.347  1.00  0.00     0.000 C
HETATM   22  C26 UNL     1      -0.085  38.064  27.418  1.00  0.00     0.002 C
HETATM   23  C27 UNL     1      -0.619  37.373  26.182  1.00  0.00     0.020 C
HETATM   24  C28 UNL     1       0.577  36.876  25.402  1.00  0.00     0.122 C
HETATM   25  N4  UNL     1       0.586  37.547  24.124  1.00  0.00    -0.359 N
ATOM     26  H4  UNL     1      -0.288  37.981  23.827  1.00  0.00     0.162 HD
HETATM   27  C29 UNL     1       1.674  37.661  23.255  1.00  0.00     0.240 C
HETATM   28  O3  UNL     1       1.502  37.543  22.014  1.00  0.00    -0.271 OA
ENDROOT
BRANCH   6  29
HETATM   29  C8  UNL     1       6.130  39.534  24.609  1.00  0.00     0.039 C
BRANCH  29  30
HETATM   30  C9  UNL     1       6.920  40.092  23.419  1.00  0.00    -0.012 C
HETATM   31  C10 UNL     1       7.906  41.074  23.961  1.00  0.00     0.005 C
HETATM   32  C11 UNL     1       9.102  41.003  23.041  1.00  0.00     0.000 C
HETATM   33  C12 UNL     1       9.168  39.545  22.702  1.00  0.00     0.000 C
HETATM   34  C13 UNL     1       7.818  38.952  22.947  1.00  0.00     0.005 C
ENDBRANCH  29  30
ENDBRANCH   6  29
BRANCH   1  35
HETATM   35  C4  UNL     1       3.904  36.920  22.835  1.00  0.00     0.038 C
BRANCH  35  36
HETATM   36  C2  UNL     1       4.313  35.733  23.654  1.00  0.00    -0.020 C
HETATM   37  C1  UNL     1       4.189  36.170  25.119  1.00  0.00     0.009 C
HETATM   38  C3  UNL     1       3.372  34.566  23.487  1.00  0.00     0.009 C
ENDBRANCH  35  36
ENDBRANCH   1  35
BRANCH  11  39
HETATM   39  C16 UNL     1       7.012  37.978  27.812  1.00  0.00     0.017 C
HETATM   40  C17 UNL     1       7.161  36.598  27.155  1.00  0.00     0.012 C
HETATM   41  C18 UNL     1       7.511  37.827  29.210  1.00  0.00     0.012 C
ENDBRANCH  11  39
TORSDOF 5
ENDMDL