MODEL 5
REMARK VINA RESULT: -8.035391022      1.995      2.535
REMARK  7 active torsions:
REMARK  status: ('A' for Active; 'I' for Inactive)
REMARK    1  A    between atoms: C14_14  and  N1_15
REMARK    2  A    between atoms: N1_15  and  C15_18
REMARK    3  A    between atoms: C15_18  and  C16_19
REMARK    4  A    between atoms: C16_19  and  C17_20
REMARK    5  A    between atoms: C17_20  and  N2_21
REMARK    6  A    between atoms: C22_29  and  O1_30
REMARK    7  A    between atoms: C28_37  and  O2_38
ROOT
HETATM    1  C1  UNL     1       7.854  42.548  23.113  1.00  0.00     0.014 C
HETATM    2  C2  UNL     1       8.298  41.505  22.403  1.00  0.00    -0.084 C
HETATM    3  C3  UNL     1       8.844  40.423  23.181  1.00  0.00     0.034 C
HETATM    4  C4  UNL     1       7.889  39.296  23.357  1.00  0.00     0.010 C
HETATM    5  C5  UNL     1       6.439  39.571  23.350  1.00  0.00     0.002 C
HETATM    6  C6  UNL     1       5.793  39.595  22.012  1.00  0.00     0.002 C
HETATM    7  C7  UNL     1       4.329  39.962  22.173  1.00  0.00    -0.007 C
HETATM    8  C8  UNL     1       4.108  41.155  23.054  1.00  0.00     0.006 C
HETATM    9  C9  UNL     1       4.241  40.792  24.447  1.00  0.00     0.010 C
HETATM   10  C10 UNL     1       4.553  39.416  24.903  1.00  0.00    -0.034 C
HETATM   11  C11 UNL     1       3.252  38.632  25.096  1.00  0.00     0.016 C
HETATM   12  C12 UNL     1       5.035  39.693  26.349  1.00  0.00     0.012 C
HETATM   13  C13 UNL     1       6.518  39.263  26.306  1.00  0.00     0.034 C
HETATM   14  C14 UNL     1       6.262  38.077  25.455  1.00  0.00     0.195 C
HETATM   15  C19 UNL     1       5.617  38.612  24.222  1.00  0.00    -0.004 C
HETATM   16  C20 UNL     1       5.278  37.355  23.556  1.00  0.00     0.018 C
HETATM   17  C21 UNL     1       3.793  40.308  20.802  1.00  0.00     0.037 C
HETATM   18  C22 UNL     1       4.998  39.843  19.959  1.00  0.00     0.123 C
HETATM   19  C23 UNL     1       6.101  40.410  20.884  1.00  0.00     0.028 C
HETATM   20  C24 UNL     1       7.378  40.648  20.218  1.00  0.00    -0.030 C
HETATM   21  C25 UNL     1       7.097  41.423  18.895  1.00  0.00     0.016 C
HETATM   22  C26 UNL     1       8.159  39.505  19.695  1.00  0.00     0.013 C
HETATM   23  C27 UNL     1       9.323  40.022  18.860  1.00  0.00     0.032 C
HETATM   24  C28 UNL     1      10.193  40.922  19.681  1.00  0.00     0.118 C
HETATM   25  C29 UNL     1       9.486  42.032  20.354  1.00  0.00     0.041 C
HETATM   26  C30 UNL     1       8.153  41.707  20.968  1.00  0.00     0.025 C
ENDROOT
BRANCH  14  27
HETATM   27  N1  UNL     1       7.176  37.029  25.470  1.00  0.00    -0.070 N
ATOM     28  H12 UNL     1       7.064  36.424  24.656  1.00  0.00     0.277 HD
ATOM     29  H11 UNL     1       8.125  37.357  25.292  1.00  0.00     0.277 HD
BRANCH  27  30
HETATM   30  C15 UNL     1       7.094  36.281  26.704  1.00  0.00     0.234 C
BRANCH  30  31
HETATM   31  C16 UNL     1       8.369  35.806  27.283  1.00  0.00     0.047 C
BRANCH  31  32
HETATM   32  C17 UNL     1       8.637  36.448  28.628  1.00  0.00     0.123 C
BRANCH  32  33
HETATM   33  N2  UNL     1       7.452  37.080  29.167  1.00  0.00    -0.367 N
HETATM   34  C18 UNL     1       7.382  38.292  29.538  1.00  0.00     0.196 C
HETATM   35  N3  UNL     1       6.135  38.762  30.049  1.00  0.00    -0.067 NA
HETATM   36  N4  UNL     1       8.480  39.212  29.476  1.00  0.00    -0.067 NA
ATOM     37  H2  UNL     1       6.611  36.509  29.254  1.00  0.00     0.161 HD
ENDBRANCH  32  33
ENDBRANCH  31  32
ENDBRANCH  30  31
ENDBRANCH  27  30
ENDBRANCH  14  27
BRANCH  18  38
HETATM   38  O1  UNL     1       4.783  40.386  18.776  1.00  0.00    -0.395 OA
ATOM     39  H1  UNL     1       5.511  40.079  18.249  1.00  0.00     0.210 HD
ENDBRANCH  18  38
BRANCH  24  40
HETATM   40  O2  UNL     1      11.129  41.498  18.789  1.00  0.00    -0.396 OA
ATOM     41  H2  UNL     1      11.256  42.395  19.075  1.00  0.00     0.210 HD
ENDBRANCH  24  40
TORSDOF 7
ENDMDL