MODEL 1
REMARK VINA RESULT: -7.572294408      0.000      0.000
REMARK  8 active torsions:
REMARK  status: ('A' for Active; 'I' for Inactive)
REMARK    1  A    between atoms: C2_2  and  N1_3
REMARK       I    between atoms: N1_3  and  C3_5
REMARK       I    between atoms: C3_5  and  N2_7
REMARK    2  A    between atoms: N2_7  and  C4_9
REMARK    3  A    between atoms: C5_10  and  O2_11
REMARK    4  A    between atoms: C8_15  and  O3_16
REMARK    5  A    between atoms: C15_24  and  C16_25
REMARK       I    between atoms: C16_25  and  N3_27
REMARK    6  A    between atoms: C20_32  and  C22_34
REMARK    7  A    between atoms: C23_35  and  C24_36
REMARK    8  A    between atoms: C24_36  and  C26_38
ROOT
HETATM    1  C4  UNL     1       4.153  37.671  27.371  1.00  0.00     0.120 C
HETATM    2  C5  UNL     1       3.763  38.306  28.657  1.00  0.00     0.146 C
HETATM    3  C6  UNL     1       2.780  37.398  29.361  1.00  0.00     0.027 C
HETATM    4  C7  UNL     1       2.631  37.817  30.781  1.00  0.00     0.039 C
HETATM    5  C8  UNL     1       1.866  39.111  30.938  1.00  0.00     0.118 C
HETATM    6  C9  UNL     1       0.710  39.230  30.019  1.00  0.00     0.032 C
HETATM    7  C10 UNL     1       0.981  38.829  28.584  1.00  0.00     0.012 C
HETATM    8  C11 UNL     1       1.511  37.454  28.547  1.00  0.00    -0.034 C
HETATM    9  C12 UNL     1       0.490  36.583  29.301  1.00  0.00     0.016 C
HETATM   10  C13 UNL     1       1.765  36.809  27.244  1.00  0.00     0.002 C
HETATM   11  C14 UNL     1       0.726  37.010  26.182  1.00  0.00     0.025 C
HETATM   12  C15 UNL     1       1.404  37.648  24.983  1.00  0.00     0.047 C
HETATM   13  C18 UNL     1       1.231  36.675  23.817  1.00  0.00     0.021 C
HETATM   14  C19 UNL     1       2.468  36.784  23.000  1.00  0.00     0.024 C
HETATM   15  C20 UNL     1       3.521  36.963  24.089  1.00  0.00     0.025 C
HETATM   16  C21 UNL     1       4.102  35.601  24.312  1.00  0.00     0.029 C
HETATM   17  C29 UNL     1       2.868  37.649  25.219  1.00  0.00     0.030 C
HETATM   18  C30 UNL     1       3.058  37.036  26.567  1.00  0.00     0.023 C
ENDROOT
BRANCH   1  19
HETATM   19  N2  UNL     1       5.220  36.728  27.693  1.00  0.00    -0.336 N
HETATM   20  C3  UNL     1       6.473  36.706  27.042  1.00  0.00     0.316 C
HETATM   21  N1  UNL     1       7.437  35.758  27.429  1.00  0.00    -0.343 N
HETATM   22  O1  UNL     1       6.715  37.523  26.137  1.00  0.00    -0.247 OA
ATOM     23  H1  UNL     1       7.228  35.093  28.173  1.00  0.00     0.164 HD
ATOM     24  H2  UNL     1       5.050  36.045  28.431  1.00  0.00     0.164 HD
BRANCH  21  25
HETATM   25  C2  UNL     1       8.718  35.725  26.777  1.00  0.00     0.120 C
HETATM   26  C1  UNL     1       9.378  34.367  26.900  1.00  0.00     0.026 C
ENDBRANCH  21  25
ENDBRANCH   1  19
BRANCH   2  27
HETATM   27  O2  UNL     1       4.913  38.329  29.483  1.00  0.00    -0.393 OA
ATOM     28  H2  UNL     1       5.115  39.240  29.663  1.00  0.00     0.210 HD
ENDBRANCH   2  27
BRANCH  12  29
HETATM   29  C16 UNL     1       0.788  38.948  24.651  1.00  0.00     0.226 C
HETATM   30  O4  UNL     1       1.548  39.887  24.299  1.00  0.00    -0.273 OA
HETATM   31  N3  UNL     1      -0.583  39.245  24.694  1.00  0.00    -0.365 N
HETATM   32  C17 UNL     1      -1.119  40.543  24.359  1.00  0.00     0.149 C
ATOM     33  H3  UNL     1      -1.231  38.509  24.975  1.00  0.00     0.161 HD
ENDBRANCH  12  29
BRANCH  15  34
HETATM   34  C22 UNL     1       4.582  37.796  23.526  1.00  0.00    -0.096 C
HETATM   35  C23 UNL     1       5.451  38.504  23.049  1.00  0.00    -0.101 C
BRANCH  35  36
HETATM   36  C24 UNL     1       6.478  39.371  22.470  1.00  0.00     0.064 C
HETATM   37  C25 UNL     1       5.857  40.735  22.281  1.00  0.00     0.024 C
BRANCH  36  38
HETATM   38  C26 UNL     1       7.715  39.430  23.334  1.00  0.00    -0.007 C
HETATM   39  C27 UNL     1       7.925  40.776  23.972  1.00  0.00     0.011 C
HETATM   40  C28 UNL     1       8.919  39.178  22.427  1.00  0.00     0.011 C
ENDBRANCH  36  38
ENDBRANCH  35  36
ENDBRANCH  15  34
BRANCH   5  41
HETATM   41  O3  UNL     1       1.384  39.144  32.250  1.00  0.00    -0.396 OA
ATOM     42  H3  UNL     1       2.023  39.621  32.768  1.00  0.00     0.210 HD
ENDBRANCH   5  41
TORSDOF 8
ENDMDL