MODEL 5
REMARK VINA RESULT: -6.144491825      2.635      6.289
REMARK  16 active torsions:
REMARK  status: ('A' for Active; 'I' for Inactive)
REMARK    1  A    between atoms: C2_2  and  C3_3
REMARK    2  A    between atoms: C3_3  and  C4_4
REMARK    3  A    between atoms: C5_5  and  C6_6
REMARK    4  A    between atoms: C6_6  and  N1_8
REMARK    5  A    between atoms: C6_6  and  C23_38
REMARK    6  A    between atoms: N1_8  and  C8_10
REMARK    7  A    between atoms: C8_10  and  O1_11
REMARK    8  A    between atoms: C8_10  and  N2_13
REMARK    9  A    between atoms: N2_13  and  C9_15
REMARK   10  A    between atoms: C9_15  and  O2_16
REMARK   11  A    between atoms: C9_15  and  C10_18
REMARK   12  A    between atoms: C13_21  and  C14_22
REMARK       I    between atoms: C14_22  and  N3_24
REMARK   13  A    between atoms: N3_24  and  C15_26
REMARK   14  A    between atoms: C15_26  and  C16_27
REMARK   15  A    between atoms: C15_26  and  C20_32
REMARK   16  A    between atoms: C16_27  and  C17_29
ROOT
HETATM    1  C10 UNL     1       8.008  38.067  25.406  1.00  0.00     0.261 C
HETATM    2  C11 UNL     1       7.191  39.267  25.052  1.00  0.00     0.044 C
HETATM    3  C12 UNL     1       7.667  39.763  23.725  1.00  0.00     0.045 C
HETATM    4  C13 UNL     1       8.501  38.612  23.194  1.00  0.00     0.278 C
HETATM    5  N4  UNL     1       9.002  37.943  24.346  1.00  0.00    -0.051 N
ATOM      6  H41 UNL     1       9.261  36.974  24.159  1.00  0.00     0.279 HD
ATOM      7  H42 UNL     1       9.924  38.278  24.628  1.00  0.00     0.279 HD
ENDROOT
BRANCH   1   8
HETATM    8  C9  UNL     1       7.189  36.839  25.476  1.00  0.00     0.149 C
BRANCH   8   9
HETATM    9  N2  UNL     1       5.844  36.666  25.185  1.00  0.00    -0.305 N
ATOM     10  H2  UNL     1       5.256  36.614  26.017  1.00  0.00     0.171 HD
BRANCH   9  11
HETATM   11  C8  UNL     1       5.131  36.549  24.007  1.00  0.00     0.220 C
BRANCH  11  12
HETATM   12  N1  UNL     1       4.792  37.480  23.031  1.00  0.00    -0.330 N
ATOM     13  H1  UNL     1       5.503  37.774  22.360  1.00  0.00     0.165 HD
BRANCH  12  14
HETATM   14  C6  UNL     1       3.442  38.054  22.934  1.00  0.00     0.154 C
HETATM   15  C7  UNL     1       3.205  38.848  24.216  1.00  0.00     0.061 C
BRANCH  14  16
HETATM   16  C5  UNL     1       3.492  38.967  21.790  1.00  0.00    -0.067 C
HETATM   17  C4  UNL     1       3.555  39.718  20.840  1.00  0.00    -0.104 C
BRANCH  17  18
HETATM   18  C3  UNL     1       3.659  40.624  19.697  1.00  0.00     0.093 C
BRANCH  18  19
HETATM   19  C2  UNL     1       5.124  40.830  19.315  1.00  0.00     0.007 C
HETATM   20  C1  UNL     1       5.926  41.307  20.496  1.00  0.00     0.006 C
ENDBRANCH  18  19
ENDBRANCH  17  18
ENDBRANCH  14  16
BRANCH  14  21
HETATM   21  C23 UNL     1       2.393  37.042  22.837  1.00  0.00     0.163 C
HETATM   22  C24 UNL     1       1.261  37.006  23.792  1.00  0.00     0.095 C
HETATM   23  O5  UNL     1       2.433  36.201  21.961  1.00  0.00    -0.295 OA
ENDBRANCH  14  21
ENDBRANCH  12  14
ENDBRANCH  11  12
BRANCH  11  24
HETATM   24  O1  UNL     1       4.685  35.345  23.753  1.00  0.00    -0.332 OA
ATOM     25  H1  UNL     1       5.336  34.666  23.888  1.00  0.00     0.220 HD
ENDBRANCH  11  24
ENDBRANCH   9  11
ENDBRANCH   8   9
BRANCH   8  26
HETATM   26  O2  UNL     1       7.807  35.748  25.868  1.00  0.00    -0.348 OA
ATOM     27  H2  UNL     1       8.099  35.764  26.772  1.00  0.00     0.219 HD
ENDBRANCH   8  26
ENDBRANCH   1   8
BRANCH   4  28
HETATM   28  C14 UNL     1       9.590  39.103  22.318  1.00  0.00     0.249 C
HETATM   29  O3  UNL     1      10.769  38.619  22.431  1.00  0.00    -0.271 OA
HETATM   30  N3  UNL     1       9.310  40.110  21.363  1.00  0.00    -0.347 N
ATOM     31  H3  UNL     1       8.365  40.487  21.287  1.00  0.00     0.163 HD
BRANCH  30  32
HETATM   32  C15 UNL     1      10.391  40.625  20.465  1.00  0.00     0.158 C
BRANCH  32  33
HETATM   33  C16 UNL     1      10.979  41.824  21.116  1.00  0.00     0.153 C
HETATM   34  O4  UNL     1      12.114  42.212  20.760  1.00  0.00    -0.295 OA
BRANCH  33  35
HETATM   35  C17 UNL     1      10.342  42.636  22.166  1.00  0.00     0.049 C
HETATM   36  C18 UNL     1      11.059  42.406  23.516  1.00  0.00     0.017 C
HETATM   37  C19 UNL     1      10.603  44.113  21.846  1.00  0.00     0.017 C
ENDBRANCH  33  35
ENDBRANCH  32  33
BRANCH  32  38
HETATM   38  C20 UNL     1       9.817  40.833  19.111  1.00  0.00     0.007 C
HETATM   39  C21 UNL     1       9.152  42.139  18.943  1.00  0.00     0.012 C
HETATM   40  C22 UNL     1       8.832  39.756  18.709  1.00  0.00     0.012 C
ENDBRANCH  32  38
ENDBRANCH  30  32
ENDBRANCH   4  28
TORSDOF 16
ENDMDL