MODEL 4
REMARK VINA RESULT: -7.798474092      1.916      5.801
REMARK  10 active torsions:
REMARK  status: ('A' for Active; 'I' for Inactive)
REMARK    1  A    between atoms: N1_2  and  C3_4
REMARK    2  A    between atoms: N2_5  and  C4_7
REMARK    3  A    between atoms: C4_7  and  C5_8
REMARK    4  A    between atoms: C5_8  and  N3_9
REMARK    5  A    between atoms: N3_9  and  C6_11
REMARK    6  A    between atoms: C7_14  and  N5_15
REMARK    7  A    between atoms: C8_17  and  C9_18
REMARK    8  A    between atoms: C9_18  and  C10_19
REMARK    9  A    between atoms: C13_22  and  N6_23
REMARK   10  A    between atoms: C15_31  and  N9_32
ROOT
HETATM    1  C6  UNL     1       3.618  36.217  24.583  1.00  0.00     0.138 A
HETATM    2  N4  UNL     1       4.944  36.124  24.425  1.00  0.00    -0.175 N
ATOM      3  H4  UNL     1       5.309  35.516  23.691  1.00  0.00     0.186 HD
HETATM    4  C7  UNL     1       5.838  36.814  25.212  1.00  0.00     0.685 A
HETATM    5  N8  UNL     1       5.372  37.612  26.177  1.00  0.00    -0.174 N
ATOM      6  H8  UNL     1       6.022  38.128  26.769  1.00  0.00     0.186 HD
HETATM    7  C15 UNL     1       4.023  37.737  26.373  1.00  0.00     0.148 A
HETATM    8  C20 UNL     1       3.135  37.042  25.580  1.00  0.00     0.100 A
HETATM    9 BR1  UNL     1       1.253  37.185  25.818  1.00  0.00    -0.043 Br
ENDROOT
BRANCH   4  10
HETATM   10  N5  UNL     1       7.024  36.655  24.980  1.00  0.00    -0.205 N
HETATM   11  C8  UNL     1       8.326  36.624  25.348  1.00  0.00     0.083 C
ATOM     12  H5  UNL     1       7.048  36.425  23.986  1.00  0.00     0.183 HD
BRANCH  11  13
HETATM   13  C9  UNL     1       8.508  36.922  26.835  1.00  0.00     0.085 C
BRANCH  13  14
HETATM   14  C10 UNL     1       9.031  35.722  27.549  1.00  0.00    -0.038 A
HETATM   15  C11 UNL     1       9.550  34.624  26.904  1.00  0.00     0.012 A
HETATM   16  C12 UNL     1      10.019  33.541  27.657  1.00  0.00     0.048 A
HETATM   17  C13 UNL     1       9.975  33.542  29.035  1.00  0.00     0.098 A
HETATM   18  N7  UNL     1       9.461  34.628  29.637  1.00  0.00    -0.352 N
HETATM   19  C14 UNL     1       8.999  35.695  28.923  1.00  0.00     0.097 A
ATOM     20  H7  UNL     1       9.415  34.656  30.655  1.00  0.00     0.166 HD
BRANCH  17  21
HETATM   21  N6  UNL     1      10.402  32.551  29.742  1.00  0.00    -0.385 N
ATOM     22  H62 UNL     1      11.398  32.455  29.942  1.00  0.00     0.157 HD
ATOM     23  H61 UNL     1       9.776  31.840  30.122  1.00  0.00     0.157 HD
ENDBRANCH  17  21
ENDBRANCH  13  14
ENDBRANCH  11  13
ENDBRANCH   4  10
BRANCH   1  24
HETATM   24  N3  UNL     1       2.769  35.575  23.853  1.00  0.00    -0.373 N
ATOM     25  H3  UNL     1       2.118  34.901  24.257  1.00  0.00     0.161 HD
BRANCH  24  26
HETATM   26  C5  UNL     1       2.783  35.860  22.428  1.00  0.00     0.141 C
BRANCH  26  27
HETATM   27  C4  UNL     1       1.963  37.081  22.088  1.00  0.00     0.140 C
BRANCH  27  28
HETATM   28  N2  UNL     1       2.819  38.012  21.391  1.00  0.00    -0.385 N
HETATM   29  C3  UNL     1       3.690  38.759  21.973  1.00  0.00     0.172 C
ATOM     30  H2  UNL     1       2.728  38.081  20.377  1.00  0.00     0.160 HD
BRANCH  29  31
HETATM   31  N1  UNL     1       4.470  39.633  21.173  1.00  0.00    -0.386 N
HETATM   32  C1  UNL     1       5.732  40.140  21.672  1.00  0.00     0.149 C
HETATM   33  C2  UNL     1       4.012  40.017  19.870  1.00  0.00     0.149 C
ENDBRANCH  29  31
ENDBRANCH  27  28
ENDBRANCH  26  27
ENDBRANCH  24  26
ENDBRANCH   1  24
BRANCH   7  34
HETATM   34  N9  UNL     1       3.511  38.592  27.407  1.00  0.00    -0.317 N
HETATM   35  C16 UNL     1       3.232  38.192  28.654  1.00  0.00     0.098 A
HETATM   36  C17 UNL     1       2.766  39.291  29.335  1.00  0.00     0.019 A
HETATM   37  C18 UNL     1       2.776  40.354  28.460  1.00  0.00     0.019 A
HETATM   38  C19 UNL     1       3.245  39.886  27.270  1.00  0.00     0.098 A
ENDBRANCH   7  34
TORSDOF 10
ENDMDL