MODEL 3
REMARK VINA RESULT: -6.308035044      1.871      2.578
REMARK  12 active torsions:
REMARK  status: ('A' for Active; 'I' for Inactive)
REMARK    1  A    between atoms: C2_2  and  C3_3
REMARK    2  A    between atoms: C3_3  and  N1_4
REMARK       I    between atoms: N1_4  and  C4_6
REMARK       I    between atoms: C4_6  and  N2_8
REMARK    3  A    between atoms: N2_8  and  C5_9
REMARK    4  A    between atoms: N2_8  and  C13_25
REMARK    5  A    between atoms: C5_9  and  C6_10
REMARK    6  A    between atoms: C6_10  and  C7_11
REMARK    7  A    between atoms: C8_13  and  C9_14
REMARK    8  A    between atoms: C10_16  and  O3_17
REMARK    9  A    between atoms: C11_19  and  O4_20
REMARK   10  A    between atoms: C12_22  and  O5_23
REMARK   11  A    between atoms: C13_25  and  C15_27
REMARK   12  A    between atoms: C13_25  and  C21_33
ROOT
HETATM    1  N1  UNL     1       8.376  36.542  25.715  1.00  0.00    -0.340 N
ATOM      2  H1  UNL     1       9.087  36.774  25.021  1.00  0.00     0.164 HD
HETATM    3  C4  UNL     1       7.063  37.029  25.553  1.00  0.00     0.319 C
HETATM    4  O1  UNL     1       6.294  36.674  26.460  1.00  0.00    -0.247 OA
HETATM    5  N2  UNL     1       6.607  37.839  24.488  1.00  0.00    -0.320 N
ENDROOT
BRANCH   5   6
HETATM    6  C5  UNL     1       7.732  38.205  23.587  1.00  0.00     0.131 C
BRANCH   6   7
HETATM    7  C6  UNL     1       8.416  39.482  23.962  1.00  0.00     0.054 C
BRANCH   7   8
HETATM    8  C7  UNL     1       9.480  39.946  23.028  1.00  0.00     0.155 C
HETATM    9  O2  UNL     1       9.637  41.303  22.984  1.00  0.00    -0.374 OA
HETATM   10  C8  UNL     1      10.700  41.716  22.254  1.00  0.00     0.167 C
HETATM   11  C10 UNL     1      10.850  41.117  20.891  1.00  0.00     0.179 C
HETATM   12  C11 UNL     1      10.660  39.614  20.864  1.00  0.00     0.180 C
HETATM   13  C12 UNL     1       9.454  39.230  21.724  1.00  0.00     0.178 C
BRANCH  10  14
HETATM   14  C9  UNL     1      12.023  41.650  22.994  1.00  0.00     0.149 C
HETATM   15 CL1  UNL     1      13.323  41.963  21.814  1.00  0.00    -0.128 Cl
ENDBRANCH  10  14
BRANCH  11  16
HETATM   16  O3  UNL     1       9.909  41.672  19.995  1.00  0.00    -0.390 OA
ATOM     17  H3  UNL     1       9.505  42.446  20.369  1.00  0.00     0.210 HD
ENDBRANCH  11  16
BRANCH  12  18
HETATM   18  O4  UNL     1      11.798  38.909  21.237  1.00  0.00    -0.390 OA
ATOM     19  H4  UNL     1      11.665  38.355  21.997  1.00  0.00     0.210 HD
ENDBRANCH  12  18
BRANCH  13  20
HETATM   20  O5  UNL     1       8.298  39.470  20.977  1.00  0.00    -0.390 OA
ATOM     21  H5  UNL     1       8.420  39.358  20.042  1.00  0.00     0.210 HD
ENDBRANCH  13  20
ENDBRANCH   7   8
ENDBRANCH   6   7
ENDBRANCH   5   6
BRANCH   5  22
HETATM   22  C13 UNL     1       5.276  38.332  24.285  1.00  0.00     0.067 C
HETATM   23  C14 UNL     1       5.492  39.242  23.035  1.00  0.00     0.045 C
BRANCH  22  24
HETATM   24  C15 UNL     1       4.402  37.240  23.678  1.00  0.00    -0.029 A
HETATM   25  C16 UNL     1       4.512  35.911  23.951  1.00  0.00     0.010 A
HETATM   26  C17 UNL     1       3.686  34.924  23.404  1.00  0.00     0.001 A
HETATM   27  C18 UNL     1       2.697  35.300  22.532  1.00  0.00     0.000 A
HETATM   28  C19 UNL     1       2.540  36.616  22.219  1.00  0.00     0.001 A
HETATM   29  C20 UNL     1       3.376  37.542  22.783  1.00  0.00     0.010 A
ENDBRANCH  22  24
BRANCH  22  30
HETATM   30  C21 UNL     1       4.560  39.157  25.246  1.00  0.00    -0.022 C
HETATM   31  C22 UNL     1       3.787  40.315  24.524  1.00  0.00     0.017 C
HETATM   32  C23 UNL     1       3.477  38.519  26.093  1.00  0.00     0.017 C
HETATM   33  C24 UNL     1       5.354  39.973  26.263  1.00  0.00     0.017 C
ENDBRANCH  22  30
ENDBRANCH   5  22
BRANCH   1  34
HETATM   34  C3  UNL     1       8.729  35.722  26.847  1.00  0.00     0.150 C
BRANCH  34  35
HETATM   35  C2  UNL     1       9.786  34.748  26.502  1.00  0.00    -0.018 C
HETATM   36  C1  UNL     1      10.402  34.032  27.419  1.00  0.00     0.008 C
ENDBRANCH  34  35
ENDBRANCH   1  34
TORSDOF 12
ENDMDL