MODEL 1
REMARK VINA RESULT: -6.838958413      0.000      0.000
REMARK  10 active torsions:
REMARK  status: ('A' for Active; 'I' for Inactive)
REMARK    1  A    between atoms: C2_2  and  C4_4
REMARK    2  A    between atoms: C4_4  and  C5_5
REMARK    3  A    between atoms: C12_14  and  N2_15
REMARK    4  A    between atoms: N2_15  and  C13_18
REMARK    5  A    between atoms: C13_18  and  C14_19
REMARK    6  A    between atoms: C14_19  and  C15_20
REMARK    7  A    between atoms: C15_20  and  N3_22
REMARK    8  A    between atoms: C17_26  and  O2_27
REMARK    9  A    between atoms: C20_32  and  C21_33
REMARK   10  A    between atoms: C21_33  and  C22_34
ROOT
HETATM    1  C5  UNL     1       2.368  37.214  28.931  1.00  0.00     0.109 C
HETATM    2  C6  UNL     1       2.963  36.418  27.769  1.00  0.00     0.121 C
HETATM    3  C7  UNL     1       2.229  36.591  26.511  1.00  0.00     0.225 C
HETATM    4  O1  UNL     1       0.952  36.665  26.573  1.00  0.00    -0.273 OA
HETATM    5  N1  UNL     1       2.894  36.673  25.255  1.00  0.00    -0.321 N
HETATM    6  C8  UNL     1       2.355  37.129  24.014  1.00  0.00     0.090 C
HETATM    7  C9  UNL     1       3.074  36.711  22.991  1.00  0.00    -0.007 C
HETATM    8  C10 UNL     1       4.188  35.911  23.518  1.00  0.00     0.056 C
HETATM    9  C11 UNL     1       4.247  36.280  24.989  1.00  0.00     0.129 C
HETATM   10  C12 UNL     1       5.319  37.266  25.236  1.00  0.00     0.238 C
HETATM   11  C17 UNL     1       4.968  38.705  25.159  1.00  0.00     0.158 C
HETATM   12  C18 UNL     1       5.562  39.536  26.297  1.00  0.00     0.114 C
HETATM   13  C19 UNL     1       4.485  40.311  26.999  1.00  0.00     0.151 C
HETATM   14  O3  UNL     1       4.159  41.356  26.477  1.00  0.00    -0.296 OA
HETATM   15  C20 UNL     1       3.864  39.835  28.235  1.00  0.00     0.154 C
HETATM   16  N4  UNL     1       2.464  39.540  27.933  1.00  0.00    -0.349 N
ATOM     17  H4  UNL     1       1.977  40.169  27.295  1.00  0.00     0.163 HD
HETATM   18  C25 UNL     1       1.729  38.438  28.466  1.00  0.00     0.226 C
HETATM   19  O4  UNL     1       0.475  38.611  28.499  1.00  0.00    -0.273 OA
ENDROOT
BRANCH  10  20
HETATM   20  N2  UNL     1       6.463  36.921  24.337  1.00  0.00    -0.066 N
ATOM     21  H22 UNL     1       6.359  35.980  23.956  1.00  0.00     0.277 HD
ATOM     22  H21 UNL     1       6.421  37.455  23.470  1.00  0.00     0.277 HD
BRANCH  20  23
HETATM   23  C13 UNL     1       7.719  37.078  24.970  1.00  0.00     0.235 C
BRANCH  23  24
HETATM   24  C14 UNL     1       7.822  36.366  26.266  1.00  0.00     0.059 C
BRANCH  24  25
HETATM   25  C15 UNL     1       9.140  35.847  26.703  1.00  0.00     0.181 C
HETATM   26  C16 UNL     1       9.208  35.296  28.078  1.00  0.00     0.039 C
BRANCH  25  27
HETATM   27  N3  UNL     1       9.498  34.767  25.760  1.00  0.00    -0.075 N
ATOM     28  H33 UNL     1       8.719  34.470  25.172  1.00  0.00     0.274 HD
ATOM     29  H32 UNL     1      10.114  35.075  25.007  1.00  0.00     0.274 HD
ATOM     30  H31 UNL     1       9.892  34.011  26.322  1.00  0.00     0.274 HD
ENDBRANCH  25  27
ENDBRANCH  24  25
ENDBRANCH  23  24
ENDBRANCH  20  23
ENDBRANCH  10  20
BRANCH  11  31
HETATM   31  O2  UNL     1       5.535  39.219  23.971  1.00  0.00    -0.393 OA
ATOM     32  H2  UNL     1       4.884  39.138  23.284  1.00  0.00     0.210 HD
ENDBRANCH  11  31
BRANCH  15  33
HETATM   33  C21 UNL     1       3.849  40.748  29.414  1.00  0.00     0.037 C
BRANCH  33  34
HETATM   34  C22 UNL     1       4.616  40.350  30.617  1.00  0.00    -0.020 C
HETATM   35  C23 UNL     1       5.786  39.469  30.074  1.00  0.00     0.009 C
HETATM   36  C24 UNL     1       3.814  39.338  31.447  1.00  0.00     0.009 C
ENDBRANCH  33  34
ENDBRANCH  15  33
BRANCH   1  37
HETATM   37  C4  UNL     1       1.607  36.279  29.773  1.00  0.00    -0.010 C
BRANCH  37  38
HETATM   38  C2  UNL     1       1.519  36.406  31.225  1.00  0.00    -0.091 C
HETATM   39  C1  UNL     1       0.375  37.267  31.738  1.00  0.00     0.042 C
HETATM   40  C3  UNL     1       1.817  35.268  32.125  1.00  0.00     0.042 C
ENDBRANCH  37  38
ENDBRANCH   1  37
TORSDOF 10
ENDMDL