MODEL 3
REMARK VINA RESULT: -7.164321742      0.854      1.155
REMARK  13 active torsions:
REMARK  status: ('A' for Active; 'I' for Inactive)
REMARK    1  A    between atoms: O1_2  and  C2_3
REMARK    2  A    between atoms: C4_5  and  C5_6
REMARK    3  A    between atoms: C14_16  and  C15_17
REMARK    4  A    between atoms: C15_17  and  C16_18
REMARK    5  A    between atoms: C17_19  and  N1_20
REMARK    6  A    between atoms: C18_25  and  N3_26
REMARK    7  A    between atoms: N3_26  and  C19_28
REMARK    8  A    between atoms: C19_28  and  C20_29
REMARK    9  A    between atoms: C20_29  and  O2_30
REMARK   10  A    between atoms: C21_34  and  C22_35
REMARK   11  A    between atoms: C22_35  and  C23_36
REMARK   12  A    between atoms: C23_36  and  C24_37
REMARK   13  A    between atoms: C24_37  and  N5_38
ROOT
HETATM    1  C16 UNL     1       6.652  37.728  27.285  1.00  0.00     0.036 A
HETATM    2  C17 UNL     1       7.425  37.225  28.305  1.00  0.00     0.127 A
HETATM    3  N2  UNL     1       8.314  36.224  28.085  1.00  0.00    -0.176 N
ATOM      4  H2  UNL     1       8.875  35.871  28.860  1.00  0.00     0.186 HD
HETATM    5  C18 UNL     1       8.467  35.694  26.870  1.00  0.00     0.680 A
HETATM    6  N4  UNL     1       7.735  36.153  25.849  1.00  0.00    -0.191 N
ATOM      7  H4  UNL     1       7.853  35.746  24.922  1.00  0.00     0.184 HD
HETATM    8  C21 UNL     1       6.845  37.145  26.033  1.00  0.00     0.059 A
ENDROOT
BRANCH   1   9
HETATM    9  C15 UNL     1       5.795  38.676  27.438  1.00  0.00     0.032 C
BRANCH   9  10
HETATM   10  C14 UNL     1       4.618  38.693  28.332  1.00  0.00     0.004 A
HETATM   11  C2  UNL     1       4.605  39.540  29.446  1.00  0.00     0.079 A
HETATM   12  C3  UNL     1       3.525  39.565  30.309  1.00  0.00     0.050 A
HETATM   13  C4  UNL     1       2.440  38.771  30.107  1.00  0.00    -0.023 A
HETATM   14  C11 UNL     1       2.454  37.941  29.014  1.00  0.00     0.020 A
HETATM   15  C12 UNL     1       3.516  37.888  28.130  1.00  0.00    -0.048 A
HETATM   16  C13 UNL     1       3.466  36.937  26.960  1.00  0.00     0.049 C
BRANCH  11  17
HETATM   17  O1  UNL     1       5.711  40.349  29.653  1.00  0.00    -0.355 OA
HETATM   18  C1  UNL     1       5.939  40.840  30.958  1.00  0.00     0.210 C
ENDBRANCH  11  17
BRANCH  13  19
HETATM   19  C5  UNL     1       1.314  38.819  31.031  1.00  0.00    -0.023 A
HETATM   20  C6  UNL     1       1.310  39.643  32.136  1.00  0.00     0.012 A
HETATM   21  C7  UNL     1       0.239  39.689  33.016  1.00  0.00     0.004 A
HETATM   22  C8  UNL     1      -0.852  38.891  32.785  1.00  0.00     0.042 A
HETATM   23  C9  UNL     1      -0.886  38.051  31.690  1.00  0.00     0.117 A
HETATM   24  F1  UNL     1      -1.970  37.245  31.443  1.00  0.00    -0.206 F
HETATM   25  C10 UNL     1       0.205  38.032  30.829  1.00  0.00     0.054 A
ENDBRANCH  13  19
ENDBRANCH   9  10
ENDBRANCH   1   9
BRANCH   2  26
HETATM   26  N1  UNL     1       7.338  37.675  29.483  1.00  0.00    -0.384 N
ATOM     27  H12 UNL     1       6.531  37.386  30.037  1.00  0.00     0.157 HD
ATOM     28  H11 UNL     1       8.044  38.301  29.869  1.00  0.00     0.157 HD
ENDBRANCH   2  26
BRANCH   8  29
HETATM   29  C22 UNL     1       6.178  37.521  24.958  1.00  0.00     0.006 C
BRANCH  29  30
HETATM   30  C23 UNL     1       5.377  36.524  24.185  1.00  0.00     0.059 C
BRANCH  30  31
HETATM   31  C24 UNL     1       4.367  37.298  23.337  1.00  0.00     0.275 C
BRANCH  31  32
HETATM   32  N5  UNL     1       3.390  36.347  22.809  1.00  0.00     0.080 N
HETATM   33  C25 UNL     1       2.044  36.738  23.167  1.00  0.00     0.309 C
HETATM   34  C26 UNL     1       3.618  35.033  23.385  1.00  0.00     0.309 C
ENDBRANCH  31  32
ENDBRANCH  30  31
ENDBRANCH  29  30
ENDBRANCH   8  29
BRANCH   5  35
HETATM   35  N3  UNL     1       9.307  34.735  26.618  1.00  0.00    -0.224 N
ATOM     36  H3  UNL     1       9.229  34.229  25.736  1.00  0.00     0.177 HD
BRANCH  35  37
HETATM   37  C19 UNL     1      10.343  34.365  27.546  1.00  0.00     0.164 C
BRANCH  37  38
HETATM   38  C20 UNL     1       9.938  33.028  28.153  1.00  0.00     0.184 C
BRANCH  38  39
HETATM   39  O2  UNL     1       9.488  32.179  27.145  1.00  0.00    -0.399 OA
ATOM     40  H2  UNL     1       8.607  32.427  26.892  1.00  0.00     0.209 HD
ENDBRANCH  38  39
ENDBRANCH  37  38
ENDBRANCH  35  37
ENDBRANCH   5  35
TORSDOF 13
ENDMDL