MODEL 2
REMARK VINA RESULT: -7.238261412      2.279      3.108
REMARK  12 active torsions:
REMARK  status: ('A' for Active; 'I' for Inactive)
REMARK    1  A    between atoms: O1_2  and  C2_3
REMARK    2  A    between atoms: C3_4  and  C4_5
REMARK    3  A    between atoms: C4_5  and  O2_6
REMARK    4  A    between atoms: S1_12  and  C8_13
REMARK    5  A    between atoms: C8_13  and  C9_14
REMARK    6  A    between atoms: C9_14  and  C10_15
REMARK    7  A    between atoms: C10_15  and  C11_16
REMARK    8  A    between atoms: C11_16  and  S2_17
REMARK    9  A    between atoms: S2_17  and  C12_19
REMARK   10  A    between atoms: C15_22  and  C16_23
REMARK   11  A    between atoms: C16_23  and  N2_27
REMARK   12  A    between atoms: C18_33  and  O5_34
ROOT
HETATM    1  C9  UNL     1       8.018  39.060  22.840  1.00  0.00     0.010 C
ENDROOT
BRANCH   1   2
HETATM    2  C8  UNL     1       6.709  39.780  22.501  1.00  0.00     0.064 C
BRANCH   2   3
HETATM    3  S1  UNL     1       5.482  39.510  23.755  1.00  0.00    -0.210 SA
HETATM    4  C7  UNL     1       3.973  40.274  23.206  1.00  0.00     0.066 C
HETATM    5  C6  UNL     1       3.275  39.234  22.431  1.00  0.00     0.042 C
HETATM    6  C5  UNL     1       3.969  37.948  22.434  1.00  0.00     0.138 C
HETATM    7  O3  UNL     1       3.043  36.921  22.318  1.00  0.00    -0.374 OA
HETATM    8  C17 UNL     1       4.914  37.812  23.560  1.00  0.00     0.098 C
HETATM    9  C3  UNL     1       2.689  36.289  23.461  1.00  0.00     0.177 C
HETATM   10  C2  UNL     1       2.884  37.016  24.738  1.00  0.00     0.181 C
HETATM   11  C18 UNL     1       4.344  37.385  24.860  1.00  0.00     0.165 C
BRANCH   9  12
HETATM   12  C4  UNL     1       3.467  34.970  23.558  1.00  0.00     0.198 C
BRANCH  12  13
HETATM   13  O2  UNL     1       3.288  34.335  22.325  1.00  0.00    -0.398 OA
ATOM     14  H2  UNL     1       4.107  34.449  21.857  1.00  0.00     0.209 HD
ENDBRANCH  12  13
ENDBRANCH   9  12
BRANCH  10  15
HETATM   15  O1  UNL     1       2.540  36.163  25.785  1.00  0.00    -0.385 OA
HETATM   16  C1  UNL     1       1.516  36.707  26.567  1.00  0.00     0.202 C
ENDBRANCH  10  15
BRANCH  11  17
HETATM   17  O5  UNL     1       4.511  38.315  25.883  1.00  0.00    -0.392 OA
ATOM     18  H5  UNL     1       5.436  38.503  25.999  1.00  0.00     0.210 HD
ENDBRANCH  11  17
ENDBRANCH   2   3
ENDBRANCH   1   2
BRANCH   1  19
HETATM   19  C10 UNL     1       8.139  39.073  24.320  1.00  0.00     0.014 C
BRANCH  19  20
HETATM   20  C11 UNL     1       8.776  37.901  24.963  1.00  0.00     0.116 C
BRANCH  20  21
HETATM   21  S2  UNL     1       7.801  36.991  26.096  1.00  0.00     0.066 S
HETATM   22  O4  UNL     1       7.301  37.971  27.357  1.00  0.00    -0.251 OA
BRANCH  21  23
HETATM   23  C12 UNL     1       8.838  35.744  26.812  1.00  0.00     0.101 A
HETATM   24  C13 UNL     1       9.822  35.024  26.188  1.00  0.00     0.041 A
HETATM   25  C14 UNL     1      10.357  34.177  27.132  1.00  0.00     0.036 A
HETATM   26  C15 UNL     1       9.712  34.371  28.334  1.00  0.00     0.078 A
HETATM   27  N3  UNL     1       8.804  35.326  28.088  1.00  0.00    -0.346 N
ATOM     28  H3  UNL     1       8.161  35.694  28.789  1.00  0.00     0.167 HD
BRANCH  26  29
HETATM   29  C16 UNL     1       9.987  33.662  29.592  1.00  0.00     0.136 C
HETATM   30  N1  UNL     1       9.736  34.241  30.708  1.00  0.00    -0.383 N
ATOM     31  H12 UNL     1       9.350  35.185  30.692  1.00  0.00     0.157 HD
ATOM     32  H11 UNL     1       9.928  33.750  31.580  1.00  0.00     0.157 HD
BRANCH  29  33
HETATM   33  N2  UNL     1      10.520  32.360  29.613  1.00  0.00    -0.283 N
HETATM   34 CL1  UNL     1       9.911  31.172  28.522  1.00  0.00     0.012 Cl
ATOM     35  H2  UNL     1      11.263  32.120  30.269  1.00  0.00     0.182 HD
ENDBRANCH  29  33
ENDBRANCH  26  29
ENDBRANCH  21  23
ENDBRANCH  20  21
ENDBRANCH  19  20
ENDBRANCH   1  19
TORSDOF 12
ENDMDL