MODEL 4
REMARK VINA RESULT: -6.178458286      3.420      7.354
REMARK  12 active torsions:
REMARK  status: ('A' for Active; 'I' for Inactive)
REMARK    1  A    between atoms: C3_3  and  C4_4
REMARK    2  A    between atoms: C7_7  and  C8_8
REMARK    3  A    between atoms: C8_8  and  C9_9
REMARK    4  A    between atoms: C9_9  and  C10_10
REMARK    5  A    between atoms: C10_10  and  N1_11
REMARK    6  A    between atoms: C10_10  and  C16_20
REMARK       I    between atoms: N1_11  and  C11_13
REMARK    7  A    between atoms: C11_13  and  O2_15
REMARK    8  A    between atoms: O2_15  and  C12_16
REMARK       I    between atoms: C16_20  and  N2_22
REMARK    9  A    between atoms: N2_22  and  C17_24
REMARK   10  A    between atoms: C17_24  and  O4_26
REMARK   11  A    between atoms: C17_24  and  C19_28
REMARK   12  A    between atoms: C19_28  and  C20_30
ROOT
HETATM    1  C1  UNL     1      10.316  33.404  28.061  1.00  0.00     0.112 C
HETATM    2  C2  UNL     1       9.666  34.565  27.464  1.00  0.00    -0.104 C
HETATM    3  C3  UNL     1       9.109  35.517  26.978  1.00  0.00    -0.049 C
ENDROOT
BRANCH   3   4
HETATM    4  C4  UNL     1       8.415  36.664  26.401  1.00  0.00     0.087 A
HETATM    5  C5  UNL     1       7.412  37.380  27.012  1.00  0.00     0.041 A
HETATM    6  C6  UNL     1       7.035  38.383  26.114  1.00  0.00     0.028 A
HETATM    7  C7  UNL     1       7.815  38.235  25.004  1.00  0.00     0.010 A
HETATM    8  N3  UNL     1       8.655  37.175  25.203  1.00  0.00    -0.353 N
ATOM      9  H3  UNL     1       9.351  36.835  24.540  1.00  0.00     0.166 HD
BRANCH   7  10
HETATM   10  C8  UNL     1       7.805  39.017  23.762  1.00  0.00     0.059 C
BRANCH  10  11
HETATM   11  C9  UNL     1       7.006  40.262  23.762  1.00  0.00     0.041 C
BRANCH  11  12
HETATM   12  C10 UNL     1       5.696  40.231  23.064  1.00  0.00     0.179 C
BRANCH  12  13
HETATM   13  N1  UNL     1       5.227  38.878  22.811  1.00  0.00    -0.324 N
HETATM   14  C11 UNL     1       3.872  38.517  22.750  1.00  0.00     0.362 C
HETATM   15  O1  UNL     1       2.996  39.383  22.917  1.00  0.00    -0.238 OA
ATOM     16  H1  UNL     1       5.924  38.148  22.670  1.00  0.00     0.165 HD
BRANCH  14  17
HETATM   17  O2  UNL     1       3.498  37.222  22.508  1.00  0.00    -0.294 OA
BRANCH  17  18
HETATM   18  C12 UNL     1       2.870  36.376  23.430  1.00  0.00     0.061 C
HETATM   19  C13 UNL     1       1.387  36.502  23.479  1.00  0.00     0.046 C
HETATM   20  C14 UNL     1       3.201  34.940  23.001  1.00  0.00     0.046 C
HETATM   21  C15 UNL     1       3.421  36.521  24.837  1.00  0.00     0.046 C
ENDBRANCH  17  18
ENDBRANCH  14  17
ENDBRANCH  12  13
BRANCH  12  22
HETATM   22  C16 UNL     1       5.810  40.950  21.781  1.00  0.00     0.243 C
HETATM   23  O3  UNL     1       5.214  42.042  21.621  1.00  0.00    -0.271 OA
HETATM   24  N2  UNL     1       6.588  40.415  20.722  1.00  0.00    -0.322 N
ATOM     25  H2  UNL     1       7.062  39.527  20.887  1.00  0.00     0.166 HD
BRANCH  24  26
HETATM   26  C17 UNL     1       6.760  41.034  19.428  1.00  0.00     0.193 C
HETATM   27  C18 UNL     1       5.455  40.951  18.628  1.00  0.00     0.080 C
BRANCH  26  28
HETATM   28  O4  UNL     1       6.948  42.416  19.644  1.00  0.00    -0.365 OA
ATOM     29  H4  UNL     1       6.825  42.852  18.810  1.00  0.00     0.213 HD
ENDBRANCH  26  28
BRANCH  26  30
HETATM   30  C19 UNL     1       7.889  40.534  18.644  1.00  0.00     0.191 C
HETATM   31  O5  UNL     1       8.166  40.917  17.535  1.00  0.00    -0.292 OA
BRANCH  30  32
HETATM   32  C20 UNL     1       8.788  39.471  19.223  1.00  0.00     0.168 C
HETATM   33 BR1  UNL     1      10.149  40.222  20.356  1.00  0.00    -0.088 Br
ENDBRANCH  30  32
ENDBRANCH  26  30
ENDBRANCH  24  26
ENDBRANCH  12  22
ENDBRANCH  11  12
ENDBRANCH  10  11
ENDBRANCH   7  10
ENDBRANCH   3   4
TORSDOF 12
ENDMDL