MODEL 2
REMARK VINA RESULT: -7.061492896      0.883      1.103
REMARK  13 active torsions:
REMARK  status: ('A' for Active; 'I' for Inactive)
REMARK    1  A    between atoms: N1_2  and  S1_4
REMARK    2  A    between atoms: S1_4  and  N2_5
REMARK    3  A    between atoms: S1_4  and  C2_9
REMARK    4  A    between atoms: C6_13  and  N3_14
REMARK    5  A    between atoms: N3_14  and  C7_16
REMARK    6  A    between atoms: C11_23  and  N5_24
REMARK    7  A    between atoms: N5_24  and  C12_26
REMARK    8  A    between atoms: C12_26  and  C13_27
REMARK    9  A    between atoms: C13_27  and  C14_28
REMARK   10  A    between atoms: C14_28  and  C15_29
REMARK   11  A    between atoms: C15_29  and  C16_30
REMARK   12  A    between atoms: C16_30  and  C17_31
REMARK   13  A    between atoms: C17_31  and  N6_32
ROOT
HETATM    1  C7  UNL     1       4.506  36.825  23.799  1.00  0.00     0.684 A
HETATM    2  N4  UNL     1       4.580  38.042  23.233  1.00  0.00    -0.194 N
ATOM      3  H4  UNL     1       3.747  38.427  22.788  1.00  0.00     0.184 HD
HETATM    4  C8  UNL     1       5.699  38.766  23.230  1.00  0.00     0.043 A
HETATM    5  C9  UNL     1       5.688  40.106  22.579  1.00  0.00     0.070 C
HETATM    6  C10 UNL     1       6.840  38.272  23.822  1.00  0.00     0.077 A
HETATM    7 BR1  UNL     1       8.446  39.253  23.846  1.00  0.00    -0.045 Br
HETATM    8  C11 UNL     1       6.792  37.007  24.419  1.00  0.00     0.136 A
HETATM    9  N7  UNL     1       5.634  36.347  24.379  1.00  0.00    -0.175 N
ATOM     10  H7  UNL     1       5.595  35.425  24.812  1.00  0.00     0.186 HD
ENDROOT
BRANCH   1  11
HETATM   11  N3  UNL     1       3.411  36.128  23.797  1.00  0.00    -0.192 N
ATOM     12  H3  UNL     1       3.301  35.306  23.204  1.00  0.00     0.184 HD
BRANCH  11  13
HETATM   13  C6  UNL     1       2.373  36.569  24.663  1.00  0.00     0.050 A
HETATM   14  C5  UNL     1       1.076  36.747  24.228  1.00  0.00     0.030 A
HETATM   15  C4  UNL     1       0.073  37.175  25.072  1.00  0.00     0.004 A
HETATM   16  C3  UNL     1       0.387  37.436  26.412  1.00  0.00     0.024 A
HETATM   17  C2  UNL     1       1.670  37.269  26.887  1.00  0.00     0.060 A
HETATM   18  C18 UNL     1       2.641  36.841  26.010  1.00  0.00     0.053 A
BRANCH  17  19
HETATM   19  S1  UNL     1       2.017  37.606  28.565  1.00  0.00     0.132 S
HETATM   20  O1  UNL     1       3.219  38.542  28.570  1.00  0.00    -0.224 OA
BRANCH  19  21
HETATM   21  N1  UNL     1       2.465  36.328  29.317  1.00  0.00    -0.337 N
HETATM   22  C1  UNL     1       1.746  36.012  30.538  1.00  0.00     0.158 C
ATOM     23  H1  UNL     1       3.225  35.740  28.973  1.00  0.00     0.170 HD
ENDBRANCH  19  21
BRANCH  19  24
HETATM   24  N2  UNL     1       0.730  38.418  29.344  1.00  0.00    -0.341 N
ATOM     25  H22 UNL     1      -0.202  38.014  29.436  1.00  0.00     0.167 HD
ATOM     26  H21 UNL     1       0.999  39.335  29.700  1.00  0.00     0.167 HD
ENDBRANCH  19  24
ENDBRANCH  17  19
ENDBRANCH  11  13
ENDBRANCH   1  11
BRANCH   8  27
HETATM   27  N5  UNL     1       7.867  36.560  24.968  1.00  0.00    -0.375 N
ATOM     28  H5  UNL     1       8.628  36.320  24.334  1.00  0.00     0.161 HD
BRANCH  27  29
HETATM   29  C12 UNL     1       8.120  36.362  26.351  1.00  0.00     0.121 C
BRANCH  29  30
HETATM   30  C13 UNL     1       9.558  35.913  26.510  1.00  0.00     0.020 C
BRANCH  30  31
HETATM   31  C14 UNL     1       9.667  34.406  26.532  1.00  0.00     0.002 C
BRANCH  31  32
HETATM   32  C15 UNL     1      10.352  34.002  27.804  1.00  0.00     0.002 C
BRANCH  32  33
HETATM   33  C16 UNL     1       9.629  34.422  29.039  1.00  0.00     0.027 C
BRANCH  33  34
HETATM   34  C17 UNL     1       9.676  33.366  30.128  1.00  0.00     0.229 C
BRANCH  34  35
HETATM   35  N6  UNL     1      10.533  32.267  29.727  1.00  0.00    -0.079 N
ATOM     36  H63 UNL     1      10.101  31.361  29.910  1.00  0.00     0.274 HD
ATOM     37  H62 UNL     1      10.611  32.195  28.713  1.00  0.00     0.274 HD
ATOM     38  H61 UNL     1      11.447  32.349  30.173  1.00  0.00     0.274 HD
ENDBRANCH  34  35
ENDBRANCH  33  34
ENDBRANCH  32  33
ENDBRANCH  31  32
ENDBRANCH  30  31
ENDBRANCH  29  30
ENDBRANCH  27  29
ENDBRANCH   8  27
TORSDOF 13
ENDMDL