MODEL 4
REMARK VINA RESULT: -8.169122544      3.049      4.274
REMARK  9 active torsions:
REMARK  status: ('A' for Active; 'I' for Inactive)
REMARK    1  A    between atoms: C1_2  and  C2_4
REMARK    2  A    between atoms: C2_4  and  C3_5
REMARK    3  A    between atoms: C2_4  and  N3_13
REMARK    4  A    between atoms: C3_5  and  C4_6
REMARK    5  A    between atoms: N3_13  and  S1_15
REMARK    6  A    between atoms: S1_15  and  C7_18
REMARK    7  A    between atoms: C11_22  and  C12_23
REMARK    8  A    between atoms: C12_23  and  O5_24
REMARK    9  A    between atoms: C12_23  and  C13_26
ROOT
HETATM    1  S1  UNL     1       7.334  37.167  24.979  1.00  0.00     0.259 S
HETATM    2  O3  UNL     1       7.780  37.534  23.599  1.00  0.00    -0.201 OA
HETATM    3  O4  UNL     1       7.656  38.347  25.875  1.00  0.00    -0.201 OA
ENDROOT
BRANCH   1   4
HETATM    4  N3  UNL     1       8.167  35.811  25.610  1.00  0.00    -0.300 N
ATOM      5  H3  UNL     1       7.892  34.852  25.396  1.00  0.00     0.173 HD
BRANCH   4   6
HETATM    6  C2  UNL     1       9.268  36.120  26.453  1.00  0.00     0.199 C
BRANCH   6   7
HETATM    7  C1  UNL     1       8.899  36.436  27.841  1.00  0.00     0.197 C
HETATM    8  O1  UNL     1       9.697  37.095  28.554  1.00  0.00    -0.646 OA
HETATM    9  O2  UNL     1       7.706  36.044  28.420  1.00  0.00    -0.646 OA
ENDBRANCH   6   7
BRANCH   6  10
HETATM   10  C3  UNL     1      10.294  35.006  26.422  1.00  0.00     0.095 C
BRANCH  10  11
HETATM   11  C4  UNL     1      10.127  34.002  27.475  1.00  0.00     0.028 A
HETATM   12  C5  UNL     1       9.817  32.681  27.291  1.00  0.00     0.114 A
HETATM   13  N1  UNL     1       9.747  32.070  28.478  1.00  0.00    -0.360 N
HETATM   14  C6  UNL     1      10.016  33.029  29.385  1.00  0.00     0.180 A
ATOM     15  H1  UNL     1       9.535  31.088  28.658  1.00  0.00     0.166 HD
HETATM   16  N2  UNL     1      10.246  34.192  28.789  1.00  0.00    -0.354 N
ATOM     17  H2  UNL     1      10.473  35.072  29.252  1.00  0.00     0.166 HD
ENDBRANCH  10  11
ENDBRANCH   6  10
ENDBRANCH   4   6
ENDBRANCH   1   4
BRANCH   1  18
HETATM   18  C7  UNL     1       5.611  36.988  24.965  1.00  0.00     0.080 A
HETATM   19  C8  UNL     1       4.917  37.131  23.787  1.00  0.00     0.025 A
HETATM   20  C9  UNL     1       3.529  36.994  23.734  1.00  0.00     0.002 A
HETATM   21  C10 UNL     1       2.823  36.706  24.882  1.00  0.00     0.010 A
HETATM   22  C11 UNL     1       3.519  36.562  26.063  1.00  0.00    -0.024 A
HETATM   23  C19 UNL     1       4.906  36.701  26.113  1.00  0.00     0.035 A
BRANCH  22  24
HETATM   24  C12 UNL     1       2.773  36.257  27.291  1.00  0.00     0.184 C
BRANCH  24  25
HETATM   25  O5  UNL     1       3.657  36.205  28.376  1.00  0.00    -0.386 OA
ATOM     26  H5  UNL     1       3.195  35.900  29.147  1.00  0.00     0.210 HD
ENDBRANCH  24  25
BRANCH  24  27
HETATM   27  C13 UNL     1       1.757  37.285  27.621  1.00  0.00    -0.024 A
HETATM   28  C14 UNL     1       2.196  38.546  27.958  1.00  0.00     0.010 A
HETATM   29  C15 UNL     1       1.293  39.563  28.281  1.00  0.00     0.002 A
HETATM   30  C16 UNL     1      -0.061  39.306  28.262  1.00  0.00     0.019 A
HETATM   31  C17 UNL     1      -0.518  38.036  27.923  1.00  0.00     0.011 A
HETATM   32 BR1  UNL     1      -2.392  37.712  27.905  1.00  0.00    -0.051 Br
HETATM   33  C18 UNL     1       0.400  37.047  27.608  1.00  0.00     0.029 A
ENDBRANCH  24  27
ENDBRANCH  22  24
ENDBRANCH   1  18
TORSDOF 9
ENDMDL