MODEL 5
REMARK VINA RESULT: -7.184962856      4.635      9.665
REMARK  8 active torsions:
REMARK  status: ('A' for Active; 'I' for Inactive)
REMARK    1  A    between atoms: C2_2  and  C15_21
REMARK    2  A    between atoms: C3_3  and  C4_4
REMARK    3  A    between atoms: C4_4  and  C5_5
REMARK    4  A    between atoms: C8_9  and  O1_10
REMARK    5  A    between atoms: O1_10  and  C9_11
REMARK    6  A    between atoms: C9_11  and  C10_12
REMARK    7  A    between atoms: C9_11  and  C11_15
REMARK       I    between atoms: C15_21  and  N2_23
REMARK    8  A    between atoms: C16_25  and  C17_26
ROOT
HETATM    1  C4  UNL     1       4.494  36.723  24.768  1.00  0.00     0.067 C
ENDROOT
BRANCH   1   2
HETATM    2  C3  UNL     1       5.258  36.769  26.031  1.00  0.00    -0.010 C
HETATM    3  C2  UNL     1       6.574  36.839  26.072  1.00  0.00     0.003 C
HETATM    4  C1  UNL     1       7.373  36.872  24.820  1.00  0.00     0.054 C
BRANCH   3   5
HETATM    5  C15 UNL     1       7.271  36.908  27.356  1.00  0.00     0.250 C
HETATM    6  O5  UNL     1       6.574  36.719  28.398  1.00  0.00    -0.268 OA
HETATM    7  N2  UNL     1       8.622  37.165  27.492  1.00  0.00    -0.331 N
HETATM    8  C16 UNL     1       9.634  36.470  27.716  1.00  0.00     0.122 C
ATOM      9  H2  UNL     1       8.844  38.155  27.385  1.00  0.00     0.168 HD
BRANCH   8  10
HETATM   10  C17 UNL     1       9.699  35.044  27.917  1.00  0.00     0.069 A
HETATM   11  C18 UNL     1       9.640  34.033  26.989  1.00  0.00     0.108 A
HETATM   12  C19 UNL     1       9.730  32.798  27.631  1.00  0.00     0.262 A
HETATM   13  O6  UNL     1       9.710  31.661  27.087  1.00  0.00    -0.267 OA
HETATM   14  N3  UNL     1       9.840  33.103  28.929  1.00  0.00    -0.266 N
HETATM   15  N4  UNL     1       9.823  34.403  29.114  1.00  0.00    -0.296 N
ATOM     16  H3  UNL     1       9.926  32.415  29.677  1.00  0.00     0.190 HD
ATOM     17  H4  UNL     1       9.893  34.866  30.021  1.00  0.00     0.187 HD
ENDBRANCH   8  10
ENDBRANCH   3   5
ENDBRANCH   1   2
BRANCH   1  18
HETATM   18  C5  UNL     1       3.054  36.754  25.068  1.00  0.00    -0.047 A
HETATM   19  C6  UNL     1       2.682  36.788  26.420  1.00  0.00     0.029 A
HETATM   20  C7  UNL     1       1.362  36.809  26.777  1.00  0.00     0.044 A
HETATM   21 BR1  UNL     1       0.811  36.854  28.616  1.00  0.00    -0.048 Br
HETATM   22  C8  UNL     1       0.377  36.796  25.769  1.00  0.00     0.088 A
HETATM   23  C12 UNL     1       0.719  36.764  24.436  1.00  0.00     0.045 A
HETATM   24  C13 UNL     1       2.078  36.743  24.100  1.00  0.00    -0.053 A
HETATM   25  C14 UNL     1       2.403  36.709  22.660  1.00  0.00     0.049 C
BRANCH  22  26
HETATM   26  O1  UNL     1      -0.913  36.818  26.234  1.00  0.00    -0.325 OA
BRANCH  26  27
HETATM   27  C9  UNL     1      -2.048  36.776  25.433  1.00  0.00     0.318 C
BRANCH  27  28
HETATM   28  C10 UNL     1      -2.912  35.589  25.783  1.00  0.00     0.271 C
HETATM   29  N1  UNL     1      -3.880  35.747  26.781  1.00  0.00    -0.059 NA
HETATM   30  O2  UNL     1      -2.741  34.516  25.183  1.00  0.00    -0.273 OA
ENDBRANCH  27  28
BRANCH  27  31
HETATM   31  C11 UNL     1      -2.879  38.023  25.585  1.00  0.00     0.212 C
HETATM   32  O3  UNL     1      -2.601  38.785  26.534  1.00  0.00    -0.646 OA
HETATM   33  O4  UNL     1      -3.914  38.358  24.742  1.00  0.00    -0.646 OA
ENDBRANCH  27  31
ENDBRANCH  26  27
ENDBRANCH  22  26
ENDBRANCH   1  18
TORSDOF 8
ENDMDL