MODEL 4
REMARK VINA RESULT: -9.201869530      2.529      4.416
REMARK  19 active torsions:
REMARK  status: ('A' for Active; 'I' for Inactive)
REMARK    1  A    between atoms: C3_3  and  C4_4
REMARK    2  A    between atoms: C3_3  and  C24_41
REMARK       I    between atoms: C4_4  and  N1_6
REMARK    3  A    between atoms: N1_6  and  C5_8
REMARK    4  A    between atoms: N2_12  and  C7_13
REMARK    5  A    between atoms: C7_13  and  C8_14
REMARK    6  A    between atoms: C7_13  and  C15_21
REMARK    7  A    between atoms: C8_14  and  C9_15
REMARK    8  A    between atoms: C15_21  and  O4_22
REMARK    9  A    between atoms: C15_21  and  N3_24
REMARK   10  A    between atoms: N3_24  and  C16_26
REMARK   11  A    between atoms: C16_26  and  C17_27
REMARK   12  A    between atoms: C16_26  and  C19_29
REMARK   13  A    between atoms: C19_29  and  O5_30
REMARK   14  A    between atoms: C19_29  and  C20_32
REMARK   15  A    between atoms: C20_32  and  C21_33
REMARK   16  A    between atoms: C21_33  and  O6_34
REMARK   17  A    between atoms: C21_33  and  C22_36
REMARK   18  A    between atoms: C24_41  and  N4_43
REMARK   19  A    between atoms: N4_43  and  C25_45
ROOT
HETATM    1  C7  UNL     1      70.295  23.043 -59.300  1.00  0.00     0.167 C
ENDROOT
BRANCH   1   2
HETATM    2  N2  UNL     1      69.470  22.583 -60.382  1.00  0.00    -0.206 N
HETATM    3  O3  UNL     1      68.106  22.285 -60.363  1.00  0.00    -0.191 OA
HETATM    4  C6  UNL     1      67.678  21.912 -61.637  1.00  0.00     0.313 C
HETATM    5  C5  UNL     1      68.655  22.501 -62.556  1.00  0.00     0.281 C
HETATM    6  O2  UNL     1      66.655  21.216 -61.877  1.00  0.00    -0.260 OA
HETATM    7  C23 UNL     1      69.908  22.383 -61.747  1.00  0.00     0.277 C
HETATM    8  O9  UNL     1      71.077  22.161 -62.150  1.00  0.00    -0.268 OA
BRANCH   5   9
HETATM    9  N1  UNL     1      68.771  21.788 -63.831  1.00  0.00    -0.335 N
HETATM   10  C4  UNL     1      68.567  22.428 -65.064  1.00  0.00     0.255 C
HETATM   11  O1  UNL     1      68.303  23.686 -64.917  1.00  0.00    -0.268 OA
ATOM     12  H1  UNL     1      69.006  20.796 -63.822  1.00  0.00     0.164 HD
BRANCH  10  13
HETATM   13  C3  UNL     1      68.607  21.925 -66.411  1.00  0.00     0.065 C
HETATM   14  C2  UNL     1      69.812  21.692 -66.985  1.00  0.00    -0.011 C
HETATM   15  C1  UNL     1      71.114  21.909 -66.349  1.00  0.00     0.037 C
BRANCH  13  16
HETATM   16  C24 UNL     1      67.471  21.658 -67.276  1.00  0.00     0.112 C
HETATM   17  S1  UNL     1      67.667  20.615 -68.544  1.00  0.00    -0.060 SA
BRANCH  16  18
HETATM   18  N4  UNL     1      66.182  22.254 -67.168  1.00  0.00    -0.375 N
ATOM     19  H4  UNL     1      66.018  23.185 -67.549  1.00  0.00     0.161 HD
BRANCH  18  20
HETATM   20  C25 UNL     1      65.080  21.524 -66.502  1.00  0.00     0.086 C
HETATM   21  C26 UNL     1      64.958  22.116 -65.129  1.00  0.00     0.025 C
HETATM   22  C27 UNL     1      63.642  22.783 -64.882  1.00  0.00     0.002 C
HETATM   23  C28 UNL     1      63.162  23.695 -65.953  1.00  0.00     0.001 C
HETATM   24  C29 UNL     1      63.418  23.211 -67.327  1.00  0.00     0.006 C
HETATM   25  C30 UNL     1      63.836  21.769 -67.337  1.00  0.00     0.004 C
HETATM   26  C31 UNL     1      62.691  20.874 -66.902  1.00  0.00     0.012 C
ENDBRANCH  18  20
ENDBRANCH  16  18
ENDBRANCH  13  16
ENDBRANCH  10  13
ENDBRANCH   5   9
ENDBRANCH   1   2
BRANCH   1  27
HETATM   27  C8  UNL     1      69.820  24.215 -58.524  1.00  0.00     0.037 C
BRANCH  27  28
HETATM   28  C9  UNL     1      70.713  24.713 -57.459  1.00  0.00    -0.012 C
HETATM   29  C10 UNL     1      72.036  25.275 -57.804  1.00  0.00     0.005 C
HETATM   30  C11 UNL     1      72.532  26.256 -56.744  1.00  0.00     0.000 C
HETATM   31  C12 UNL     1      72.090  25.939 -55.360  1.00  0.00     0.000 C
HETATM   32  C13 UNL     1      70.634  25.625 -55.193  1.00  0.00     0.000 C
HETATM   33  C14 UNL     1      69.957  25.707 -56.538  1.00  0.00     0.005 C
ENDBRANCH  27  28
ENDBRANCH   1  27
BRANCH   1  34
HETATM   34  C15 UNL     1      70.645  21.873 -58.355  1.00  0.00     0.239 C
BRANCH  34  35
HETATM   35  O4  UNL     1      71.932  21.441 -58.657  1.00  0.00    -0.375 OA
ATOM     36  H4  UNL     1      72.215  20.849 -57.969  1.00  0.00     0.212 HD
ENDBRANCH  34  35
BRANCH  34  37
HETATM   37  N3  UNL     1      69.629  20.909 -58.393  1.00  0.00    -0.389 N
ATOM     38  H3  UNL     1      69.553  20.315 -59.219  1.00  0.00     0.156 HD
BRANCH  37  39
HETATM   39  C16 UNL     1      68.718  20.725 -57.357  1.00  0.00     0.107 C
BRANCH  39  40
HETATM   40  C17 UNL     1      69.295  21.330 -56.072  1.00  0.00     0.023 C
HETATM   41  C18 UNL     1      68.442  22.451 -55.538  1.00  0.00     0.007 C
ENDBRANCH  39  40
BRANCH  39  42
HETATM   42  C19 UNL     1      68.366  19.291 -56.989  1.00  0.00     0.143 C
BRANCH  42  43
HETATM   43  O5  UNL     1      68.468  19.297 -55.561  1.00  0.00    -0.393 OA
ATOM     44  H5  UNL     1      69.407  19.327 -55.418  1.00  0.00     0.210 HD
ENDBRANCH  42  43
BRANCH  42  45
HETATM   45  C20 UNL     1      69.313  18.303 -57.587  1.00  0.00     0.076 C
BRANCH  45  46
HETATM   46  C21 UNL     1      70.309  17.781 -56.586  1.00  0.00     0.221 C
BRANCH  46  47
HETATM   47  O6  UNL     1      70.523  16.415 -57.012  1.00  0.00    -0.385 OA
ATOM     48  H6  UNL     1      70.727  16.505 -57.935  1.00  0.00     0.210 HD
ENDBRANCH  46  47
BRANCH  46  49
HETATM   49  C22 UNL     1      71.631  18.412 -56.582  1.00  0.00     0.203 C
HETATM   50  O7  UNL     1      72.073  18.903 -57.674  1.00  0.00    -0.646 OA
HETATM   51  O8  UNL     1      72.492  18.543 -55.509  1.00  0.00    -0.646 OA
ENDBRANCH  46  49
ENDBRANCH  45  46
ENDBRANCH  42  45
ENDBRANCH  39  42
ENDBRANCH  37  39
ENDBRANCH  34  37
ENDBRANCH   1  34
TORSDOF 19
ENDMDL