MODEL 5
REMARK VINA RESULT: -8.235601267      1.232      1.765
REMARK  20 active torsions:
REMARK  status: ('A' for Active; 'I' for Inactive)
REMARK    1  A    between atoms: C2_2  and  C3_3
REMARK    2  A    between atoms: C3_3  and  N1_4
REMARK    3  A    between atoms: C3_3  and  C10_15
REMARK       I    between atoms: N1_4  and  C4_5
REMARK    4  A    between atoms: C4_5  and  C5_7
REMARK    5  A    between atoms: C5_7  and  N2_8
REMARK    6  A    between atoms: C5_7  and  C7_12
REMARK       I    between atoms: N2_8  and  C6_9
REMARK       I    between atoms: C10_15  and  N4_17
REMARK    7  A    between atoms: N4_17  and  C11_19
REMARK    8  A    between atoms: C11_19  and  C12_20
REMARK    9  A    between atoms: C12_20  and  O4_21
REMARK   10  A    between atoms: C12_20  and  C13_23
REMARK   11  A    between atoms: C13_23  and  O5_24
REMARK   12  A    between atoms: C13_23  and  C14_26
REMARK   13  A    between atoms: C14_26  and  C16_28
REMARK   14  A    between atoms: C21_33  and  C22_34
REMARK   15  A    between atoms: C22_34  and  O6_35
REMARK   16  A    between atoms: C22_34  and  N5_37
REMARK   17  A    between atoms: N5_37  and  C23_39
REMARK   18  A    between atoms: C25_43  and  O7_44
REMARK   19  A    between atoms: O7_44  and  C26_45
REMARK   20  A    between atoms: C26_45  and  C27_47
ROOT
HETATM    1  C11 UNL     1      69.419  23.594 -66.883  1.00  0.00     0.152 A
HETATM    2  C21 UNL     1      70.643  23.892 -67.510  1.00  0.00     0.094 A
HETATM    3  N6  UNL     1      71.335  23.720 -66.464  1.00  0.00    -0.358 N
ATOM      4  H6  UNL     1      72.333  23.791 -66.263  1.00  0.00     0.162 HD
HETATM    5  C25 UNL     1      70.213  23.397 -65.685  1.00  0.00     0.268 A
ENDROOT
BRANCH   1   6
HETATM    6  N4  UNL     1      68.646  22.431 -67.205  1.00  0.00    -0.337 N
HETATM    7  C10 UNL     1      68.974  21.370 -68.025  1.00  0.00     0.258 C
HETATM    8  O3  UNL     1      70.036  21.161 -68.616  1.00  0.00    -0.270 OA
ATOM      9  H4  UNL     1      67.726  22.380 -66.769  1.00  0.00     0.164 HD
BRANCH   7  10
HETATM   10  C3  UNL     1      67.942  20.269 -68.303  1.00  0.00     0.280 C
BRANCH  10  11
HETATM   11  C2  UNL     1      66.840  20.467 -67.268  1.00  0.00     0.011 C
HETATM   12  C1  UNL     1      65.630  19.993 -67.371  1.00  0.00     0.010 C
ENDBRANCH  10  11
BRANCH  10  13
HETATM   13  N1  UNL     1      67.433  20.242 -69.591  1.00  0.00    -0.393 NA
HETATM   14  C4  UNL     1      66.951  20.236 -70.865  1.00  0.00     0.324 C
HETATM   15  O1  UNL     1      67.320  20.950 -71.777  1.00  0.00    -0.254 OA
BRANCH  14  16
HETATM   16  C5  UNL     1      65.844  19.203 -71.260  1.00  0.00     0.278 C
BRANCH  16  17
HETATM   17  N2  UNL     1      66.305  18.469 -72.323  1.00  0.00    -0.382 NA
HETATM   18  C6  UNL     1      66.766  17.714 -73.388  1.00  0.00     0.401 C
HETATM   19  N3  UNL     1      67.448  18.418 -74.499  1.00  0.00    -0.025 NA
HETATM   20  O2  UNL     1      66.740  16.498 -73.612  1.00  0.00    -0.234 OA
ENDBRANCH  16  17
BRANCH  16  21
HETATM   21  C7  UNL     1      64.664  20.112 -71.720  1.00  0.00     0.024 C
HETATM   22  C8  UNL     1      63.689  20.308 -70.534  1.00  0.00     0.013 C
HETATM   23  C9  UNL     1      63.780  19.364 -72.739  1.00  0.00     0.013 C
ENDBRANCH  16  21
ENDBRANCH  14  16
ENDBRANCH  10  13
ENDBRANCH   7  10
ENDBRANCH   1   6
BRANCH   1  24
HETATM   24  C12 UNL     1      68.386  24.736 -66.793  1.00  0.00     0.186 C
BRANCH  24  25
HETATM   25  O4  UNL     1      69.027  25.861 -66.345  1.00  0.00    -0.390 OA
ATOM     26  H4  UNL     1      69.039  26.498 -67.050  1.00  0.00     0.210 HD
ENDBRANCH  24  25
BRANCH  24  27
HETATM   27  C13 UNL     1      67.533  25.010 -67.979  1.00  0.00     0.154 C
BRANCH  27  28
HETATM   28  O5  UNL     1      67.530  26.336 -68.286  1.00  0.00    -0.393 OA
ATOM     29  H5  UNL     1      67.102  26.844 -67.606  1.00  0.00     0.210 HD
ENDBRANCH  27  28
BRANCH  27  30
HETATM   30  C14 UNL     1      66.179  24.369 -67.780  1.00  0.00     0.017 C
HETATM   31  C15 UNL     1      65.195  25.274 -67.075  1.00  0.00     0.013 C
BRANCH  30  32
HETATM   32  C16 UNL     1      65.640  23.539 -68.878  1.00  0.00    -0.008 C
HETATM   33  C17 UNL     1      64.140  23.294 -68.843  1.00  0.00     0.005 C
HETATM   34  C18 UNL     1      63.650  24.190 -70.033  1.00  0.00     0.000 C
HETATM   35  C19 UNL     1      64.695  23.914 -71.079  1.00  0.00     0.000 C
HETATM   36  C20 UNL     1      66.002  23.889 -70.273  1.00  0.00     0.005 C
ENDBRANCH  30  32
ENDBRANCH  27  30
ENDBRANCH  24  27
ENDBRANCH   1  24
BRANCH   2  37
HETATM   37  C22 UNL     1      71.240  24.302 -68.801  1.00  0.00     0.161 C
BRANCH  37  38
HETATM   38  O6  UNL     1      72.138  25.265 -68.765  1.00  0.00    -0.345 OA
ATOM     39  H6  UNL     1      72.527  25.523 -69.593  1.00  0.00     0.219 HD
ENDBRANCH  37  38
BRANCH  37  40
HETATM   40  N5  UNL     1      71.006  23.821 -70.073  1.00  0.00    -0.370 N
ATOM     41  H5  UNL     1      71.742  23.368 -70.616  1.00  0.00     0.161 HD
BRANCH  40  42
HETATM   42  C23 UNL     1      69.647  23.992 -70.612  1.00  0.00     0.117 C
HETATM   43  C24 UNL     1      69.519  25.397 -71.168  1.00  0.00     0.026 C
ENDBRANCH  40  42
ENDBRANCH  37  40
ENDBRANCH   2  37
BRANCH   5  44
HETATM   44  O7  UNL     1      70.497  22.122 -65.089  1.00  0.00    -0.292 OA
BRANCH  44  45
HETATM   45  C26 UNL     1      70.244  21.980 -63.740  1.00  0.00     0.265 C
HETATM   46  O8  UNL     1      71.121  22.424 -62.901  1.00  0.00    -0.265 OA
BRANCH  45  47
HETATM   47  C27 UNL     1      69.060  21.343 -63.127  1.00  0.00     0.085 C
HETATM   48  C28 UNL     1      67.862  22.209 -63.007  1.00  0.00     0.014 C
HETATM   49  C29 UNL     1      66.684  21.304 -62.720  1.00  0.00     0.001 C
HETATM   50  C30 UNL     1      66.997  20.382 -61.552  1.00  0.00     0.000 C
HETATM   51  C31 UNL     1      68.260  20.842 -60.881  1.00  0.00     0.001 C
HETATM   52  C32 UNL     1      69.431  20.684 -61.799  1.00  0.00     0.014 C
ENDBRANCH  45  47
ENDBRANCH  44  45
ENDBRANCH   5  44
TORSDOF 20
ENDMDL