MODEL 2
REMARK VINA RESULT: -8.886226756      2.871     10.912
REMARK  21 active torsions:
REMARK  status: ('A' for Active; 'I' for Inactive)
REMARK    1  A    between atoms: C2_2  and  C4_4
REMARK    2  A    between atoms: C4_4  and  C5_5
REMARK    3  A    between atoms: C5_5  and  N1_6
REMARK    4  A    between atoms: C5_5  and  C13_23
REMARK    5  A    between atoms: N1_6  and  C6_8
REMARK    6  A    between atoms: C6_8  and  O1_9
REMARK    7  A    between atoms: C6_8  and  C7_11
REMARK    8  A    between atoms: C7_11  and  N2_12
REMARK    9  A    between atoms: C7_11  and  C8_16
REMARK       I    between atoms: C8_16  and  N3_18
REMARK       I    between atoms: C13_23  and  N4_25
REMARK   10  A    between atoms: N4_25  and  C14_27
REMARK   11  A    between atoms: C14_27  and  O4_28
REMARK   12  A    between atoms: C14_27  and  C15_30
REMARK   13  A    between atoms: C15_30  and  C16_31
REMARK   14  A    between atoms: C15_30  and  N5_39
REMARK   15  A    between atoms: C16_31  and  C17_32
REMARK   16  A    between atoms: N5_39  and  C24_41
REMARK   17  A    between atoms: C24_41  and  O5_42
REMARK   18  A    between atoms: C24_41  and  C25_44
REMARK   19  A    between atoms: C25_44  and  N6_45
REMARK   20  A    between atoms: C25_44  and  C31_54
REMARK       I    between atoms: N6_45  and  C26_47
REMARK   21  A    between atoms: C26_47  and  C27_49
ROOT
HETATM    1  C27 UNL     1      72.130  19.900 -58.095  1.00  0.00     0.122 C
HETATM    2  C28 UNL     1      73.505  20.378 -58.557  1.00  0.00     0.041 C
HETATM    3  C29 UNL     1      71.581  19.038 -59.199  1.00  0.00     0.041 C
HETATM    4  C30 UNL     1      72.253  19.118 -56.883  1.00  0.00     0.078 C
HETATM    5  N7  UNL     1      72.345  18.510 -55.903  1.00  0.00    -0.196 NA
ENDROOT
BRANCH   1   6
HETATM    6  C26 UNL     1      71.214  21.042 -57.832  1.00  0.00     0.240 C
HETATM    7  N6  UNL     1      70.980  21.994 -58.860  1.00  0.00    -0.347 N
ATOM      8  H6  UNL     1      71.443  21.881 -59.762  1.00  0.00     0.163 HD
HETATM    9  O6  UNL     1      70.676  21.124 -56.703  1.00  0.00    -0.272 OA
BRANCH   7  10
HETATM   10  C25 UNL     1      70.074  23.150 -58.642  1.00  0.00     0.162 C
BRANCH  10  11
HETATM   11  C24 UNL     1      69.013  23.148 -59.628  1.00  0.00     0.139 C
BRANCH  11  12
HETATM   12  N5  UNL     1      68.982  22.529 -60.900  1.00  0.00    -0.342 N
ATOM     13  H5  UNL     1      69.861  22.394 -61.400  1.00  0.00     0.167 HD
BRANCH  12  14
HETATM   14  C15 UNL     1      67.768  22.083 -61.515  1.00  0.00     0.037 C
BRANCH  14  15
HETATM   15  C14 UNL     1      67.619  22.501 -62.916  1.00  0.00     0.267 C
BRANCH  15  16
HETATM   16  N4  UNL     1      66.489  21.934 -63.609  1.00  0.00    -0.328 N
HETATM   17  C13 UNL     1      66.165  22.330 -64.945  1.00  0.00     0.242 C
HETATM   18  O3  UNL     1      66.950  23.201 -65.455  1.00  0.00    -0.271 OA
ATOM     19  H4  UNL     1      65.911  21.238 -63.139  1.00  0.00     0.165 HD
BRANCH  17  20
HETATM   20  C5  UNL     1      65.053  21.849 -65.772  1.00  0.00     0.176 C
BRANCH  20  21
HETATM   21  C4  UNL     1      65.482  21.772 -67.227  1.00  0.00     0.038 C
BRANCH  21  22
HETATM   22  C2  UNL     1      65.259  20.461 -67.882  1.00  0.00    -0.020 C
HETATM   23  C1  UNL     1      65.392  20.422 -69.370  1.00  0.00     0.009 C
HETATM   24  C3  UNL     1      66.243  19.470 -67.259  1.00  0.00     0.009 C
ENDBRANCH  21  22
ENDBRANCH  20  21
BRANCH  20  25
HETATM   25  N1  UNL     1      63.811  22.468 -65.664  1.00  0.00    -0.359 N
ATOM     26  H1  UNL     1      63.310  22.314 -64.789  1.00  0.00     0.162 HD
BRANCH  25  27
HETATM   27  C6  UNL     1      63.174  23.264 -66.595  1.00  0.00     0.152 C
BRANCH  27  28
HETATM   28  O1  UNL     1      62.871  24.578 -66.166  1.00  0.00    -0.348 OA
ATOM     29  H1  UNL     1      62.383  24.639 -65.353  1.00  0.00     0.219 HD
ENDBRANCH  27  28
BRANCH  27  30
HETATM   30  C7  UNL     1      62.050  22.758 -67.424  1.00  0.00     0.348 C
BRANCH  30  31
HETATM   31  N2  UNL     1      60.940  23.733 -67.181  1.00  0.00    -0.059 N
ATOM     32  H23 UNL     1      60.854  24.454 -67.899  1.00  0.00     0.275 HD
ATOM     33  H22 UNL     1      60.007  23.340 -67.302  1.00  0.00     0.275 HD
ATOM     34  H21 UNL     1      61.122  24.097 -66.246  1.00  0.00     0.275 HD
ENDBRANCH  30  31
BRANCH  30  35
HETATM   35  C8  UNL     1      62.253  22.835 -68.891  1.00  0.00     0.258 C
HETATM   36  O2  UNL     1      62.596  23.970 -69.363  1.00  0.00    -0.271 OA
HETATM   37  N3  UNL     1      62.099  21.760 -69.786  1.00  0.00    -0.350 N
HETATM   38  C9  UNL     1      61.653  20.404 -69.566  1.00  0.00     0.126 C
HETATM   39  C12 UNL     1      62.453  21.894 -71.213  1.00  0.00     0.126 C
HETATM   40  C10 UNL     1      61.029  19.977 -70.907  1.00  0.00     0.021 C
HETATM   41  C11 UNL     1      61.876  20.704 -71.914  1.00  0.00     0.021 C
ENDBRANCH  30  35
ENDBRANCH  27  30
ENDBRANCH  25  27
ENDBRANCH  20  25
ENDBRANCH  17  20
ENDBRANCH  15  16
BRANCH  15  42
HETATM   42  O4  UNL     1      68.764  22.224 -63.687  1.00  0.00    -0.371 OA
ATOM     43  H4  UNL     1      69.520  22.477 -63.169  1.00  0.00     0.212 HD
ENDBRANCH  15  42
ENDBRANCH  14  15
BRANCH  14  44
HETATM   44  C16 UNL     1      67.358  20.666 -61.257  1.00  0.00     0.065 C
BRANCH  44  45
HETATM   45  C17 UNL     1      67.989  19.928 -60.153  1.00  0.00     0.013 C
HETATM   46  C18 UNL     1      68.182  18.502 -60.655  1.00  0.00    -0.026 C
HETATM   47  C19 UNL     1      68.090  17.334 -60.082  1.00  0.00    -0.030 C
HETATM   48  C20 UNL     1      67.745  17.016 -58.672  1.00  0.00     0.027 C
HETATM   49  C21 UNL     1      68.487  17.934 -57.764  1.00  0.00     0.004 C
HETATM   50  C22 UNL     1      68.011  19.340 -57.729  1.00  0.00     0.001 C
HETATM   51  C23 UNL     1      67.147  19.744 -58.912  1.00  0.00     0.009 C
ENDBRANCH  44  45
ENDBRANCH  14  44
ENDBRANCH  12  14
ENDBRANCH  11  12
BRANCH  11  52
HETATM   52  O5  UNL     1      67.919  23.801 -59.342  1.00  0.00    -0.348 OA
ATOM     53  H5  UNL     1      67.154  23.242 -59.273  1.00  0.00     0.219 HD
ENDBRANCH  11  52
ENDBRANCH  10  11
BRANCH  10  54
HETATM   54  C31 UNL     1      70.870  24.381 -58.439  1.00  0.00     0.008 C
HETATM   55  C32 UNL     1      70.431  25.321 -57.368  1.00  0.00     0.012 C
HETATM   56  C33 UNL     1      72.344  24.071 -58.191  1.00  0.00     0.012 C
ENDBRANCH  10  54
ENDBRANCH   7  10
ENDBRANCH   1   6
TORSDOF 21
ENDMDL