MODEL 4
REMARK VINA RESULT: -9.054635794      1.875      2.527
REMARK  16 active torsions:
REMARK  status: ('A' for Active; 'I' for Inactive)
REMARK    1  A    between atoms: C2_2  and  C3_3
REMARK    2  A    between atoms: C3_3  and  C4_4
REMARK    3  A    between atoms: C4_4  and  N1_5
REMARK       I    between atoms: N1_5  and  C5_7
REMARK       I    between atoms: C5_7  and  N8_54
REMARK    4  A    between atoms: N2_8  and  C6_10
REMARK    5  A    between atoms: C6_10  and  C7_11
REMARK    6  A    between atoms: C7_11  and  C8_12
REMARK    7  A    between atoms: C8_12  and  C9_13
REMARK    8  A    between atoms: C11_18  and  C12_19
REMARK    9  A    between atoms: C16_26  and  N5_27
REMARK       I    between atoms: N5_27  and  C17_29
REMARK   10  A    between atoms: C17_29  and  C18_31
REMARK   11  A    between atoms: C18_31  and  N6_33
REMARK   12  A    between atoms: C20_37  and  C21_38
REMARK   13  A    between atoms: C21_38  and  C22_39
REMARK   14  A    between atoms: C28_45  and  C29_46
REMARK   15  A    between atoms: C29_46  and  N7_47
REMARK   16  A    between atoms: N7_47  and  C30_49
ROOT
HETATM    1  N1  UNL     1      70.172  19.762 -60.922  1.00  0.00    -0.226 N
ATOM      2  H1  UNL     1      69.305  19.244 -60.784  1.00  0.00     0.177 HD
HETATM    3  C5  UNL     1      70.171  21.025 -61.597  1.00  0.00     0.682 C
HETATM    4  N2  UNL     1      70.403  21.108 -62.855  1.00  0.00    -0.226 N
ATOM      5  H2  UNL     1      70.593  20.263 -63.394  1.00  0.00     0.177 HD
HETATM    6  N8  UNL     1      69.914  22.196 -60.861  1.00  0.00    -0.126 N
ATOM      7  H8  UNL     1      69.102  22.773 -61.084  1.00  0.00     0.197 HD
HETATM    8  C34 UNL     1      70.770  22.564 -59.831  1.00  0.00     0.196 C
HETATM    9  N9  UNL     1      71.476  22.884 -58.957  1.00  0.00    -0.171 NA
ENDROOT
BRANCH   1  10
HETATM   10  C4  UNL     1      71.427  19.241 -60.442  1.00  0.00     0.138 C
BRANCH  10  11
HETATM   11  C3  UNL     1      71.280  18.677 -59.025  1.00  0.00     0.020 C
BRANCH  11  12
HETATM   12  C2  UNL     1      72.290  19.401 -58.158  1.00  0.00    -0.003 C
HETATM   13  C1  UNL     1      73.440  19.889 -59.002  1.00  0.00     0.005 C
ENDBRANCH  11  12
ENDBRANCH  10  11
ENDBRANCH   1  10
BRANCH   4  14
HETATM   14  C6  UNL     1      70.396  22.422 -63.524  1.00  0.00     0.138 C
BRANCH  14  15
HETATM   15  C7  UNL     1      69.644  22.357 -64.796  1.00  0.00     0.024 C
BRANCH  15  16
HETATM   16  C8  UNL     1      68.940  23.611 -65.159  1.00  0.00     0.055 C
BRANCH  16  17
HETATM   17  C9  UNL     1      68.099  23.619 -66.380  1.00  0.00     0.224 C
HETATM   18  N3  UNL     1      68.366  24.569 -67.399  1.00  0.00    -0.329 N
HETATM   19  C10 UNL     1      69.510  24.796 -68.150  1.00  0.00     0.266 C
ATOM     20  H3  UNL     1      67.586  25.188 -67.617  1.00  0.00     0.165 HD
HETATM   21  O1  UNL     1      69.624  26.005 -68.612  1.00  0.00    -0.266 OA
HETATM   22  C11 UNL     1      70.630  23.926 -68.525  1.00  0.00     0.083 C
HETATM   23  N4  UNL     1      70.527  22.539 -68.404  1.00  0.00    -0.324 N
HETATM   24  C15 UNL     1      69.582  21.549 -68.626  1.00  0.00     0.245 C
ATOM     25  H4  UNL     1      71.396  22.139 -68.051  1.00  0.00     0.169 HD
HETATM   26  O2  UNL     1      69.684  20.475 -67.909  1.00  0.00    -0.271 OA
HETATM   27  C16 UNL     1      68.443  21.490 -69.567  1.00  0.00     0.183 C
HETATM   28  C20 UNL     1      67.070  21.639 -69.062  1.00  0.00     0.052 C
HETATM   29  C28 UNL     1      66.911  22.139 -67.678  1.00  0.00     0.148 C
HETATM   30  O4  UNL     1      67.997  22.311 -66.883  1.00  0.00    -0.359 OA
BRANCH  22  31
HETATM   31  C12 UNL     1      71.388  24.417 -69.753  1.00  0.00     0.033 C
HETATM   32  C13 UNL     1      70.769  23.951 -71.056  1.00  0.00     0.016 C
HETATM   33  C14 UNL     1      72.817  23.873 -69.799  1.00  0.00     0.016 C
ENDBRANCH  22  31
BRANCH  27  34
HETATM   34  N5  UNL     1      68.554  20.119 -70.123  1.00  0.00    -0.346 N
HETATM   35  C17 UNL     1      68.410  19.771 -71.467  1.00  0.00     0.248 C
HETATM   36  O3  UNL     1      68.166  20.617 -72.395  1.00  0.00    -0.271 OA
ATOM     37  H5  UNL     1      68.753  19.365 -69.466  1.00  0.00     0.163 HD
BRANCH  35  38
HETATM   38  C18 UNL     1      68.540  18.357 -71.889  1.00  0.00     0.270 C
HETATM   39  C19 UNL     1      69.644  18.352 -72.948  1.00  0.00     0.050 C
BRANCH  38  40
HETATM   40  N6  UNL     1      68.943  17.507 -70.781  1.00  0.00    -0.067 N
ATOM     41  H63 UNL     1      68.256  17.525 -70.028  1.00  0.00     0.275 HD
ATOM     42  H62 UNL     1      68.880  16.518 -71.028  1.00  0.00     0.275 HD
ATOM     43  H61 UNL     1      69.874  17.749 -70.444  1.00  0.00     0.275 HD
ENDBRANCH  38  40
ENDBRANCH  35  38
ENDBRANCH  27  34
BRANCH  28  44
HETATM   44  C21 UNL     1      66.280  22.597 -69.968  1.00  0.00     0.048 C
BRANCH  44  45
HETATM   45  C22 UNL     1      65.021  22.066 -70.507  1.00  0.00    -0.058 A
HETATM   46  C23 UNL     1      63.916  22.839 -70.755  1.00  0.00     0.007 A
HETATM   47  C24 UNL     1      62.777  22.279 -71.274  1.00  0.00     0.001 A
HETATM   48  C25 UNL     1      62.671  20.942 -71.571  1.00  0.00     0.000 A
HETATM   49  C26 UNL     1      63.796  20.165 -71.316  1.00  0.00     0.001 A
HETATM   50  C27 UNL     1      64.939  20.720 -70.797  1.00  0.00     0.007 A
ENDBRANCH  44  45
ENDBRANCH  28  44
BRANCH  29  51
HETATM   51  C29 UNL     1      65.919  21.318 -66.866  1.00  0.00     0.146 C
BRANCH  51  52
HETATM   52  N7  UNL     1      64.934  22.162 -66.285  1.00  0.00    -0.415 N
ATOM     53  H7  UNL     1      65.076  22.616 -65.383  1.00  0.00     0.153 HD
BRANCH  52  54
HETATM   54  C30 UNL     1      63.740  22.334 -67.034  1.00  0.00     0.076 C
HETATM   55  C31 UNL     1      63.018  21.136 -67.530  1.00  0.00     0.024 C
HETATM   56  C32 UNL     1      62.172  21.159 -66.280  1.00  0.00     0.004 C
HETATM   57  C33 UNL     1      62.560  22.614 -66.123  1.00  0.00     0.024 C
ENDBRANCH  52  54
ENDBRANCH  51  52
ENDBRANCH  29  51
ENDBRANCH  16  17
ENDBRANCH  15  16
ENDBRANCH  14  15
ENDBRANCH   4  14
TORSDOF 16
ENDMDL