MODEL 4
REMARK VINA RESULT: -8.703748102      2.349      3.601
REMARK  19 active torsions:
REMARK  status: ('A' for Active; 'I' for Inactive)
REMARK    1  A    between atoms: C2_2  and  O1_3
REMARK    2  A    between atoms: O1_3  and  C3_4
REMARK       I    between atoms: C3_4  and  N1_6
REMARK    3  A    between atoms: N1_6  and  C4_8
REMARK    4  A    between atoms: C9_14  and  N2_15
REMARK       I    between atoms: N2_15  and  C10_17
REMARK    5  A    between atoms: C10_17  and  C11_19
REMARK    6  A    between atoms: C11_19  and  N3_20
REMARK    7  A    between atoms: C11_19  and  C12_24
REMARK    8  A    between atoms: C12_24  and  C13_25
REMARK       I    between atoms: C13_25  and  N4_27
REMARK    9  A    between atoms: N4_27  and  C14_29
REMARK   10  A    between atoms: C14_29  and  C15_30
REMARK   11  A    between atoms: C21_36  and  C22_37
REMARK   12  A    between atoms: C22_37  and  O6_38
REMARK   13  A    between atoms: C22_37  and  N5_40
REMARK   14  A    between atoms: N5_40  and  C23_42
REMARK   15  A    between atoms: C23_42  and  C24_43
REMARK   16  A    between atoms: C23_42  and  C30_53
REMARK       I    between atoms: C24_43  and  N6_45
REMARK   17  A    between atoms: N6_45  and  C25_47
REMARK   18  A    between atoms: C25_47  and  C26_48
REMARK   19  A    between atoms: C30_53  and  C32_55
ROOT
HETATM    1  C4  UNL     1      66.974  22.080 -68.644  1.00  0.00     0.118 C
HETATM    2  C5  UNL     1      67.828  21.025 -68.001  1.00  0.00     0.035 C
HETATM    3  C6  UNL     1      68.781  21.743 -67.041  1.00  0.00     0.016 C
HETATM    4  C7  UNL     1      69.148  23.060 -67.584  1.00  0.00     0.173 C
HETATM    5  O3  UNL     1      68.121  23.945 -67.835  1.00  0.00    -0.381 OA
HETATM    6  C8  UNL     1      66.872  23.341 -67.906  1.00  0.00     0.167 C
HETATM    7  C9  UNL     1      66.263  23.279 -66.484  1.00  0.00     0.120 C
HETATM    8  C18 UNL     1      67.324  23.021 -65.601  1.00  0.00     0.024 C
HETATM    9  C19 UNL     1      68.078  21.719 -65.718  1.00  0.00    -0.001 C
HETATM   10  C20 UNL     1      68.816  22.346 -64.559  1.00  0.00     0.015 C
HETATM   11  C21 UNL     1      67.441  22.844 -64.136  1.00  0.00     0.041 C
ENDROOT
BRANCH  11  12
HETATM   12  C22 UNL     1      66.716  21.870 -63.367  1.00  0.00     0.222 C
BRANCH  12  13
HETATM   13  O6  UNL     1      65.283  22.198 -63.366  1.00  0.00    -0.376 OA
ATOM     14  H6  UNL     1      64.793  21.506 -62.937  1.00  0.00     0.212 HD
ENDBRANCH  12  13
BRANCH  12  15
HETATM   15  N5  UNL     1      66.932  21.628 -62.043  1.00  0.00    -0.359 N
ATOM     16  H5  UNL     1      66.105  21.802 -61.473  1.00  0.00     0.162 HD
BRANCH  15  17
HETATM   17  C23 UNL     1      68.032  21.191 -61.279  1.00  0.00     0.100 C
BRANCH  17  18
HETATM   18  C24 UNL     1      67.900  20.006 -60.486  1.00  0.00     0.268 C
HETATM   19  O7  UNL     1      66.799  19.835 -59.850  1.00  0.00    -0.266 OA
HETATM   20  N6  UNL     1      68.819  18.960 -60.286  1.00  0.00    -0.350 N
ATOM     21  H6  UNL     1      69.731  18.989 -60.742  1.00  0.00     0.163 HD
BRANCH  20  22
HETATM   22  C25 UNL     1      68.461  17.809 -59.409  1.00  0.00     0.187 C
BRANCH  22  23
HETATM   23  C26 UNL     1      69.143  17.982 -58.107  1.00  0.00     0.070 A
HETATM   24  C27 UNL     1      70.481  17.736 -57.868  1.00  0.00     0.036 A
HETATM   25  C28 UNL     1      70.732  18.015 -56.529  1.00  0.00     0.027 A
HETATM   26  C29 UNL     1      69.537  18.420 -56.015  1.00  0.00     0.142 A
HETATM   27  O8  UNL     1      68.642  18.388 -56.954  1.00  0.00    -0.325 OA
ENDBRANCH  22  23
ENDBRANCH  20  22
ENDBRANCH  17  18
BRANCH  17  28
HETATM   28  C30 UNL     1      68.947  22.307 -60.894  1.00  0.00    -0.052 C
HETATM   29  C31 UNL     1      68.570  23.031 -59.626  1.00  0.00     0.046 C
BRANCH  28  30
HETATM   30  C32 UNL     1      70.406  22.208 -60.981  1.00  0.00     0.031 C
HETATM   31  C33 UNL     1      71.134  21.817 -59.720  1.00  0.00     0.010 C
ENDBRANCH  28  30
ENDBRANCH  17  28
ENDBRANCH  15  17
ENDBRANCH  12  15
ENDBRANCH  11  12
BRANCH   7  32
HETATM   32  N2  UNL     1      65.009  22.615 -66.511  1.00  0.00    -0.352 N
HETATM   33  C10 UNL     1      63.756  23.262 -66.337  1.00  0.00     0.249 C
HETATM   34  O4  UNL     1      63.831  24.516 -66.161  1.00  0.00    -0.271 OA
ATOM     35  H2  UNL     1      65.008  21.607 -66.665  1.00  0.00     0.163 HD
BRANCH  33  36
HETATM   36  C11 UNL     1      62.434  22.695 -66.336  1.00  0.00     0.283 C
BRANCH  36  37
HETATM   37  N3  UNL     1      62.381  21.289 -66.671  1.00  0.00    -0.066 N
ATOM     38  H33 UNL     1      63.318  20.932 -66.854  1.00  0.00     0.275 HD
ATOM     39  H32 UNL     1      62.141  20.737 -65.847  1.00  0.00     0.275 HD
ATOM     40  H31 UNL     1      61.757  21.059 -67.445  1.00  0.00     0.275 HD
ENDBRANCH  36  37
BRANCH  36  41
HETATM   41  C12 UNL     1      61.493  23.375 -67.348  1.00  0.00     0.145 C
BRANCH  41  42
HETATM   42  C13 UNL     1      61.756  22.793 -68.709  1.00  0.00     0.220 C
HETATM   43  O5  UNL     1      62.946  22.798 -69.150  1.00  0.00    -0.274 OA
HETATM   44  N4  UNL     1      60.739  22.249 -69.510  1.00  0.00    -0.361 N
ATOM     45  H4  UNL     1      59.775  22.234 -69.176  1.00  0.00     0.162 HD
BRANCH  44  46
HETATM   46  C14 UNL     1      61.063  21.713 -70.811  1.00  0.00     0.126 C
BRANCH  46  47
HETATM   47  C15 UNL     1      60.244  22.378 -71.901  1.00  0.00    -0.005 C
HETATM   48  C16 UNL     1      61.088  23.456 -72.588  1.00  0.00     0.011 C
HETATM   49  C17 UNL     1      59.981  21.310 -72.957  1.00  0.00     0.011 C
ENDBRANCH  46  47
ENDBRANCH  44  46
ENDBRANCH  41  42
ENDBRANCH  36  41
ENDBRANCH  33  36
ENDBRANCH   7  32
BRANCH   1  50
HETATM   50  N1  UNL     1      65.811  21.470 -69.158  1.00  0.00    -0.330 N
HETATM   51  C3  UNL     1      65.724  21.059 -70.517  1.00  0.00     0.360 C
HETATM   52  O2  UNL     1      66.704  21.249 -71.258  1.00  0.00    -0.239 OA
ATOM     53  H1  UNL     1      65.013  21.319 -68.540  1.00  0.00     0.165 HD
BRANCH  51  54
HETATM   54  O1  UNL     1      64.596  20.458 -71.040  1.00  0.00    -0.304 OA
BRANCH  54  55
HETATM   55  C2  UNL     1      64.641  19.562 -72.167  1.00  0.00     0.176 C
HETATM   56  C1  UNL     1      63.280  19.463 -72.771  1.00  0.00     0.034 C
ENDBRANCH  54  55
ENDBRANCH  51  54
ENDBRANCH   1  50
TORSDOF 19
ENDMDL