MODEL 1
REMARK VINA RESULT: -8.638218937      0.000      0.000
REMARK  22 active torsions:
REMARK  status: ('A' for Active; 'I' for Inactive)
REMARK    1  A    between atoms: C2_2  and  C4_4
REMARK    2  A    between atoms: C4_4  and  C5_5
REMARK    3  A    between atoms: C5_5  and  O1_6
REMARK    4  A    between atoms: C5_5  and  C6_8
REMARK    5  A    between atoms: C6_8  and  O2_9
REMARK    6  A    between atoms: C6_8  and  N1_11
REMARK    7  A    between atoms: N1_11  and  C7_13
REMARK    8  A    between atoms: C7_13  and  C8_14
REMARK    9  A    between atoms: C7_13  and  C11_17
REMARK   10  A    between atoms: C12_18  and  O3_19
REMARK   11  A    between atoms: N2_22  and  C14_23
REMARK   12  A    between atoms: C14_23  and  O4_24
REMARK   13  A    between atoms: C15_26  and  N3_27
REMARK   14  A    between atoms: C15_26  and  C31_52
REMARK       I    between atoms: N3_27  and  C16_29
REMARK   15  A    between atoms: C16_29  and  C17_31
REMARK   16  A    between atoms: C17_31  and  N4_32
REMARK   17  A    between atoms: C17_31  and  C28_49
REMARK       I    between atoms: N4_32  and  C18_34
REMARK   18  A    between atoms: C18_34  and  C19_36
REMARK   19  A    between atoms: C19_36  and  N5_37
REMARK   20  A    between atoms: C19_36  and  C25_46
REMARK       I    between atoms: N5_37  and  C20_39
REMARK   21  A    between atoms: C20_39  and  O8_41
REMARK   22  A    between atoms: O8_41  and  C21_42
ROOT
HETATM    1  C14 UNL     1      68.757  20.731 -59.515  1.00  0.00     0.162 C
HETATM    2  C15 UNL     1      68.463  19.866 -60.610  1.00  0.00     0.066 C
ENDROOT
BRANCH   2   3
HETATM    3  N3  UNL     1      68.668  20.521 -61.921  1.00  0.00    -0.325 N
HETATM    4  C16 UNL     1      67.580  20.986 -62.687  1.00  0.00     0.245 C
HETATM    5  O5  UNL     1      66.432  20.840 -62.253  1.00  0.00    -0.271 OA
ATOM      6  H3  UNL     1      69.616  20.639 -62.278  1.00  0.00     0.169 HD
BRANCH   4   7
HETATM    7  C17 UNL     1      67.753  21.643 -64.001  1.00  0.00     0.180 C
BRANCH   7   8
HETATM    8  N4  UNL     1      66.537  22.065 -64.576  1.00  0.00    -0.346 N
HETATM    9  C18 UNL     1      65.839  21.582 -65.694  1.00  0.00     0.241 C
HETATM   10  O6  UNL     1      66.266  20.616 -66.365  1.00  0.00    -0.271 OA
ATOM     11  H4  UNL     1      66.091  22.849 -64.101  1.00  0.00     0.163 HD
BRANCH   9  12
HETATM   12  C19 UNL     1      64.561  22.195 -66.132  1.00  0.00     0.182 C
BRANCH  12  13
HETATM   13  N5  UNL     1      63.975  21.425 -67.228  1.00  0.00    -0.323 N
HETATM   14  C20 UNL     1      62.604  21.081 -67.231  1.00  0.00     0.362 C
HETATM   15  O7  UNL     1      61.882  21.445 -66.284  1.00  0.00    -0.238 OA
ATOM     16  H5  UNL     1      64.567  21.129 -68.004  1.00  0.00     0.165 HD
BRANCH  14  17
HETATM   17  O8  UNL     1      62.075  20.354 -68.264  1.00  0.00    -0.294 OA
BRANCH  17  18
HETATM   18  C21 UNL     1      61.888  20.856 -69.572  1.00  0.00     0.061 C
HETATM   19  C22 UNL     1      61.615  22.346 -69.566  1.00  0.00     0.046 C
HETATM   20  C23 UNL     1      63.132  20.564 -70.367  1.00  0.00     0.046 C
HETATM   21  C24 UNL     1      60.713  20.149 -70.204  1.00  0.00     0.046 C
ENDBRANCH  17  18
ENDBRANCH  14  17
ENDBRANCH  12  13
BRANCH  12  22
HETATM   22  C25 UNL     1      64.769  23.585 -66.743  1.00  0.00     0.009 C
HETATM   23  C26 UNL     1      63.617  24.505 -66.491  1.00  0.00     0.012 C
HETATM   24  C27 UNL     1      65.228  23.513 -68.158  1.00  0.00     0.012 C
ENDBRANCH  12  22
ENDBRANCH   9  12
ENDBRANCH   7   8
BRANCH   7  25
HETATM   25  C28 UNL     1      68.898  22.609 -64.031  1.00  0.00     0.009 C
HETATM   26  C29 UNL     1      70.099  21.892 -64.615  1.00  0.00     0.012 C
HETATM   27  C30 UNL     1      68.681  23.882 -64.754  1.00  0.00     0.012 C
ENDBRANCH   7  25
ENDBRANCH   4   7
ENDBRANCH   2   3
BRANCH   2  28
HETATM   28  C31 UNL     1      68.912  18.457 -60.674  1.00  0.00     0.032 C
HETATM   29  C32 UNL     1      68.043  17.515 -59.938  1.00  0.00     0.016 C
HETATM   30  C33 UNL     1      70.333  18.245 -60.191  1.00  0.00     0.016 C
ENDBRANCH   2  28
BRANCH   1  31
HETATM   31  N2  UNL     1      68.738  20.664 -58.123  1.00  0.00    -0.345 N
HETATM   32  C11 UNL     1      69.318  21.517 -57.078  1.00  0.00     0.162 C
HETATM   33  C12 UNL     1      68.577  20.842 -56.002  1.00  0.00     0.164 C
HETATM   34  C13 UNL     1      68.194  19.863 -57.071  1.00  0.00     0.160 C
BRANCH  32  35
HETATM   35  C7  UNL     1      70.800  21.582 -56.984  1.00  0.00     0.013 C
BRANCH  35  36
HETATM   36  N1  UNL     1      71.179  22.330 -55.863  1.00  0.00    -0.366 N
ATOM     37  H1  UNL     1      71.212  21.845 -54.966  1.00  0.00     0.161 HD
BRANCH  36  38
HETATM   38  C6  UNL     1      71.516  23.678 -55.873  1.00  0.00     0.246 C
BRANCH  38  39
HETATM   39  C5  UNL     1      70.541  24.601 -55.105  1.00  0.00     0.167 C
BRANCH  39  40
HETATM   40  C4  UNL     1      69.903  25.502 -56.105  1.00  0.00     0.040 C
BRANCH  40  41
HETATM   41  C2  UNL     1      70.482  25.471 -57.480  1.00  0.00    -0.020 C
HETATM   42  C1  UNL     1      69.542  24.883 -58.522  1.00  0.00     0.009 C
HETATM   43  C3  UNL     1      71.023  26.794 -57.958  1.00  0.00     0.009 C
ENDBRANCH  40  41
ENDBRANCH  39  40
BRANCH  39  44
HETATM   44  O1  UNL     1      69.581  23.741 -54.543  1.00  0.00    -0.391 OA
ATOM     45  H1  UNL     1      69.894  23.396 -53.716  1.00  0.00     0.210 HD
ENDBRANCH  39  44
ENDBRANCH  38  39
BRANCH  38  46
HETATM   46  O2  UNL     1      72.766  23.819 -55.177  1.00  0.00    -0.374 OA
ATOM     47  H2  UNL     1      73.065  22.928 -55.045  1.00  0.00     0.212 HD
ENDBRANCH  38  46
ENDBRANCH  36  38
ENDBRANCH  35  36
BRANCH  35  48
HETATM   48  C8  UNL     1      71.565  20.365 -57.346  1.00  0.00     0.025 C
HETATM   49  C9  UNL     1      72.748  20.594 -58.255  1.00  0.00     0.016 C
HETATM   50  C10 UNL     1      72.138  19.648 -56.122  1.00  0.00     0.016 C
ENDBRANCH  35  48
ENDBRANCH  32  35
BRANCH  33  51
HETATM   51  O3  UNL     1      67.455  21.576 -55.524  1.00  0.00    -0.391 OA
ATOM     52  H3  UNL     1      66.643  21.084 -55.526  1.00  0.00     0.210 HD
ENDBRANCH  33  51
ENDBRANCH   1  31
BRANCH   1  53
HETATM   53  O4  UNL     1      69.160  21.944 -59.923  1.00  0.00    -0.345 OA
ATOM     54  H4  UNL     1      69.778  21.866 -60.640  1.00  0.00     0.219 HD
ENDBRANCH   1  53
TORSDOF 22
ENDMDL