MODEL 1
REMARK VINA RESULT: -8.791078195      0.000      0.000
REMARK  20 active torsions:
REMARK  status: ('A' for Active; 'I' for Inactive)
REMARK    1  A    between atoms: C2_2  and  C3_3
REMARK    2  A    between atoms: C3_3  and  N1_4
REMARK       I    between atoms: N1_4  and  C4_6
REMARK    3  A    between atoms: C4_6  and  O2_8
REMARK    4  A    between atoms: O2_8  and  C5_9
REMARK    5  A    between atoms: C6_10  and  O3_11
REMARK    6  A    between atoms: C10_17  and  N2_18
REMARK       I    between atoms: N2_18  and  C11_20
REMARK    7  A    between atoms: C11_20  and  C12_22
REMARK    8  A    between atoms: C12_22  and  N3_24
REMARK       I    between atoms: N3_24  and  C14_26
REMARK    9  A    between atoms: C14_26  and  C15_28
REMARK   10  A    between atoms: C15_28  and  C16_29
REMARK   11  A    between atoms: C16_29  and  C17_30
REMARK   12  A    between atoms: C16_29  and  N4_34
REMARK   13  A    between atoms: C17_30  and  C18_31
REMARK   14  A    between atoms: N4_34  and  C21_36
REMARK   15  A    between atoms: C21_36  and  O6_37
REMARK   16  A    between atoms: C21_36  and  C22_39
REMARK   17  A    between atoms: C22_39  and  C23_40
REMARK   18  A    between atoms: C22_39  and  N5_43
REMARK   19  A    between atoms: C28_46  and  C29_47
REMARK   20  A    between atoms: C29_47  and  N6_48
ROOT
HETATM    1  N3  UNL     1      68.222  22.809 -63.864  1.00  0.00    -0.345 N
ATOM      2  H3  UNL     1      68.630  23.628 -63.413  1.00  0.00     0.163 HD
HETATM    3  C14 UNL     1      67.569  21.791 -63.077  1.00  0.00     0.240 C
HETATM    4  O5  UNL     1      67.121  20.830 -63.726  1.00  0.00    -0.269 OA
ENDROOT
BRANCH   3   5
HETATM    5  C15 UNL     1      67.442  21.872 -61.639  1.00  0.00     0.072 C
BRANCH   5   6
HETATM    6  C16 UNL     1      68.227  21.022 -60.728  1.00  0.00     0.112 C
BRANCH   6   7
HETATM    7  C17 UNL     1      67.507  19.891 -60.119  1.00  0.00     0.033 C
BRANCH   7   8
HETATM    8  C18 UNL     1      68.143  18.819 -59.367  1.00  0.00    -0.021 C
HETATM    9  C19 UNL     1      67.954  17.414 -59.895  1.00  0.00     0.009 C
HETATM   10  C20 UNL     1      67.588  18.865 -57.920  1.00  0.00     0.009 C
ENDBRANCH   7   8
ENDBRANCH   6   7
BRANCH   6  11
HETATM   11  N4  UNL     1      69.429  20.578 -61.458  1.00  0.00    -0.365 N
ATOM     12  H4  UNL     1      69.371  19.817 -62.134  1.00  0.00     0.162 HD
BRANCH  11  13
HETATM   13  C21 UNL     1      70.646  21.212 -61.212  1.00  0.00     0.146 C
BRANCH  13  14
HETATM   14  O6  UNL     1      71.112  21.880 -62.226  1.00  0.00    -0.348 OA
ATOM     15  H6  UNL     1      71.516  22.707 -61.993  1.00  0.00     0.219 HD
ENDBRANCH  13  14
BRANCH  13  16
HETATM   16  C22 UNL     1      71.458  21.230 -59.992  1.00  0.00     0.299 C
BRANCH  16  17
HETATM   17  C23 UNL     1      71.918  19.925 -59.460  1.00  0.00     0.019 C
HETATM   18  C24 UNL     1      71.744  18.772 -60.422  1.00  0.00     0.012 C
HETATM   19  C25 UNL     1      73.319  19.955 -58.956  1.00  0.00     0.012 C
ENDBRANCH  16  17
BRANCH  16  20
HETATM   20  N5  UNL     1      70.855  22.101 -59.010  1.00  0.00     0.101 N
HETATM   21  C26 UNL     1      71.664  23.249 -58.759  1.00  0.00     0.274 C
HETATM   22  C27 UNL     1      71.972  23.417 -57.270  1.00  0.00     0.036 C
HETATM   23  C28 UNL     1      70.651  23.668 -56.592  1.00  0.00     0.014 C
HETATM   24  C30 UNL     1      69.748  22.528 -56.923  1.00  0.00     0.036 C
HETATM   25  C31 UNL     1      70.389  21.477 -57.824  1.00  0.00     0.274 C
BRANCH  23  26
HETATM   26  C29 UNL     1      69.986  24.955 -57.054  1.00  0.00     0.234 C
BRANCH  26  27
HETATM   27  N6  UNL     1      70.605  26.133 -56.503  1.00  0.00    -0.079 N
ATOM     28  H63 UNL     1      70.102  26.458 -55.678  1.00  0.00     0.274 HD
ATOM     29  H62 UNL     1      71.501  25.908 -56.073  1.00  0.00     0.274 HD
ATOM     30  H61 UNL     1      70.707  26.883 -57.187  1.00  0.00     0.274 HD
ENDBRANCH  26  27
ENDBRANCH  23  26
ENDBRANCH  16  20
ENDBRANCH  13  16
ENDBRANCH  11  13
ENDBRANCH   6  11
ENDBRANCH   5   6
ENDBRANCH   3   5
BRANCH   1  31
HETATM   31  C12 UNL     1      68.289  22.656 -65.298  1.00  0.00     0.172 C
HETATM   32  C13 UNL     1      69.243  23.760 -65.824  1.00  0.00     0.042 C
BRANCH  31  33
HETATM   33  C11 UNL     1      66.995  22.925 -65.944  1.00  0.00     0.240 C
HETATM   34  N2  UNL     1      65.964  21.959 -66.125  1.00  0.00    -0.351 N
ATOM     35  H2  UNL     1      66.099  21.007 -65.784  1.00  0.00     0.163 HD
HETATM   36  O4  UNL     1      66.793  24.106 -66.368  1.00  0.00    -0.271 OA
BRANCH  34  37
HETATM   37  C10 UNL     1      64.725  22.312 -66.787  1.00  0.00     0.131 C
HETATM   38  C5  UNL     1      63.920  23.110 -65.708  1.00  0.00     0.186 C
HETATM   39  C6  UNL     1      63.319  22.074 -64.809  1.00  0.00     0.150 C
HETATM   40  C7  UNL     1      62.132  21.452 -65.523  1.00  0.00     0.035 C
HETATM   41  C8  UNL     1      62.488  21.202 -66.952  1.00  0.00     0.021 C
HETATM   42  C9  UNL     1      63.988  21.095 -67.195  1.00  0.00     0.084 C
HETATM   43  S1  UNL     1      64.219  20.757 -68.967  1.00  0.00    -0.090 SA
BRANCH  38  44
HETATM   44  O2  UNL     1      62.982  23.916 -66.349  1.00  0.00    -0.294 OA
BRANCH  44  45
HETATM   45  C4  UNL     1      63.102  24.412 -67.657  1.00  0.00     0.361 C
HETATM   46  N1  UNL     1      62.143  24.095 -68.642  1.00  0.00    -0.337 N
ATOM     47  H1  UNL     1      61.346  23.510 -68.393  1.00  0.00     0.164 HD
HETATM   48  O1  UNL     1      64.110  25.134 -67.851  1.00  0.00    -0.239 OA
BRANCH  46  49
HETATM   49  C3  UNL     1      62.265  24.578 -69.983  1.00  0.00     0.124 C
BRANCH  49  50
HETATM   50  C2  UNL     1      61.865  23.503 -70.959  1.00  0.00     0.015 C
HETATM   51  C1  UNL     1      61.006  22.433 -70.301  1.00  0.00     0.006 C
ENDBRANCH  49  50
ENDBRANCH  46  49
ENDBRANCH  44  45
ENDBRANCH  38  44
BRANCH  39  52
HETATM   52  O3  UNL     1      62.911  22.659 -63.600  1.00  0.00    -0.393 OA
ATOM     53  H3  UNL     1      62.230  22.135 -63.195  1.00  0.00     0.210 HD
ENDBRANCH  39  52
ENDBRANCH  34  37
ENDBRANCH  31  33
ENDBRANCH   1  31
TORSDOF 20
ENDMDL