MODEL 5
REMARK VINA RESULT: -9.408677009      1.464      3.393
REMARK  18 active torsions:
REMARK  status: ('A' for Active; 'I' for Inactive)
REMARK    1  A    between atoms: O1_2  and  N1_3
REMARK    2  A    between atoms: C2_5  and  N2_6
REMARK    3  A    between atoms: C2_5  and  C8_18
REMARK    4  A    between atoms: N2_6  and  C3_8
REMARK    5  A    between atoms: C5_13  and  C6_14
REMARK    6  A    between atoms: C8_18  and  N4_19
REMARK    7  A    between atoms: C8_18  and  C28_51
REMARK       I    between atoms: N4_19  and  C9_21
REMARK    8  A    between atoms: C9_21  and  C10_23
REMARK    9  A    between atoms: C10_23  and  N5_24
REMARK   10  A    between atoms: C10_23  and  C25_48
REMARK       I    between atoms: N5_24  and  C11_26
REMARK   11  A    between atoms: C11_26  and  C12_28
REMARK   12  A    between atoms: C12_28  and  C13_29
REMARK   13  A    between atoms: C12_28  and  N6_33
REMARK   14  A    between atoms: C13_29  and  C14_30
REMARK       I    between atoms: N6_33  and  C17_35
REMARK   15  A    between atoms: C17_35  and  C18_37
REMARK   16  A    between atoms: C18_37  and  N7_39
REMARK       I    between atoms: N7_39  and  C20_41
REMARK   17  A    between atoms: C20_41  and  O8_43
REMARK   18  A    between atoms: O8_43  and  C21_44
ROOT
HETATM    1  C10 UNL     1      69.189  21.090 -62.402  1.00  0.00     0.180 C
ENDROOT
BRANCH   1   2
HETATM    2  C9  UNL     1      69.897  21.925 -61.330  1.00  0.00     0.241 C
HETATM    3  N4  UNL     1      70.812  21.290 -60.531  1.00  0.00    -0.347 N
ATOM      4  H4  UNL     1      70.887  20.318 -60.830  1.00  0.00     0.163 HD
HETATM    5  O4  UNL     1      69.493  23.111 -61.369  1.00  0.00    -0.271 OA
BRANCH   3   6
HETATM    6  C8  UNL     1      71.685  21.496 -59.446  1.00  0.00     0.157 C
BRANCH   6   7
HETATM    7  C2  UNL     1      70.938  22.127 -58.295  1.00  0.00     0.121 C
HETATM    8  N1  UNL     1      71.586  22.967 -57.583  1.00  0.00    -0.253 N
ATOM      9  H1  UNL     1      72.547  23.151 -57.872  1.00  0.00     0.195 HD
BRANCH   8  10
HETATM   10  O1  UNL     1      71.152  23.647 -56.487  1.00  0.00    -0.284 OA
HETATM   11  C1  UNL     1      70.672  24.976 -56.548  1.00  0.00     0.237 C
ENDBRANCH   8  10
BRANCH   7  12
HETATM   12  N2  UNL     1      69.605  21.824 -57.956  1.00  0.00    -0.370 N
ATOM     13  H2  UNL     1      68.926  22.549 -58.186  1.00  0.00     0.161 HD
BRANCH  12  14
HETATM   14  C3  UNL     1      69.065  20.676 -57.350  1.00  0.00     0.111 C
HETATM   15  C4  UNL     1      69.923  20.073 -56.251  1.00  0.00     0.258 C
HETATM   16  N3  UNL     1      69.172  18.829 -56.050  1.00  0.00    -0.059 N
HETATM   17  C5  UNL     1      69.201  18.312 -57.408  1.00  0.00     0.287 C
ATOM     18  H32 UNL     1      69.525  18.205 -55.325  1.00  0.00     0.278 HD
ATOM     19  H31 UNL     1      68.249  18.927 -55.627  1.00  0.00     0.278 HD
HETATM   20  C7  UNL     1      68.695  19.518 -58.196  1.00  0.00     0.071 C
BRANCH  17  21
HETATM   21  C6  UNL     1      68.285  17.155 -57.569  1.00  0.00     0.204 C
HETATM   22  O2  UNL     1      67.227  17.310 -58.218  1.00  0.00    -0.646 OA
HETATM   23  O3  UNL     1      68.583  15.942 -57.022  1.00  0.00    -0.646 OA
ENDBRANCH  17  21
ENDBRANCH  12  14
ENDBRANCH   7  12
ENDBRANCH   6   7
BRANCH   6  24
HETATM   24  C28 UNL     1      72.328  20.206 -58.885  1.00  0.00     0.008 C
HETATM   25  C29 UNL     1      73.807  20.323 -58.723  1.00  0.00     0.012 C
HETATM   26  C30 UNL     1      72.087  19.054 -59.838  1.00  0.00     0.012 C
ENDBRANCH   6  24
ENDBRANCH   3   6
ENDBRANCH   1   2
BRANCH   1  27
HETATM   27  N5  UNL     1      68.506  21.946 -63.355  1.00  0.00    -0.346 N
HETATM   28  C11 UNL     1      69.087  22.171 -64.656  1.00  0.00     0.241 C
HETATM   29  O5  UNL     1      70.152  21.600 -64.890  1.00  0.00    -0.271 OA
ATOM     30  H5  UNL     1      67.620  22.385 -63.106  1.00  0.00     0.163 HD
BRANCH  28  31
HETATM   31  C12 UNL     1      68.437  23.044 -65.660  1.00  0.00     0.177 C
BRANCH  31  32
HETATM   32  C13 UNL     1      68.649  24.484 -65.375  1.00  0.00     0.038 C
BRANCH  32  33
HETATM   33  C14 UNL     1      69.199  25.311 -66.484  1.00  0.00    -0.020 C
HETATM   34  C15 UNL     1      68.311  25.266 -67.725  1.00  0.00     0.009 C
HETATM   35  C16 UNL     1      70.536  24.677 -66.905  1.00  0.00     0.009 C
ENDBRANCH  32  33
ENDBRANCH  31  32
BRANCH  31  36
HETATM   36  N6  UNL     1      67.024  22.668 -65.610  1.00  0.00    -0.346 N
HETATM   37  C17 UNL     1      66.269  22.109 -66.636  1.00  0.00     0.240 C
HETATM   38  O6  UNL     1      66.637  21.859 -67.770  1.00  0.00    -0.271 OA
ATOM     39  H6  UNL     1      66.540  22.833 -64.728  1.00  0.00     0.163 HD
BRANCH  37  40
HETATM   40  C18 UNL     1      64.803  21.758 -66.344  1.00  0.00     0.174 C
HETATM   41  C19 UNL     1      64.367  22.579 -65.152  1.00  0.00     0.042 C
BRANCH  40  42
HETATM   42  N7  UNL     1      63.969  22.016 -67.467  1.00  0.00    -0.324 N
HETATM   43  C20 UNL     1      62.722  21.423 -67.768  1.00  0.00     0.362 C
HETATM   44  O7  UNL     1      62.260  20.565 -66.983  1.00  0.00    -0.238 OA
ATOM     45  H7  UNL     1      64.310  22.710 -68.132  1.00  0.00     0.165 HD
BRANCH  43  46
HETATM   46  O8  UNL     1      61.991  21.751 -68.898  1.00  0.00    -0.294 OA
BRANCH  46  47
HETATM   47  C21 UNL     1      61.995  21.003 -70.100  1.00  0.00     0.061 C
HETATM   48  C22 UNL     1      61.645  21.969 -71.218  1.00  0.00     0.046 C
HETATM   49  C23 UNL     1      60.931  19.924 -70.060  1.00  0.00     0.046 C
HETATM   50  C24 UNL     1      63.320  20.385 -70.391  1.00  0.00     0.046 C
ENDBRANCH  46  47
ENDBRANCH  43  46
ENDBRANCH  40  42
ENDBRANCH  37  40
ENDBRANCH  31  36
ENDBRANCH  28  31
ENDBRANCH   1  27
BRANCH   1  51
HETATM   51  C25 UNL     1      68.083  20.341 -61.681  1.00  0.00     0.009 C
HETATM   52  C26 UNL     1      68.263  18.855 -61.657  1.00  0.00     0.012 C
HETATM   53  C27 UNL     1      66.704  20.690 -62.116  1.00  0.00     0.012 C
ENDBRANCH   1  51
TORSDOF 18
ENDMDL