MODEL 2
REMARK VINA RESULT: -8.661422911      5.105      9.350
REMARK  22 active torsions:
REMARK  status: ('A' for Active; 'I' for Inactive)
REMARK    1  A    between atoms: C2_2  and  C30_52
REMARK    2  A    between atoms: C4_4  and  N1_5
REMARK    3  A    between atoms: C5_9  and  O1_10
REMARK    4  A    between atoms: C6_12  and  O2_13
REMARK    5  A    between atoms: C8_16  and  C9_17
REMARK    6  A    between atoms: C9_17  and  O3_18
REMARK    7  A    between atoms: C9_17  and  N2_20
REMARK    8  A    between atoms: N2_20  and  C10_23
REMARK    9  A    between atoms: C10_23  and  C11_24
REMARK   10  A    between atoms: C11_24  and  O4_25
REMARK   11  A    between atoms: C11_24  and  C12_27
REMARK   12  A    between atoms: C12_27  and  N3_28
REMARK   13  A    between atoms: N3_28  and  C13_29
REMARK   14  A    between atoms: N3_28  and  S2_42
REMARK   15  A    between atoms: C13_29  and  C14_30
REMARK   16  A    between atoms: C14_30  and  O5_31
REMARK   17  A    between atoms: C14_30  and  C15_33
REMARK   18  A    between atoms: C15_33  and  S1_34
REMARK   19  A    between atoms: S1_34  and  C16_35
REMARK   20  A    between atoms: C16_35  and  C17_36
REMARK   21  A    between atoms: S2_42  and  C23_45
REMARK   22  A    between atoms: C23_45  and  C24_46
ROOT
HETATM    1  C11 UNL     1      68.831  22.699 -59.933  1.00  0.00     0.158 C
ENDROOT
BRANCH   1   2
HETATM    2  C10 UNL     1      67.707  22.588 -60.921  1.00  0.00     0.268 C
BRANCH   2   3
HETATM    3  N2  UNL     1      68.311  22.517 -62.262  1.00  0.00    -0.046 N
ATOM      4  H22 UNL     1      69.130  21.910 -62.282  1.00  0.00     0.280 HD
ATOM      5  H21 UNL     1      68.769  23.392 -62.522  1.00  0.00     0.280 HD
BRANCH   3   6
HETATM    6  C9  UNL     1      67.323  22.120 -63.227  1.00  0.00     0.327 C
BRANCH   6   7
HETATM    7  C8  UNL     1      67.825  21.790 -64.593  1.00  0.00     0.076 C
HETATM    8  C3  UNL     1      68.322  22.965 -65.380  1.00  0.00    -0.036 C
HETATM    9  C2  UNL     1      69.528  23.025 -65.877  1.00  0.00    -0.075 C
HETATM   10  C4  UNL     1      67.268  23.983 -65.612  1.00  0.00     0.244 C
HETATM   11  C1  UNL     1      69.981  24.147 -66.761  1.00  0.00     0.044 C
HETATM   12  C5  UNL     1      66.176  23.315 -66.433  1.00  0.00     0.181 C
HETATM   13  C6  UNL     1      65.662  22.048 -65.848  1.00  0.00     0.150 C
HETATM   14  C7  UNL     1      66.707  21.101 -65.378  1.00  0.00     0.048 C
BRANCH   9  15
HETATM   15  C30 UNL     1      70.627  22.034 -65.580  1.00  0.00     0.006 C
HETATM   16  C31 UNL     1      71.617  21.928 -66.703  1.00  0.00     0.014 C
HETATM   17  C32 UNL     1      71.386  22.596 -64.357  1.00  0.00     0.014 C
ENDBRANCH   9  15
BRANCH  10  18
HETATM   18  N1  UNL     1      67.627  25.198 -66.223  1.00  0.00    -0.069 N
ATOM     19  H13 UNL     1      66.869  25.868 -66.098  1.00  0.00     0.275 HD
ATOM     20  H12 UNL     1      68.369  25.636 -65.677  1.00  0.00     0.275 HD
ATOM     21  H11 UNL     1      67.902  25.189 -67.206  1.00  0.00     0.275 HD
ENDBRANCH  10  18
BRANCH  12  22
HETATM   22  O1  UNL     1      66.549  23.203 -67.761  1.00  0.00    -0.391 OA
ATOM     23  H1  UNL     1      65.811  23.361 -68.337  1.00  0.00     0.210 HD
ENDBRANCH  12  22
BRANCH  13  24
HETATM   24  O2  UNL     1      64.900  21.403 -66.829  1.00  0.00    -0.393 OA
ATOM     25  H2  UNL     1      65.214  20.509 -66.899  1.00  0.00     0.210 HD
ENDBRANCH  13  24
ENDBRANCH   6   7
BRANCH   6  26
HETATM   26  O3  UNL     1      66.918  20.822 -62.687  1.00  0.00    -0.369 OA
ATOM     27  H3  UNL     1      67.690  20.281 -62.803  1.00  0.00     0.212 HD
ENDBRANCH   6  26
ENDBRANCH   3   6
ENDBRANCH   2   3
ENDBRANCH   1   2
BRANCH   1  28
HETATM   28  O4  UNL     1      68.695  23.756 -59.091  1.00  0.00    -0.393 OA
ATOM     29  H4  UNL     1      68.750  23.511 -58.175  1.00  0.00     0.210 HD
ENDBRANCH   1  28
BRANCH   1  30
HETATM   30  C12 UNL     1      69.276  21.437 -59.321  1.00  0.00     0.140 C
BRANCH  30  31
HETATM   31  N3  UNL     1      68.368  20.337 -59.284  1.00  0.00    -0.205 NA
BRANCH  31  32
HETATM   32  C13 UNL     1      67.940  19.802 -58.080  1.00  0.00     0.139 C
BRANCH  32  33
HETATM   33  C14 UNL     1      68.564  20.365 -56.800  1.00  0.00     0.141 C
BRANCH  33  34
HETATM   34  O5  UNL     1      68.395  19.421 -55.764  1.00  0.00    -0.394 OA
ATOM     35  H5  UNL     1      68.330  18.556 -56.151  1.00  0.00     0.210 HD
ENDBRANCH  33  34
BRANCH  33  36
HETATM   36  C15 UNL     1      67.937  21.628 -56.314  1.00  0.00     0.107 C
BRANCH  36  37
HETATM   37  S1  UNL     1      68.586  22.387 -54.867  1.00  0.00    -0.162 SA
BRANCH  37  38
HETATM   38  C16 UNL     1      69.460  23.901 -54.920  1.00  0.00     0.112 C
BRANCH  38  39
HETATM   39  C17 UNL     1      70.400  24.122 -56.052  1.00  0.00    -0.049 A
HETATM   40  C18 UNL     1      70.560  25.309 -56.696  1.00  0.00     0.008 A
HETATM   41  C19 UNL     1      71.450  25.462 -57.726  1.00  0.00     0.001 A
HETATM   42  C20 UNL     1      72.218  24.401 -58.143  1.00  0.00     0.000 A
HETATM   43  C21 UNL     1      72.083  23.190 -57.519  1.00  0.00     0.001 A
HETATM   44  C22 UNL     1      71.185  23.059 -56.489  1.00  0.00     0.008 A
ENDBRANCH  38  39
ENDBRANCH  37  38
ENDBRANCH  36  37
ENDBRANCH  33  36
ENDBRANCH  32  33
ENDBRANCH  31  32
BRANCH  31  45
HETATM   45  S2  UNL     1      68.946  19.166 -60.418  1.00  0.00     0.215 S
HETATM   46  O6  UNL     1      67.714  18.404 -60.901  1.00  0.00    -0.211 OA
HETATM   47  O7  UNL     1      69.620  19.804 -61.548  1.00  0.00    -0.211 OA
BRANCH  45  48
HETATM   48  C23 UNL     1      70.017  17.996 -59.643  1.00  0.00     0.196 C
BRANCH  48  49
HETATM   49  C24 UNL     1      71.274  18.682 -59.196  1.00  0.00    -0.043 A
HETATM   50  C25 UNL     1      72.166  19.096 -60.168  1.00  0.00     0.008 A
HETATM   51  C26 UNL     1      73.326  19.729 -59.827  1.00  0.00     0.001 A
HETATM   52  C27 UNL     1      73.585  19.946 -58.488  1.00  0.00     0.000 A
HETATM   53  C28 UNL     1      72.726  19.550 -57.508  1.00  0.00     0.001 A
HETATM   54  C29 UNL     1      71.548  18.906 -57.867  1.00  0.00     0.008 A
ENDBRANCH  48  49
ENDBRANCH  45  48
ENDBRANCH  31  45
ENDBRANCH  30  31
ENDBRANCH   1  30
TORSDOF 22
ENDMDL