MODEL 2
REMARK VINA RESULT: -7.894573048      1.339      1.933
REMARK  13 active torsions:
REMARK  status: ('A' for Active; 'I' for Inactive)
REMARK    1  A    between atoms: C2_2  and  C3_3
REMARK    2  A    between atoms: C3_3  and  C4_4
REMARK    3  A    between atoms: C4_4  and  C6_6
REMARK    4  A    between atoms: C6_6  and  C7_7
REMARK    5  A    between atoms: C9_12  and  C10_13
REMARK    6  A    between atoms: C17_24  and  C18_25
REMARK    7  A    between atoms: C20_32  and  C21_33
REMARK    8  A    between atoms: C21_33  and  C22_34
REMARK    9  A    between atoms: C22_34  and  C23_35
REMARK   10  A    between atoms: C23_35  and  N3_36
REMARK   11  A    between atoms: N6_41  and  C25_42
REMARK   12  A    between atoms: C26_43  and  N7_44
REMARK   13  A    between atoms: N7_44  and  C27_46
ROOT
HETATM    1  C7  UNL     1      65.914  21.944 -67.844  1.00  0.00     0.160 C
HETATM    2  C8  UNL     1      67.240  21.273 -67.507  1.00  0.00     0.237 C
HETATM    3  O1  UNL     1      67.215  20.035 -67.433  1.00  0.00    -0.272 OA
HETATM    4  N1  UNL     1      68.453  21.945 -67.279  1.00  0.00    -0.344 N
ATOM      5  H1  UNL     1      69.282  21.551 -67.724  1.00  0.00     0.163 HD
HETATM    6  C9  UNL     1      68.654  23.133 -66.482  1.00  0.00     0.204 C
HETATM    7  C11 UNL     1      69.572  24.133 -67.213  1.00  0.00     0.042 C
HETATM    8  C12 UNL     1      69.583  25.456 -66.442  1.00  0.00     0.030 C
HETATM    9  C13 UNL     1      70.989  23.652 -67.268  1.00  0.00     0.030 C
HETATM   10  S1  UNL     1      68.813  24.456 -68.791  1.00  0.00    -0.085 SA
HETATM   11  S2  UNL     1      70.060  24.710 -70.416  1.00  0.00    -0.085 SA
HETATM   12  C14 UNL     1      70.395  23.273 -71.422  1.00  0.00     0.042 C
HETATM   13  C15 UNL     1      70.814  23.680 -72.820  1.00  0.00     0.030 C
HETATM   14  C16 UNL     1      71.636  22.599 -70.814  1.00  0.00     0.030 C
HETATM   15  C17 UNL     1      69.303  22.217 -71.415  1.00  0.00     0.204 C
HETATM   16  N2  UNL     1      68.005  22.792 -71.610  1.00  0.00    -0.340 N
ATOM     17  H2  UNL     1      67.929  23.450 -72.386  1.00  0.00     0.163 HD
HETATM   18  C19 UNL     1      66.811  22.575 -70.877  1.00  0.00     0.263 C
HETATM   19  O6  UNL     1      66.001  23.570 -70.921  1.00  0.00    -0.267 OA
HETATM   20  C20 UNL     1      66.462  21.362 -70.116  1.00  0.00     0.080 C
HETATM   21  N6  UNL     1      65.443  21.425 -69.131  1.00  0.00    -0.241 NA
ENDROOT
BRANCH  20  22
HETATM   22  C21 UNL     1      66.674  20.046 -70.725  1.00  0.00     0.004 C
BRANCH  22  23
HETATM   23  C22 UNL     1      65.590  19.272 -71.349  1.00  0.00     0.049 C
BRANCH  23  24
HETATM   24  C23 UNL     1      66.000  18.892 -72.798  1.00  0.00     0.126 C
BRANCH  24  25
HETATM   25  N3  UNL     1      67.416  18.708 -72.847  1.00  0.00    -0.367 N
HETATM   26  C24 UNL     1      67.950  17.645 -73.327  1.00  0.00     0.196 C
HETATM   27  N4  UNL     1      69.378  17.555 -73.330  1.00  0.00    -0.067 NA
HETATM   28  N5  UNL     1      67.124  16.619 -73.823  1.00  0.00    -0.067 NA
ATOM     29  H3  UNL     1      68.023  19.446 -72.488  1.00  0.00     0.161 HD
ENDBRANCH  24  25
ENDBRANCH  23  24
ENDBRANCH  22  23
ENDBRANCH  20  22
BRANCH  21  30
HETATM   30  C25 UNL     1      64.258  22.109 -69.421  1.00  0.00     0.083 C
HETATM   31  C26 UNL     1      63.090  21.661 -70.139  1.00  0.00     0.102 C
BRANCH  31  32
HETATM   32  N7  UNL     1      62.304  20.569 -69.598  1.00  0.00    -0.343 N
ATOM     33  H7  UNL     1      62.673  20.101 -68.771  1.00  0.00     0.167 HD
BRANCH  32  34
HETATM   34  C27 UNL     1      61.081  20.095 -70.105  1.00  0.00     0.352 C
HETATM   35  O7  UNL     1      60.668  18.926 -70.106  1.00  0.00    -0.283 OA
ENDBRANCH  32  34
ENDBRANCH  31  32
ENDBRANCH  21  30
BRANCH   1  36
HETATM   36  C6  UNL     1      65.171  21.758 -66.609  1.00  0.00     0.034 C
BRANCH  36  37
HETATM   37  C4  UNL     1      64.691  22.678 -65.614  1.00  0.00    -0.017 C
HETATM   38  C5  UNL     1      63.107  22.607 -65.683  1.00  0.00     0.010 C
BRANCH  37  39
HETATM   39  C3  UNL     1      64.934  22.314 -64.167  1.00  0.00     0.004 C
BRANCH  39  40
HETATM   40  C2  UNL     1      66.271  21.614 -64.088  1.00  0.00    -0.004 C
HETATM   41  C1  UNL     1      66.676  21.376 -62.653  1.00  0.00     0.005 C
ENDBRANCH  39  40
ENDBRANCH  37  39
ENDBRANCH  36  37
ENDBRANCH   1  36
BRANCH  15  42
HETATM   42  C18 UNL     1      69.679  21.325 -72.579  1.00  0.00     0.198 C
HETATM   43  O4  UNL     1      70.662  20.543 -72.536  1.00  0.00    -0.646 OA
HETATM   44  O5  UNL     1      68.879  21.421 -73.701  1.00  0.00    -0.646 OA
ENDBRANCH  15  42
BRANCH   6  45
HETATM   45  C10 UNL     1      69.357  22.734 -65.239  1.00  0.00     0.198 C
HETATM   46  O2  UNL     1      70.048  21.693 -65.218  1.00  0.00    -0.646 OA
HETATM   47  O3  UNL     1      69.218  23.558 -64.114  1.00  0.00    -0.646 OA
ENDBRANCH   6  45
TORSDOF 13
ENDMDL