MODEL 1
REMARK VINA RESULT: -7.272473541      0.000      0.000
REMARK  4 active torsions:
REMARK  status: ('A' for Active; 'I' for Inactive)
REMARK    1  A    between atoms: C4_6  and  C5_7
REMARK    2  A    between atoms: N2_8  and  N3_10
REMARK       I    between atoms: N3_10  and  C6_12
REMARK    3  A    between atoms: N6_20  and  S1_21
REMARK    4  A    between atoms: S1_21  and  N7_22
ROOT
HETATM    1  C1  UNL     1      -3.551  30.673  -2.787  1.00  0.00     0.123 C
HETATM    2  C2  UNL     1      -4.148  30.909  -1.742  1.00  0.00    -0.074 C
HETATM    3  N1  UNL     1      -4.808  31.190  -0.544  1.00  0.00    -0.314 N
ATOM      4  H1  UNL     1      -5.074  32.148  -0.319  1.00  0.00     0.176 HD
HETATM    5  C3  UNL     1      -5.078  30.243   0.271  1.00  0.00     0.110 C
HETATM    6  C4  UNL     1      -4.684  28.857  -0.070  1.00  0.00     0.095 C
HETATM    7  C7  UNL     1      -4.900  27.918   1.114  1.00  0.00     0.019 C
HETATM    8  C8  UNL     1      -6.261  28.239   1.692  1.00  0.00     0.022 C
HETATM    9  C9  UNL     1      -6.099  29.555   2.463  1.00  0.00     0.144 C
HETATM   10  N6  UNL     1      -5.749  30.562   1.480  1.00  0.00    -0.247 N
ENDROOT
BRANCH   6  11
HETATM   11  C5  UNL     1      -5.542  28.330  -1.185  1.00  0.00     0.092 C
HETATM   12  N2  UNL     1      -6.802  28.646  -1.142  1.00  0.00    -0.313 N
ATOM     13  H2  UNL     1      -7.137  29.224  -0.371  1.00  0.00     0.185 HD
BRANCH  12  14
HETATM   14  N3  UNL     1      -7.710  28.227  -2.107  1.00  0.00    -0.275 N
HETATM   15  C6  UNL     1      -9.019  27.847  -1.704  1.00  0.00     0.200 C
HETATM   16  N4  UNL     1      -9.758  28.590  -0.951  1.00  0.00    -0.372 N
HETATM   17  N5  UNL     1      -9.508  26.595  -2.164  1.00  0.00    -0.062 NA
ATOM     18  H42 UNL     1      -9.407  29.489  -0.621  1.00  0.00     0.158 HD
ATOM     19  H41 UNL     1     -10.697  28.317  -0.662  1.00  0.00     0.158 HD
ATOM     20  H3  UNL     1      -7.441  28.192  -3.090  1.00  0.00     0.189 HD
ENDBRANCH  12  14
ENDBRANCH   6  11
BRANCH  10  21
HETATM   21  S1  UNL     1      -6.177  32.196   1.820  1.00  0.00     0.320 S
HETATM   22  O1  UNL     1      -7.237  32.700   0.886  1.00  0.00    -0.182 OA
HETATM   23  O2  UNL     1      -4.997  33.111   1.703  1.00  0.00    -0.182 OA
BRANCH  21  24
HETATM   24  N7  UNL     1      -6.741  32.262   3.451  1.00  0.00    -0.311 N
ATOM     25  H72 UNL     1      -6.175  32.512   4.262  1.00  0.00     0.170 HD
ATOM     26  H71 UNL     1      -7.728  32.007   3.448  1.00  0.00     0.170 HD
ENDBRANCH  21  24
ENDBRANCH  10  21
TORSDOF 4
ENDMDL