MODEL 3
REMARK VINA RESULT: -6.817131468      2.551      3.393
REMARK  3 active torsions:
REMARK  status: ('A' for Active; 'I' for Inactive)
REMARK    1  A    between atoms: C3_3  and  N1_4
REMARK       I    between atoms: N1_4  and  C4_6
REMARK    2  A    between atoms: C4_6  and  C5_8
REMARK    3  A    between atoms: C5_8  and  N2_9
REMARK       I    between atoms: N3_12  and  C8_13
ROOT
HETATM    1  C1  UNL     1      -3.931  34.320  -1.801  1.00  0.00     0.014 C
HETATM    2  C2  UNL     1      -3.908  33.136  -1.953  1.00  0.00    -0.098 C
HETATM    3  C3  UNL     1      -3.903  31.688  -2.143  1.00  0.00     0.216 C
ENDROOT
BRANCH   3   4
HETATM    4  N1  UNL     1      -3.908  31.004  -0.847  1.00  0.00    -0.346 N
HETATM    5  C4  UNL     1      -4.302  29.670  -0.707  1.00  0.00     0.258 C
HETATM    6  O1  UNL     1      -4.640  29.076  -1.799  1.00  0.00    -0.267 OA
ATOM      7  H1  UNL     1      -3.614  31.520  -0.018  1.00  0.00     0.163 HD
BRANCH   5   8
HETATM    8  C5  UNL     1      -4.364  28.891   0.489  1.00  0.00     0.171 C
BRANCH   8   9
HETATM    9  N2  UNL     1      -5.577  28.457   1.057  1.00  0.00    -0.315 N
HETATM   10  C6  UNL     1      -6.635  29.303   1.352  1.00  0.00     0.091 C
HETATM   11  C7  UNL     1      -7.159  30.593   1.212  1.00  0.00     0.175 C
HETATM   12  N3  UNL     1      -8.542  30.450   1.799  1.00  0.00    -0.329 N
HETATM   13  C8  UNL     1      -9.427  31.504   1.399  1.00  0.00     0.188 C
HETATM   14  C9  UNL     1      -8.936  29.397   2.670  1.00  0.00     0.086 C
HETATM   15  N4  UNL     1      -9.145  32.498   0.679  1.00  0.00    -0.373 N
HETATM   16  N5  UNL     1     -10.767  31.423   1.872  1.00  0.00    -0.064 NA
ATOM     17  H42 UNL     1      -8.185  32.556   0.340  1.00  0.00     0.158 HD
ATOM     18  H41 UNL     1      -9.774  33.248   0.394  1.00  0.00     0.158 HD
HETATM   19  C10 UNL     1      -9.140  27.998   2.235  1.00  0.00     0.166 C
HETATM   20  N6  UNL     1      -8.110  27.038   2.485  1.00  0.00    -0.386 N
HETATM   21  C11 UNL     1      -8.266  26.247   3.661  1.00  0.00     0.149 C
HETATM   22  C12 UNL     1      -7.250  26.561   1.495  1.00  0.00     0.134 C
HETATM   23  C13 UNL     1      -5.842  27.085   1.502  1.00  0.00     0.120 C
HETATM   24  N7  UNL     1      -4.816  26.369   1.918  1.00  0.00    -0.384 N
ATOM     25  H72 UNL     1      -3.860  26.725   1.922  1.00  0.00     0.157 HD
ATOM     26  H71 UNL     1      -5.002  25.415   2.227  1.00  0.00     0.157 HD
ENDBRANCH   8   9
ENDBRANCH   5   8
ENDBRANCH   3   4
TORSDOF 3
ENDMDL