MODEL 1
REMARK VINA RESULT: -7.190267698      0.000      0.000
REMARK  5 active torsions:
REMARK  status: ('A' for Active; 'I' for Inactive)
REMARK    1  A    between atoms: C2_2  and  N1_3
REMARK       I    between atoms: C3_5  and  N2_6
REMARK       I    between atoms: C3_5  and  N4_11
REMARK    2  A    between atoms: N2_6  and  N3_8
REMARK    3  A    between atoms: N4_11  and  C4_13
REMARK    4  A    between atoms: C5_14  and  O1_15
REMARK    5  A    between atoms: C5_14  and  N5_17
REMARK       I    between atoms: N6_20  and  C8_21
ROOT
HETATM    1  C4  UNL     1      -5.878  31.813   2.150  1.00  0.00     0.161 C
HETATM    2  C5  UNL     1      -6.831  31.500   3.177  1.00  0.00     0.154 C
ENDROOT
BRANCH   2   3
HETATM    3  O1  UNL     1      -7.004  32.436   4.101  1.00  0.00    -0.345 OA
ATOM      4  H1  UNL     1      -6.806  32.172   4.992  1.00  0.00     0.219 HD
ENDBRANCH   2   3
BRANCH   2   5
HETATM    5  N5  UNL     1      -7.639  30.379   3.414  1.00  0.00    -0.358 N
HETATM    6  C6  UNL     1      -8.925  30.300   2.689  1.00  0.00     0.145 C
HETATM    7  C7  UNL     1     -10.068  30.041   3.644  1.00  0.00     0.145 C
HETATM    8  N6  UNL     1      -9.746  28.917   4.509  1.00  0.00    -0.353 N
HETATM    9  C8  UNL     1     -10.725  28.450   5.397  1.00  0.00     0.185 C
HETATM   10  C10 UNL     1      -8.451  28.285   4.472  1.00  0.00     0.145 C
HETATM   11  N7  UNL     1     -11.284  29.387   6.317  1.00  0.00    -0.064 NA
HETATM   12  N8  UNL     1     -11.166  27.241   5.459  1.00  0.00    -0.369 N
HETATM   13  C9  UNL     1     -10.726  26.158   4.622  1.00  0.00     0.148 C
ATOM     14  H8  UNL     1     -11.883  27.037   6.155  1.00  0.00     0.161 HD
HETATM   15  C11 UNL     1      -7.336  29.306   4.303  1.00  0.00     0.145 C
ENDBRANCH   2   5
BRANCH   1  16
HETATM   16  N4  UNL     1      -5.570  30.968   1.078  1.00  0.00    -0.197 N
HETATM   17  C3  UNL     1      -4.570  31.382   0.080  1.00  0.00     0.692 C
HETATM   18  N1  UNL     1      -4.850  32.293  -0.754  1.00  0.00    -0.225 N
HETATM   19  N2  UNL     1      -3.340  30.705   0.139  1.00  0.00    -0.139 N
ATOM     20  H1  UNL     1      -5.780  32.705  -0.691  1.00  0.00     0.177 HD
ATOM     21  H2  UNL     1      -2.477  31.227   0.294  1.00  0.00     0.205 HD
ATOM     22  H4  UNL     1      -6.037  30.065   0.988  1.00  0.00     0.183 HD
BRANCH  18  23
HETATM   23  C2  UNL     1      -3.990  32.800  -1.773  1.00  0.00     0.134 C
HETATM   24  C1  UNL     1      -3.962  34.304  -1.826  1.00  0.00     0.027 C
ENDBRANCH  18  23
BRANCH  19  25
HETATM   25  N3  UNL     1      -3.301  29.329  -0.015  1.00  0.00    -0.331 N
ATOM     26  H32 UNL     1      -4.092  28.856  -0.452  1.00  0.00     0.177 HD
ATOM     27  H31 UNL     1      -2.488  28.804   0.309  1.00  0.00     0.177 HD
ENDBRANCH  19  25
ENDBRANCH   1  16
TORSDOF 5
ENDMDL