MODEL 5
REMARK VINA RESULT: -6.444746449      4.097      7.245
REMARK  3 active torsions:
REMARK  status: ('A' for Active; 'I' for Inactive)
REMARK       I    between atoms: N2_6  and  C5_7
REMARK    1  A    between atoms: N5_14  and  C8_15
REMARK    2  A    between atoms: C8_15  and  C9_16
REMARK    3  A    between atoms: C9_16  and  N6_17
ROOT
HETATM    1  C1  UNL     1      -6.580  30.738   3.712  1.00  0.00     0.309 C
HETATM    2  N1  UNL     1      -7.588  29.747   3.367  1.00  0.00     0.086 N
HETATM    3  C2  UNL     1      -8.783  30.392   2.928  1.00  0.00     0.273 C
HETATM    4  C3  UNL     1      -9.027  30.272   1.443  1.00  0.00     0.050 C
HETATM    5  C4  UNL     1      -7.890  29.684   0.687  1.00  0.00     0.127 C
HETATM    6  N2  UNL     1      -8.082  28.270   0.356  1.00  0.00    -0.354 N
HETATM    7  C5  UNL     1      -9.059  27.831  -0.552  1.00  0.00     0.184 C
HETATM    8  N3  UNL     1      -9.874  28.659  -1.090  1.00  0.00    -0.374 N
ATOM      9  H31 UNL     1     -10.584  28.340  -1.749  1.00  0.00     0.158 HD
ATOM     10  H32 UNL     1      -9.804  29.648  -0.849  1.00  0.00     0.158 HD
HETATM   11  N4  UNL     1      -9.155  26.467  -0.883  1.00  0.00    -0.064 NA
HETATM   12  C6  UNL     1      -7.233  27.287   0.988  1.00  0.00     0.155 C
HETATM   13  C7  UNL     1      -8.086  26.572   2.014  1.00  0.00     0.292 C
HETATM   14  N5  UNL     1      -7.452  26.783   3.294  1.00  0.00     0.093 N
HETATM   15  C11 UNL     1      -8.252  27.525   4.214  1.00  0.00     0.302 C
HETATM   16  C12 UNL     1      -7.722  28.896   4.499  1.00  0.00     0.302 C
ENDROOT
BRANCH  14  17
HETATM   17  C8  UNL     1      -7.023  25.500   3.781  1.00  0.00     0.292 C
BRANCH  17  18
HETATM   18  C9  UNL     1      -7.560  25.148   5.145  1.00  0.00     0.152 C
BRANCH  18  19
HETATM   19  N6  UNL     1      -6.468  25.097   6.070  1.00  0.00    -0.365 N
HETATM   20  C10 UNL     1      -6.326  25.778   7.135  1.00  0.00     0.197 C
HETATM   21  N7  UNL     1      -7.318  26.718   7.518  1.00  0.00    -0.067 NA
HETATM   22  N8  UNL     1      -5.171  25.588   7.929  1.00  0.00    -0.067 NA
ATOM     23  H6  UNL     1      -5.719  24.440   5.851  1.00  0.00     0.161 HD
ENDBRANCH  18  19
ENDBRANCH  17  18
ENDBRANCH  14  17
TORSDOF 3
ENDMDL