MODEL 5
REMARK VINA RESULT: -5.832972154      4.795      6.228
REMARK  8 active torsions:
REMARK  status: ('A' for Active; 'I' for Inactive)
REMARK    1  A    between atoms: C3_5  and  C4_6
REMARK    2  A    between atoms: C4_6  and  C5_7
REMARK    3  A    between atoms: C5_7  and  O1_8
REMARK    4  A    between atoms: C6_10  and  C7_11
REMARK    5  A    between atoms: C8_12  and  C9_13
REMARK    6  A    between atoms: C9_13  and  N2_14
REMARK    7  A    between atoms: C12_22  and  C13_23
REMARK    8  A    between atoms: C13_23  and  N4_24
ROOT
HETATM    1  C9  UNL     1      -5.932  25.434   5.720  1.00  0.00     0.367 C
HETATM    2  C10 UNL     1      -5.630  25.578   7.132  1.00  0.00     0.105 C
HETATM    3  N3  UNL     1      -5.402  25.703   8.254  1.00  0.00    -0.194 NA
ENDROOT
BRANCH   1   4
HETATM    4  C8  UNL     1      -6.967  26.415   5.392  1.00  0.00    -0.053 C
HETATM    5  C7  UNL     1      -7.823  27.217   5.110  1.00  0.00    -0.058 C
BRANCH   5   6
HETATM    6  C6  UNL     1      -8.861  28.191   4.768  1.00  0.00     0.091 A
HETATM    7  C3  UNL     1      -8.540  29.417   4.277  1.00  0.00     0.034 A
HETATM    8  N1  UNL     1      -9.503  30.281   3.974  1.00  0.00    -0.358 N
HETATM    9  C2  UNL     1     -10.837  29.964   4.146  1.00  0.00     0.038 A
ATOM     10  H1  UNL     1      -9.251  31.199   3.607  1.00  0.00     0.166 HD
HETATM   11  C1  UNL     1     -11.658  30.926   3.801  1.00  0.00     0.044 C
HETATM   12  C12 UNL     1     -11.211  28.747   4.636  1.00  0.00     0.057 A
HETATM   13  C11 UNL     1     -10.163  27.845   4.950  1.00  0.00     0.206 A
HETATM   14  O2  UNL     1     -10.493  26.711   5.406  1.00  0.00    -0.286 OA
BRANCH   7  15
HETATM   15  C4  UNL     1      -7.116  29.801   4.074  1.00  0.00     0.084 C
BRANCH  15  16
HETATM   16  C5  UNL     1      -6.992  31.279   3.805  1.00  0.00     0.170 C
BRANCH  16  17
HETATM   17  O1  UNL     1      -7.248  32.003   4.973  1.00  0.00    -0.400 OA
ATOM     18  H1  UNL     1      -7.607  32.856   4.757  1.00  0.00     0.209 HD
ENDBRANCH  16  17
ENDBRANCH  15  16
ENDBRANCH   7  15
BRANCH  12  19
HETATM   19  C13 UNL     1     -12.426  28.371   4.827  1.00  0.00     0.102 C
BRANCH  19  20
HETATM   20  N4  UNL     1     -13.439  28.502   5.769  1.00  0.00    -0.398 N
HETATM   21  C14 UNL     1     -13.139  28.421   7.207  1.00  0.00     0.148 C
HETATM   22  C15 UNL     1     -14.839  28.655   5.350  1.00  0.00     0.148 C
ENDBRANCH  19  20
ENDBRANCH  12  19
ENDBRANCH   5   6
ENDBRANCH   1   4
BRANCH   1  23
HETATM   23  N2  UNL     1      -4.758  25.656   4.887  1.00  0.00    -0.052 N
ATOM     24  H23 UNL     1      -4.750  26.591   4.479  1.00  0.00     0.277 HD
ATOM     25  H22 UNL     1      -3.904  25.729   5.440  1.00  0.00     0.277 HD
ATOM     26  H21 UNL     1      -4.694  24.927   4.177  1.00  0.00     0.277 HD
ENDBRANCH   1  23
TORSDOF 8
ENDMDL