MODEL 1
REMARK VINA RESULT: -6.702046053      0.000      0.000
REMARK  5 active torsions:
REMARK  status: ('A' for Active; 'I' for Inactive)
REMARK    1  A    between atoms: N1_2  and  S1_4
REMARK    2  A    between atoms: S1_4  and  N2_7
REMARK    3  A    between atoms: N2_7  and  C2_9
REMARK    4  A    between atoms: C3_14  and  N5_15
REMARK    5  A    between atoms: N5_15  and  S2_17
ROOT
HETATM    1  C2  UNL     1      -7.003  32.179   1.317  1.00  0.00     0.722 A
HETATM    2  N3  UNL     1      -8.111  32.785   0.900  1.00  0.00    -0.116 N
ATOM      3  H3  UNL     1      -8.200  33.764   0.627  1.00  0.00     0.206 HD
HETATM    4  N4  UNL     1      -9.071  31.882   0.906  1.00  0.00    -0.117 N
ATOM      5  H4  UNL     1     -10.038  32.055   0.633  1.00  0.00     0.206 HD
HETATM    6  C3  UNL     1      -8.587  30.702   1.324  1.00  0.00     0.721 A
HETATM    7  N6  UNL     1      -7.287  30.903   1.579  1.00  0.00    -0.018 N
ATOM      8  H6  UNL     1      -6.628  30.201   1.915  1.00  0.00     0.203 HD
ENDROOT
BRANCH   1   9
HETATM    9  N2  UNL     1      -5.817  32.686   1.466  1.00  0.00    -0.098 N
ATOM     10  H2  UNL     1      -5.686  33.447   2.133  1.00  0.00     0.199 HD
BRANCH   9  11
HETATM   11  S1  UNL     1      -4.458  32.115   0.569  1.00  0.00     0.332 S
HETATM   12  O1  UNL     1      -3.213  32.840   0.938  1.00  0.00    -0.182 OA
HETATM   13  O2  UNL     1      -4.260  30.646   0.880  1.00  0.00    -0.182 OA
BRANCH  11  14
HETATM   14  N1  UNL     1      -4.698  32.252  -1.131  1.00  0.00    -0.307 N
HETATM   15  C1  UNL     1      -3.932  33.382  -1.609  1.00  0.00     0.161 C
ATOM     16  H1  UNL     1      -5.282  31.641  -1.702  1.00  0.00     0.173 HD
ENDBRANCH  11  14
ENDBRANCH   9  11
ENDBRANCH   1   9
BRANCH   6  17
HETATM   17  N5  UNL     1      -9.243  29.577   1.459  1.00  0.00    -0.115 N
ATOM     18  H5  UNL     1     -10.028  29.504   2.106  1.00  0.00     0.197 HD
BRANCH  17  19
HETATM   19  S2  UNL     1      -8.746  28.217   0.512  1.00  0.00     0.240 S
HETATM   20  C4  UNL     1      -8.310  26.906   1.605  1.00  0.00     0.186 C
HETATM   21  O3  UNL     1      -9.891  27.862  -0.395  1.00  0.00    -0.206 OA
HETATM   22  O4  UNL     1      -7.546  28.639  -0.323  1.00  0.00    -0.206 OA
ENDBRANCH  17  19
ENDBRANCH   6  17
TORSDOF 5
ENDMDL