MODEL 5
REMARK VINA RESULT: -6.081060171      3.837      6.086
REMARK  3 active torsions:
REMARK  status: ('A' for Active; 'I' for Inactive)
REMARK       I    between atoms: N1_2  and  C3_4
REMARK       I    between atoms: C3_4  and  N2_6
REMARK    1  A    between atoms: N2_6  and  S1_8
REMARK    2  A    between atoms: S1_8  and  N3_11
REMARK    3  A    between atoms: N3_11  and  N4_13
REMARK       I    between atoms: N5_16  and  C6_17
ROOT
HETATM    1  N3  UNL     1      -5.625  29.994  -0.324  1.00  0.00    -0.212 N
ATOM      2  H3  UNL     1      -6.487  29.819  -0.841  1.00  0.00     0.201 HD
ENDROOT
BRANCH   1   3
HETATM    3  S1  UNL     1      -4.078  30.334  -1.008  1.00  0.00     0.340 S
HETATM    4  O2  UNL     1      -4.051  29.804  -2.422  1.00  0.00    -0.181 OA
HETATM    5  O3  UNL     1      -3.925  31.825  -1.070  1.00  0.00    -0.181 OA
BRANCH   3   6
HETATM    6  N2  UNL     1      -2.801  29.578  -0.143  1.00  0.00    -0.218 N
HETATM    7  C3  UNL     1      -2.788  28.170  -0.014  1.00  0.00     0.332 C
HETATM    8  N1  UNL     1      -1.733  27.556   0.700  1.00  0.00    -0.342 N
HETATM    9  O1  UNL     1      -3.714  27.494  -0.536  1.00  0.00    -0.246 OA
HETATM   10  C1  UNL     1      -0.696  28.342   1.288  1.00  0.00     0.154 C
HETATM   11  C2  UNL     1      -1.710  26.109   0.832  1.00  0.00     0.154 C
ATOM     12  H2  UNL     1      -2.058  30.140   0.274  1.00  0.00     0.185 HD
ENDBRANCH   3   6
ENDBRANCH   1   3
BRANCH   1  13
HETATM   13  N4  UNL     1      -5.485  30.001   1.053  1.00  0.00    -0.314 N
HETATM   14  C4  UNL     1      -6.100  28.940   1.759  1.00  0.00     0.163 C
HETATM   15  C5  UNL     1      -7.531  29.220   2.187  1.00  0.00     0.147 C
HETATM   16  N5  UNL     1      -7.529  30.520   2.819  1.00  0.00    -0.353 N
HETATM   17  C6  UNL     1      -8.001  30.628   4.150  1.00  0.00     0.184 C
HETATM   18  C7  UNL     1      -7.039  31.633   2.037  1.00  0.00     0.147 C
HETATM   19  N6  UNL     1      -8.827  29.736   4.578  1.00  0.00    -0.374 N
HETATM   20  N7  UNL     1      -7.569  31.701   4.987  1.00  0.00    -0.064 NA
ATOM     21  H62 UNL     1      -9.136  28.970   3.980  1.00  0.00     0.158 HD
ATOM     22  H61 UNL     1      -9.167  29.815   5.536  1.00  0.00     0.158 HD
HETATM   23  C8  UNL     1      -5.616  31.302   1.644  1.00  0.00     0.163 C
ENDBRANCH   1  13
TORSDOF 3
ENDMDL