MODEL 4
REMARK VINA RESULT: -6.963909865      1.560      4.236
REMARK  6 active torsions:
REMARK  status: ('A' for Active; 'I' for Inactive)
REMARK    1  A    between atoms: C3_3  and  N1_4
REMARK    2  A    between atoms: N1_4  and  C4_6
REMARK    3  A    between atoms: C5_9  and  N3_10
REMARK    4  A    between atoms: C7_15  and  N5_16
REMARK    5  A    between atoms: N5_16  and  C8_18
REMARK    6  A    between atoms: C8_18  and  C9_19
REMARK       I    between atoms: C9_19  and  N6_21
ROOT
HETATM    1  C1  UNL     1      -3.941  34.230  -2.172  1.00  0.00     0.014 C
HETATM    2  C2  UNL     1      -3.627  33.855  -1.084  1.00  0.00    -0.097 C
HETATM    3  C3  UNL     1      -3.218  33.398   0.233  1.00  0.00     0.231 C
ENDROOT
BRANCH   3   4
HETATM    4  N1  UNL     1      -3.477  31.986   0.383  1.00  0.00    -0.215 N
ATOM      5  H1  UNL     1      -2.747  31.309   0.164  1.00  0.00     0.178 HD
BRANCH   4   6
HETATM    6  C4  UNL     1      -4.638  31.575   0.794  1.00  0.00     0.708 A
HETATM    7  N2  UNL     1      -5.164  32.078   1.928  1.00  0.00    -0.022 N
HETATM    8  C5  UNL     1      -6.360  31.679   2.387  1.00  0.00     0.706 A
ATOM      9  H2  UNL     1      -4.640  32.780   2.450  1.00  0.00     0.203 HD
HETATM   10  N4  UNL     1      -7.034  30.754   1.684  1.00  0.00    -0.022 N
HETATM   11  C7  UNL     1      -6.556  30.210   0.535  1.00  0.00     0.707 A
ATOM     12  H4  UNL     1      -7.945  30.448   2.027  1.00  0.00     0.203 HD
HETATM   13  N7  UNL     1      -5.346  30.653   0.126  1.00  0.00    -0.021 N
ATOM     14  H7  UNL     1      -4.953  30.269  -0.733  1.00  0.00     0.203 HD
BRANCH   8  15
HETATM   15  N3  UNL     1      -6.793  32.208   3.478  1.00  0.00    -0.229 N
HETATM   16  C6  UNL     1      -7.172  31.313   4.548  1.00  0.00     0.165 C
ATOM     17  H3  UNL     1      -6.865  33.221   3.583  1.00  0.00     0.177 HD
ENDBRANCH   8  15
BRANCH  11  18
HETATM   18  N5  UNL     1      -7.242  29.328  -0.099  1.00  0.00    -0.216 N
ATOM     19  H5  UNL     1      -7.736  29.572  -0.957  1.00  0.00     0.178 HD
BRANCH  18  20
HETATM   20  C8  UNL     1      -7.298  28.008   0.420  1.00  0.00     0.240 C
BRANCH  20  21
HETATM   21  C9  UNL     1      -8.416  27.698   1.315  1.00  0.00     0.238 C
HETATM   22  O1  UNL     1      -9.568  27.608   0.766  1.00  0.00    -0.272 OA
HETATM   23  N6  UNL     1      -8.354  27.489   2.714  1.00  0.00    -0.351 N
HETATM   24  C10 UNL     1      -9.470  27.165   3.547  1.00  0.00     0.126 C
HETATM   25  C13 UNL     1      -7.175  27.569   3.515  1.00  0.00     0.126 C
HETATM   26  C11 UNL     1      -9.143  27.822   4.859  1.00  0.00     0.021 C
HETATM   27  C12 UNL     1      -7.658  27.417   4.971  1.00  0.00     0.021 C
ENDBRANCH  20  21
ENDBRANCH  18  20
ENDBRANCH  11  18
ENDBRANCH   4   6
ENDBRANCH   3   4
TORSDOF 6
ENDMDL