MODEL 5
REMARK VINA RESULT: -6.430404124      2.033      2.460
REMARK  6 active torsions:
REMARK  status: ('A' for Active; 'I' for Inactive)
REMARK       I    between atoms: N2_3  and  C2_5
REMARK       I    between atoms: C2_5  and  N7_20
REMARK    1  A    between atoms: N3_6  and  C3_8
REMARK    2  A    between atoms: C4_9  and  C5_10
REMARK    3  A    between atoms: C5_10  and  N4_11
REMARK    4  A    between atoms: N4_11  and  C6_14
REMARK    5  A    between atoms: C6_14  and  N5_15
REMARK    6  A    between atoms: C10_24  and  O1_25
ROOT
HETATM    1  N1  UNL     1      -7.327  31.696   4.833  1.00  0.00    -0.171 NA
HETATM    2  C1  UNL     1      -7.549  30.565   4.711  1.00  0.00     0.196 C
HETATM    3  N2  UNL     1      -7.800  29.187   4.580  1.00  0.00    -0.125 N
ATOM      4  H2  UNL     1      -7.098  28.491   4.833  1.00  0.00     0.197 HD
HETATM    5  C2  UNL     1      -9.065  28.808   4.085  1.00  0.00     0.697 C
HETATM    6  N3  UNL     1      -9.241  28.774   2.818  1.00  0.00    -0.148 N
ATOM      7  H3  UNL     1     -10.162  28.498   2.477  1.00  0.00     0.195 HD
HETATM    8  N7  UNL     1     -10.092  28.479   4.948  1.00  0.00    -0.207 N
HETATM    9  C7  UNL     1     -11.196  29.484   5.163  1.00  0.00     0.221 C
HETATM   10  C8  UNL     1     -11.935  29.068   6.300  1.00  0.00    -0.160 C
HETATM   11  C9  UNL     1     -12.489  28.448   7.431  1.00  0.00     0.113 C
HETATM   12  C10 UNL     1     -11.674  27.145   7.731  1.00  0.00     0.130 C
HETATM   13  C11 UNL     1     -10.297  27.168   7.093  1.00  0.00     0.053 C
HETATM   14  C12 UNL     1     -10.122  27.177   5.645  1.00  0.00     0.145 C
ENDROOT
BRANCH   6  15
HETATM   15  C3  UNL     1      -8.264  29.087   1.865  1.00  0.00     0.027 C
HETATM   16  C4  UNL     1      -7.410  29.352   1.056  1.00  0.00    -0.055 C
BRANCH  16  17
HETATM   17  C5  UNL     1      -6.344  29.680   0.081  1.00  0.00     0.329 C
BRANCH  17  18
HETATM   18  N4  UNL     1      -6.116  31.119   0.094  1.00  0.00    -0.048 N
ATOM     19  H42 UNL     1      -5.751  31.468  -0.792  1.00  0.00     0.280 HD
ATOM     20  H41 UNL     1      -6.983  31.656   0.105  1.00  0.00     0.280 HD
BRANCH  18  21
HETATM   21  C6  UNL     1      -5.243  31.429   1.227  1.00  0.00     0.371 C
BRANCH  21  22
HETATM   22  N5  UNL     1      -5.726  32.558   1.956  1.00  0.00    -0.318 N
HETATM   23  N6  UNL     1      -6.957  32.820   1.946  1.00  0.00    -0.348 N
ATOM     24  H62 UNL     1      -7.590  32.221   1.418  1.00  0.00     0.176 HD
ATOM     25  H61 UNL     1      -7.301  33.627   2.466  1.00  0.00     0.176 HD
ATOM     26  H5  UNL     1      -5.078  33.148   2.480  1.00  0.00     0.181 HD
ENDBRANCH  21  22
ENDBRANCH  18  21
ENDBRANCH  17  18
ENDBRANCH  16  17
ENDBRANCH   6  15
BRANCH  12  27
HETATM   27  O1  UNL     1     -12.379  26.121   7.132  1.00  0.00    -0.395 OA
ATOM     28  H1  UNL     1     -11.864  25.864   6.377  1.00  0.00     0.210 HD
ENDBRANCH  12  27
TORSDOF 6
ENDMDL