MODEL 2
REMARK VINA RESULT: -6.838061192      3.355      4.523
REMARK  3 active torsions:
REMARK  status: ('A' for Active; 'I' for Inactive)
REMARK       I    between atoms: C2_4  and  N3_6
REMARK    1  A    between atoms: N3_6  and  C3_8
REMARK    2  A    between atoms: C3_8  and  C4_9
REMARK    3  A    between atoms: C4_9  and  N4_10
REMARK       I    between atoms: N5_13  and  C7_14
REMARK       I    between atoms: C7_14  and  N6_16
REMARK       I    between atoms: C8_18  and  N8_20
ROOT
HETATM    1  N4  UNL     1      -8.025  30.018   2.741  1.00  0.00     0.093 N
HETATM    2  C5  UNL     1      -7.414  29.735   4.002  1.00  0.00     0.292 C
HETATM    3  C6  UNL     1      -8.047  28.418   4.490  1.00  0.00     0.158 C
HETATM    4  N5  UNL     1      -9.436  28.795   4.799  1.00  0.00    -0.331 N
HETATM    5  C7  UNL     1     -10.178  28.046   5.722  1.00  0.00     0.324 C
HETATM    6  O1  UNL     1      -9.635  27.045   6.273  1.00  0.00    -0.247 OA
HETATM    7  N6  UNL     1     -11.511  28.418   6.018  1.00  0.00    -0.283 N
ATOM      8  H6  UNL     1     -12.106  28.715   5.245  1.00  0.00     0.173 HD
HETATM    9  C8  UNL     1     -12.024  28.405   7.205  1.00  0.00     0.191 C
HETATM   10  N7  UNL     1     -11.306  28.014   8.365  1.00  0.00    -0.063 NA
HETATM   11  N8  UNL     1     -13.374  28.800   7.350  1.00  0.00    -0.369 N
ATOM     12  H8  UNL     1     -13.638  29.534   8.008  1.00  0.00     0.161 HD
HETATM   13  C9  UNL     1     -14.378  28.129   6.534  1.00  0.00     0.148 C
HETATM   14  C10 UNL     1     -10.043  29.936   4.158  1.00  0.00     0.158 C
HETATM   15  C11 UNL     1      -9.437  30.295   2.839  1.00  0.00     0.292 C
ENDROOT
BRANCH   1  16
HETATM   16  C4  UNL     1      -7.435  31.141   2.035  1.00  0.00     0.292 C
BRANCH  16  17
HETATM   17  C3  UNL     1      -5.948  31.252   2.246  1.00  0.00     0.152 C
BRANCH  17  18
HETATM   18  N3  UNL     1      -5.481  32.515   1.727  1.00  0.00    -0.363 N
HETATM   19  C2  UNL     1      -4.610  32.606   0.619  1.00  0.00     0.183 C
HETATM   20  N1  UNL     1      -4.975  32.382  -0.605  1.00  0.00    -0.369 N
HETATM   21  N2  UNL     1      -3.232  32.972   0.844  1.00  0.00    -0.064 NA
HETATM   22  C1  UNL     1      -4.035  32.495  -1.705  1.00  0.00     0.148 C
ATOM     23  H1  UNL     1      -5.941  32.122  -0.799  1.00  0.00     0.161 HD
ATOM     24  H3  UNL     1      -5.792  33.375   2.179  1.00  0.00     0.162 HD
ENDBRANCH  17  18
ENDBRANCH  16  17
ENDBRANCH   1  16
TORSDOF 3
ENDMDL