MODEL 5
REMARK VINA RESULT: -6.641042269      2.063      2.834
REMARK  8 active torsions:
REMARK  status: ('A' for Active; 'I' for Inactive)
REMARK    1  A    between atoms: C3_3  and  C5_5
REMARK    2  A    between atoms: C5_5  and  N1_6
REMARK    3  A    between atoms: C6_8  and  N2_10
REMARK       I    between atoms: N3_13  and  C10_14
REMARK    4  A    between atoms: C10_14  and  C11_16
REMARK    5  A    between atoms: C11_16  and  C12_17
REMARK    6  A    between atoms: C12_17  and  C13_18
REMARK    7  A    between atoms: C13_18  and  O2_19
REMARK    8  A    between atoms: N4_21  and  O3_23
ROOT
HETATM    1  C1  UNL     1      25.390   5.055  12.922  1.00  0.00     0.012 C
HETATM    2  C2  UNL     1      24.393   5.208  12.239  1.00  0.00    -0.111 C
HETATM    3  C3  UNL     1      23.202   5.372  11.407  1.00  0.00     0.078 C
HETATM    4  C4  UNL     1      22.236   6.332  12.112  1.00  0.00     0.025 C
ENDROOT
BRANCH   3   5
HETATM    5  C5  UNL     1      22.491   4.024  11.273  1.00  0.00     0.137 C
BRANCH   5   6
HETATM    6  N1  UNL     1      21.221   4.138  11.919  1.00  0.00    -0.379 N
HETATM    7  C6  UNL     1      20.123   3.624  11.539  1.00  0.00     0.071 C
HETATM    8  C7  UNL     1      19.996   2.796  10.319  1.00  0.00     0.088 C
ATOM      9  H1  UNL     1      21.193   4.690  12.775  1.00  0.00     0.160 HD
BRANCH   7  10
HETATM   10  N2  UNL     1      18.968   3.874  12.352  1.00  0.00    -0.368 N
HETATM   11  C8  UNL     1      17.964   2.855  12.450  1.00  0.00     0.144 C
HETATM   12  C9  UNL     1      17.552   2.654  13.915  1.00  0.00     0.145 C
HETATM   13  N3  UNL     1      17.386   3.968  14.476  1.00  0.00    -0.349 N
HETATM   14  C10 UNL     1      16.125   4.327  15.025  1.00  0.00     0.220 C
HETATM   15  C14 UNL     1      18.510   4.874  14.460  1.00  0.00     0.145 C
HETATM   16  O1  UNL     1      15.952   5.477  15.522  1.00  0.00    -0.273 OA
HETATM   17  C15 UNL     1      18.882   5.138  13.025  1.00  0.00     0.144 C
BRANCH  14  18
HETATM   18  C11 UNL     1      15.012   3.348  15.014  1.00  0.00     0.111 C
BRANCH  18  19
HETATM   19  C12 UNL     1      14.719   2.909  16.408  1.00  0.00     0.095 C
BRANCH  19  20
HETATM   20  C13 UNL     1      15.306   1.618  16.798  1.00  0.00     0.135 C
HETATM   21  N4  UNL     1      14.666   0.538  16.993  1.00  0.00    -0.251 N
ATOM     22  H4  UNL     1      13.654   0.570  16.867  1.00  0.00     0.196 HD
BRANCH  20  23
HETATM   23  O2  UNL     1      16.697   1.566  16.972  1.00  0.00    -0.348 OA
ATOM     24  H2  UNL     1      17.171   0.891  16.502  1.00  0.00     0.219 HD
ENDBRANCH  20  23
BRANCH  21  25
HETATM   25  O3  UNL     1      15.202  -0.650  17.352  1.00  0.00    -0.288 OA
ATOM     26  H3  UNL     1      15.160  -1.044  18.215  1.00  0.00     0.244 HD
ENDBRANCH  21  25
ENDBRANCH  19  20
ENDBRANCH  18  19
ENDBRANCH  14  18
ENDBRANCH   7  10
ENDBRANCH   5   6
ENDBRANCH   3   5
TORSDOF 8
ENDMDL