MODEL 5
REMARK VINA RESULT: -7.205158266      2.346      4.696
REMARK  6 active torsions:
REMARK  status: ('A' for Active; 'I' for Inactive)
REMARK    1  A    between atoms: C1_2  and  C2_3
REMARK       I    between atoms: C1_2  and  N3_19
REMARK    2  A    between atoms: C2_3  and  N1_4
REMARK    3  A    between atoms: N1_4  and  C3_6
REMARK    4  A    between atoms: C3_6  and  N2_7
REMARK    5  A    between atoms: C3_6  and  C10_16
REMARK    6  A    between atoms: N2_7  and  C4_10
ROOT
HETATM    1  C3  UNL     1      17.215   1.338  13.273  1.00  0.00     0.288 C
ENDROOT
BRANCH   1   2
HETATM    2  N1  UNL     1      18.333   2.126  12.985  1.00  0.00    -0.367 N
ATOM      3  H1  UNL     1      19.248   1.692  13.106  1.00  0.00     0.161 HD
BRANCH   2   4
HETATM    4  C2  UNL     1      18.315   3.433  12.554  1.00  0.00     0.159 C
BRANCH   4   5
HETATM    5  C1  UNL     1      19.486   4.265  12.849  1.00  0.00     0.258 C
HETATM    6  O1  UNL     1      19.727   4.700  13.990  1.00  0.00    -0.267 OA
HETATM    7  N3  UNL     1      20.381   4.576  11.773  1.00  0.00    -0.344 N
HETATM    8  C13 UNL     1      21.583   5.360  11.985  1.00  0.00     0.152 C
HETATM    9  C16 UNL     1      20.094   4.106  10.450  1.00  0.00     0.152 C
HETATM   10  C14 UNL     1      22.706   4.459  11.434  1.00  0.00     0.187 C
HETATM   11  O2  UNL     1      22.450   4.170  10.114  1.00  0.00    -0.388 OA
HETATM   12  C15 UNL     1      21.357   3.355   9.993  1.00  0.00     0.187 C
ENDBRANCH   4   5
ENDBRANCH   2   4
ENDBRANCH   1   2
BRANCH   1  13
HETATM   13  N2  UNL     1      16.113   2.049  13.843  1.00  0.00    -0.050 N
ATOM     14  H22 UNL     1      16.015   2.978  13.434  1.00  0.00     0.280 HD
ATOM     15  H21 UNL     1      15.221   1.653  13.549  1.00  0.00     0.280 HD
BRANCH  13  16
HETATM   16  C4  UNL     1      16.222   2.112  15.325  1.00  0.00     0.188 C
HETATM   17  C5  UNL     1      16.292   0.741  15.886  1.00  0.00     0.033 C
HETATM   18  C6  UNL     1      15.457   0.505  17.105  1.00  0.00     0.002 C
HETATM   19  C7  UNL     1      14.103   1.168  16.989  1.00  0.00     0.000 C
HETATM   20  C8  UNL     1      14.390   2.647  17.010  1.00  0.00     0.002 C
HETATM   21  C9  UNL     1      15.155   3.023  15.796  1.00  0.00     0.033 C
ENDBRANCH  13  16
ENDBRANCH   1  13
BRANCH   1  22
HETATM   22  C10 UNL     1      16.760   0.551  12.036  1.00  0.00     0.036 A
HETATM   23  C11 UNL     1      17.888  -0.034  11.219  1.00  0.00     0.009 A
HETATM   24  C12 UNL     1      17.058  -0.949  11.989  1.00  0.00     0.009 A
ENDBRANCH   1  22
TORSDOF 6
ENDMDL