MODEL 1
REMARK VINA RESULT: -7.410161462      0.000      0.000
REMARK  5 active torsions:
REMARK  status: ('A' for Active; 'I' for Inactive)
REMARK    1  A    between atoms: N3_9  and  C3_10
REMARK    2  A    between atoms: C3_10  and  C4_11
REMARK    3  A    between atoms: C4_11  and  C5_12
REMARK    4  A    between atoms: N4_18  and  C11_19
REMARK    5  A    between atoms: C11_19  and  C12_20
ROOT
HETATM    1  N1  UNL     1      18.090   0.884  10.796  1.00  0.00    -0.387 N
ATOM      2  H11 UNL     1      18.301   1.639  10.144  1.00  0.00     0.157 HD
ATOM      3  H12 UNL     1      18.374  -0.082  10.638  1.00  0.00     0.157 HD
HETATM    4  C1  UNL     1      17.438   1.166  11.867  1.00  0.00     0.115 C
HETATM    5  N2  UNL     1      17.142   0.112  12.778  1.00  0.00    -0.297 N
ATOM      6  H2  UNL     1      17.202  -0.868  12.504  1.00  0.00     0.172 HD
HETATM    7  C2  UNL     1      16.761   0.500  14.083  1.00  0.00     0.324 C
HETATM    8  O1  UNL     1      16.493  -0.406  14.911  1.00  0.00    -0.247 OA
HETATM    9  N3  UNL     1      16.680   1.867  14.450  1.00  0.00    -0.327 N
HETATM   10  C8  UNL     1      16.917   2.937  13.526  1.00  0.00     0.131 C
HETATM   11  C9  UNL     1      18.256   3.617  13.770  1.00  0.00     0.058 C
HETATM   12  C10 UNL     1      18.387   4.404  12.486  1.00  0.00     0.275 C
HETATM   13  N4  UNL     1      18.035   3.416  11.479  1.00  0.00     0.102 N
HETATM   14  C16 UNL     1      17.027   2.563  12.095  1.00  0.00     0.312 C
ENDROOT
BRANCH  13  15
HETATM   15  C11 UNL     1      17.484   4.069  10.298  1.00  0.00     0.280 C
BRANCH  15  16
HETATM   16  C12 UNL     1      18.533   4.862   9.606  1.00  0.00     0.040 C
HETATM   17  C13 UNL     1      19.678   4.019   9.165  1.00  0.00     0.035 C
HETATM   18  C14 UNL     1      19.847   4.424   7.700  1.00  0.00     0.168 C
HETATM   19  O2  UNL     1      18.538   4.717   7.281  1.00  0.00    -0.391 OA
HETATM   20  C15 UNL     1      17.924   5.397   8.303  1.00  0.00     0.173 C
ENDBRANCH  15  16
ENDBRANCH  13  15
BRANCH   9  21
HETATM   21  C3  UNL     1      16.352   2.183  15.812  1.00  0.00     0.128 C
BRANCH  21  22
HETATM   22  C4  UNL     1      14.915   2.613  16.015  1.00  0.00     0.024 C
BRANCH  22  23
HETATM   23  C5  UNL     1      14.336   1.709  17.097  1.00  0.00    -0.013 A
HETATM   24  C6  UNL     1      14.764   1.988  18.515  1.00  0.00     0.005 A
HETATM   25  C7  UNL     1      15.206   0.736  17.812  1.00  0.00     0.005 A
ENDBRANCH  22  23
ENDBRANCH  21  22
ENDBRANCH   9  21
TORSDOF 5
ENDMDL