MODEL 4
REMARK VINA RESULT: -6.961497759      0.533      1.055
REMARK  5 active torsions:
REMARK  status: ('A' for Active; 'I' for Inactive)
REMARK       I    between atoms: N1_2  and  C3_4
REMARK    1  A    between atoms: C3_4  and  C4_6
REMARK    2  A    between atoms: C4_6  and  N2_7
REMARK    3  A    between atoms: C4_6  and  C8_12
REMARK    4  A    between atoms: N2_7  and  C5_9
REMARK       I    between atoms: C8_12  and  N3_14
REMARK    5  A    between atoms: N3_14  and  C9_16
ROOT
HETATM    1  C8  UNL     1      17.207   2.942  14.238  1.00  0.00     0.250 C
HETATM    2  O2  UNL     1      18.248   2.860  14.981  1.00  0.00    -0.271 OA
HETATM    3  N3  UNL     1      17.055   3.979  13.301  1.00  0.00    -0.350 N
ATOM      4  H3  UNL     1      16.197   3.984  12.750  1.00  0.00     0.163 HD
ENDROOT
BRANCH   1   5
HETATM    5  C4  UNL     1      16.192   1.881  14.442  1.00  0.00     0.263 C
BRANCH   5   6
HETATM    6  C3  UNL     1      16.556   0.601  13.800  1.00  0.00     0.251 C
HETATM    7  N1  UNL     1      16.699   0.379  12.440  1.00  0.00    -0.359 N
HETATM    8  C1  UNL     1      16.507   1.427  11.475  1.00  0.00     0.152 C
HETATM    9  C2  UNL     1      17.020  -0.943  11.913  1.00  0.00     0.152 C
HETATM   10  O1  UNL     1      16.750  -0.392  14.588  1.00  0.00    -0.271 OA
ENDBRANCH   5   6
BRANCH   5  11
HETATM   11  N2  UNL     1      16.109   1.694  15.885  1.00  0.00    -0.398 N
ATOM     12  H2  UNL     1      16.889   1.325  16.429  1.00  0.00     0.154 HD
BRANCH  11  13
HETATM   13  C5  UNL     1      14.891   2.053  16.481  1.00  0.00     0.077 A
HETATM   14  C6  UNL     1      14.161   0.894  17.153  1.00  0.00     0.027 A
HETATM   15  C7  UNL     1      14.799   1.939  17.998  1.00  0.00     0.027 A
ENDBRANCH  11  13
ENDBRANCH   5  11
ENDBRANCH   1   5
BRANCH   3  16
HETATM   16  C9  UNL     1      17.997   5.027  13.051  1.00  0.00     0.034 C
HETATM   17  C10 UNL     1      17.868   6.110  14.078  1.00  0.00     0.035 C
HETATM   18  C11 UNL     1      18.748   7.298  13.734  1.00  0.00    -0.012 C
HETATM   19  C12 UNL     1      20.178   6.821  13.766  1.00  0.00     0.009 C
HETATM   20  C16 UNL     1      18.355   7.814  12.388  1.00  0.00     0.009 C
HETATM   21  C13 UNL     1      20.328   5.719  12.761  1.00  0.00    -0.012 C
HETATM   22  C14 UNL     1      20.089   6.280  11.386  1.00  0.00     0.009 C
HETATM   23  C18 UNL     1      19.434   4.544  13.083  1.00  0.00     0.035 C
HETATM   24  C15 UNL     1      18.638   6.758  11.351  1.00  0.00    -0.012 C
HETATM   25  C17 UNL     1      17.775   5.565  11.647  1.00  0.00     0.035 C
ENDBRANCH   3  16
TORSDOF 5
ENDMDL