MODEL 2
REMARK VINA RESULT: -6.703214650      2.361      5.188
REMARK  8 active torsions:
REMARK  status: ('A' for Active; 'I' for Inactive)
REMARK    1  A    between atoms: C2_2  and  N1_3
REMARK    2  A    between atoms: C2_2  and  C13_21
REMARK    3  A    between atoms: N1_3  and  C3_6
REMARK    4  A    between atoms: C3_6  and  C4_7
REMARK    5  A    between atoms: C3_6  and  C5_10
REMARK    6  A    between atoms: C4_7  and  O1_8
REMARK    7  A    between atoms: C5_10  and  O3_12
REMARK    8  A    between atoms: O3_12  and  C6_13
ROOT
HETATM    1  C3  UNL     1      16.724   1.565  12.594  1.00  0.00     0.308 C
ENDROOT
BRANCH   1   2
HETATM    2  N1  UNL     1      16.750   0.957  13.899  1.00  0.00    -0.056 N
ATOM      3  H12 UNL     1      17.542   0.318  13.985  1.00  0.00     0.278 HD
ATOM      4  H11 UNL     1      15.985   0.292  14.003  1.00  0.00     0.278 HD
BRANCH   2   5
HETATM    5  C2  UNL     1      16.747   1.914  14.979  1.00  0.00     0.187 C
HETATM    6  C1  UNL     1      17.887   1.635  15.962  1.00  0.00     0.040 C
BRANCH   5   7
HETATM    7  C13 UNL     1      15.467   1.847  15.739  1.00  0.00     0.016 C
HETATM    8  C14 UNL     1      14.930   3.191  16.131  1.00  0.00     0.007 C
HETATM    9  C15 UNL     1      13.949   2.775  17.242  1.00  0.00     0.000 C
HETATM   10  C16 UNL     1      14.864   1.867  18.077  1.00  0.00     0.000 C
HETATM   11  C17 UNL     1      15.547   1.042  17.005  1.00  0.00     0.007 C
ENDBRANCH   5   7
ENDBRANCH   2   5
ENDBRANCH   1   2
BRANCH   1  12
HETATM   12  C4  UNL     1      16.373   0.620  11.491  1.00  0.00     0.207 C
BRANCH  12  13
HETATM   13  O1  UNL     1      16.083   1.276  10.293  1.00  0.00    -0.398 OA
ATOM     14  H1  UNL     1      16.567   0.923   9.556  1.00  0.00     0.209 HD
ENDBRANCH  12  13
ENDBRANCH   1  12
BRANCH   1  15
HETATM   15  C5  UNL     1      17.950   2.356  12.370  1.00  0.00     0.294 C
HETATM   16  O2  UNL     1      19.038   1.747  12.230  1.00  0.00    -0.263 OA
BRANCH  15  17
HETATM   17  O3  UNL     1      17.989   3.726  12.302  1.00  0.00    -0.285 OA
BRANCH  17  18
HETATM   18  C6  UNL     1      18.504   4.531  13.341  1.00  0.00     0.338 C
HETATM   19  C7  UNL     1      17.310   5.368  13.819  1.00  0.00     0.046 C
HETATM   20  C8  UNL     1      16.986   6.059  12.497  1.00  0.00     0.037 C
HETATM   21  C12 UNL     1      17.999   6.323  14.731  1.00  0.00     0.037 C
HETATM   22  C9  UNL     1      18.360   6.152  11.821  1.00  0.00     0.240 C
HETATM   23  N2  UNL     1      19.272   5.676  12.815  1.00  0.00    -0.044 N
HETATM   24  C10 UNL     1      20.561   5.304  12.369  1.00  0.00     0.275 C
HETATM   25  C11 UNL     1      19.304   6.584  13.966  1.00  0.00     0.240 C
ENDBRANCH  17  18
ENDBRANCH  15  17
ENDBRANCH   1  15
TORSDOF 8
ENDMDL