MODEL 5
REMARK VINA RESULT: -6.579182020      3.402      4.039
REMARK  6 active torsions:
REMARK  status: ('A' for Active; 'I' for Inactive)
REMARK    1  A    between atoms: C2_2  and  C3_3
REMARK    2  A    between atoms: C3_3  and  C4_4
REMARK    3  A    between atoms: C4_4  and  O1_5
REMARK    4  A    between atoms: N1_9  and  C7_10
REMARK    5  A    between atoms: N3_18  and  C11_19
REMARK    6  A    between atoms: C11_19  and  C12_20
ROOT
HETATM    1  C7  UNL     1      18.520   5.739  12.909  1.00  0.00     0.266 C
HETATM    2  C8  UNL     1      19.666   5.166  13.705  1.00  0.00     0.270 C
HETATM    3  N2  UNL     1      20.660   4.563  12.817  1.00  0.00    -0.065 N
ATOM      4  H21 UNL     1      20.314   3.705  12.388  1.00  0.00     0.277 HD
ATOM      5  H22 UNL     1      21.443   4.168  13.337  1.00  0.00     0.277 HD
HETATM    6  C9  UNL     1      21.102   5.529  11.820  1.00  0.00     0.334 C
HETATM    7  C10 UNL     1      21.056   6.875  12.450  1.00  0.00     0.245 C
HETATM    8  O2  UNL     1      22.195   7.377  12.664  1.00  0.00    -0.272 OA
HETATM    9  N3  UNL     1      19.951   7.670  12.841  1.00  0.00    -0.348 N
HETATM   10  C15 UNL     1      18.585   7.247  13.024  1.00  0.00     0.163 C
ENDROOT
BRANCH   1  11
HETATM   11  N1  UNL     1      17.271   5.164  13.293  1.00  0.00     0.096 N
HETATM   12  C6  UNL     1      17.086   5.358  14.716  1.00  0.00     0.276 C
HETATM   13  C5  UNL     1      15.735   4.846  15.173  1.00  0.00     0.068 C
HETATM   14  C4  UNL     1      15.698   3.361  14.990  1.00  0.00     0.061 C
HETATM   15  C17 UNL     1      16.823   2.889  14.099  1.00  0.00     0.068 C
HETATM   16  C16 UNL     1      17.053   3.810  12.923  1.00  0.00     0.276 C
BRANCH  14  17
HETATM   17  C3  UNL     1      15.648   2.590  16.260  1.00  0.00     0.037 C
BRANCH  17  18
HETATM   18  C2  UNL     1      14.279   2.364  16.808  1.00  0.00    -0.002 C
HETATM   19  C1  UNL     1      14.075   0.905  17.146  1.00  0.00     0.005 C
ENDBRANCH  17  18
ENDBRANCH  14  17
BRANCH  14  20
HETATM   20  O1  UNL     1      14.513   3.054  14.278  1.00  0.00    -0.390 OA
ATOM     21  H1  UNL     1      14.744   2.396  13.632  1.00  0.00     0.210 HD
ENDBRANCH  14  20
ENDBRANCH   1  11
BRANCH   9  22
HETATM   22  C11 UNL     1      20.209   9.070  13.069  1.00  0.00     0.129 C
BRANCH  22  23
HETATM   23  C12 UNL     1      19.620   9.628  14.322  1.00  0.00    -0.005 C
HETATM   24  C13 UNL     1      20.685   9.529  15.417  1.00  0.00     0.011 C
HETATM   25  C14 UNL     1      19.230  11.080  14.244  1.00  0.00     0.011 C
ENDBRANCH  22  23
ENDBRANCH   9  22
TORSDOF 6
ENDMDL