MODEL 1
REMARK VINA RESULT: -6.315287572      0.000      0.000
REMARK  6 active torsions:
REMARK  status: ('A' for Active; 'I' for Inactive)
REMARK    1  A    between atoms: N1_2  and  C2_5
REMARK    2  A    between atoms: C2_5  and  C4_7
REMARK       I    between atoms: C4_7  and  N2_9
REMARK    3  A    between atoms: C8_13  and  N3_14
REMARK    4  A    between atoms: N3_14  and  C9_16
REMARK    5  A    between atoms: C9_16  and  C10_17
REMARK    6  A    between atoms: C9_16  and  C13_20
ROOT
HETATM    1  C4  UNL     1      19.712   3.339  11.090  1.00  0.00     0.250 C
HETATM    2  O1  UNL     1      19.918   4.406  11.748  1.00  0.00    -0.271 OA
HETATM    3  N2  UNL     1      18.770   2.375  11.612  1.00  0.00    -0.348 N
HETATM    4  C5  UNL     1      18.470   1.173  10.885  1.00  0.00     0.126 C
HETATM    5  C6  UNL     1      17.043   0.734  11.035  1.00  0.00     0.022 C
HETATM    6  C7  UNL     1      16.692   0.788  12.509  1.00  0.00     0.028 C
HETATM    7  C8  UNL     1      16.663   2.247  12.867  1.00  0.00     0.095 C
HETATM    8  C17 UNL     1      18.153   2.652  12.914  1.00  0.00     0.150 C
ENDROOT
BRANCH   7   9
HETATM    9  N3  UNL     1      15.905   2.759  13.853  1.00  0.00    -0.410 N
ATOM     10  H3  UNL     1      14.920   2.799  13.591  1.00  0.00     0.154 HD
BRANCH   9  11
HETATM   11  C9  UNL     1      16.117   3.249  15.135  1.00  0.00     0.088 C
BRANCH  11  12
HETATM   12  C10 UNL     1      15.951   4.701  15.274  1.00  0.00     0.000 C
HETATM   13  C11 UNL     1      17.102   5.601  14.855  1.00  0.00     0.011 C
HETATM   14  C12 UNL     1      14.890   5.163  14.183  1.00  0.00     0.011 C
ENDBRANCH  11  12
BRANCH  11  15
HETATM   15  C13 UNL     1      15.443   2.365  16.180  1.00  0.00    -0.024 A
HETATM   16  C14 UNL     1      14.264   2.885  16.927  1.00  0.00     0.017 C
HETATM   17  C15 UNL     1      15.582   0.875  16.038  1.00  0.00     0.012 A
HETATM   18  C16 UNL     1      16.435   1.551  17.005  1.00  0.00     0.012 A
ENDBRANCH  11  15
ENDBRANCH   9  11
ENDBRANCH   7   9
BRANCH   1  19
HETATM   19  C2  UNL     1      20.386   3.038   9.821  1.00  0.00     0.272 C
HETATM   20  C3  UNL     1      21.838   3.471   9.947  1.00  0.00     0.050 C
BRANCH  19  21
HETATM   21  N1  UNL     1      19.792   3.943   8.823  1.00  0.00    -0.067 N
HETATM   22  C1  UNL     1      20.616   3.985   7.629  1.00  0.00     0.267 C
ATOM     23  H12 UNL     1      19.626   4.874   9.205  1.00  0.00     0.277 HD
ATOM     24  H11 UNL     1      18.826   3.693   8.611  1.00  0.00     0.277 HD
ENDBRANCH  19  21
ENDBRANCH   1  19
TORSDOF 6
ENDMDL