MODEL 4
REMARK VINA RESULT: -7.241220599      1.325      1.799
REMARK  7 active torsions:
REMARK  status: ('A' for Active; 'I' for Inactive)
REMARK    1  A    between atoms: C1_4  and  C2_5
REMARK    2  A    between atoms: C1_4  and  N4_22
REMARK    3  A    between atoms: C2_5  and  C3_6
REMARK    4  A    between atoms: C2_5  and  C9_12
REMARK    5  A    between atoms: C3_6  and  C4_7
REMARK    6  A    between atoms: C9_12  and  N2_13
REMARK    7  A    between atoms: C12_16  and  N3_17
ROOT
HETATM    1  C2  UNL     1      16.119   3.951  13.888  1.00  0.00     0.081 C
ENDROOT
BRANCH   1   2
HETATM    2  C1  UNL     1      16.696   5.351  13.706  1.00  0.00     0.078 C
HETATM    3  N1  UNL     1      17.486   5.852  14.577  1.00  0.00    -0.389 N
ATOM      4  H12 UNL     1      17.720   5.291  15.397  1.00  0.00     0.157 HD
ATOM      5  H11 UNL     1      17.872   6.787  14.455  1.00  0.00     0.157 HD
BRANCH   2   6
HETATM    6  N4  UNL     1      16.373   6.125  12.573  1.00  0.00    -0.371 N
HETATM    7  C14 UNL     1      17.322   6.672  11.633  1.00  0.00     0.124 C
HETATM    8  C15 UNL     1      16.592   7.707  10.821  1.00  0.00     0.021 C
HETATM    9  C16 UNL     1      15.148   7.307  10.934  1.00  0.00     0.021 C
HETATM   10  C17 UNL     1      15.024   6.484  12.196  1.00  0.00     0.124 C
ENDBRANCH   2   6
ENDBRANCH   1   2
BRANCH   1  11
HETATM   11  C3  UNL     1      15.960   3.793  15.346  1.00  0.00     0.018 C
BRANCH  11  12
HETATM   12  C4  UNL     1      15.391   2.626  15.959  1.00  0.00    -0.014 C
HETATM   13  C5  UNL     1      14.304   2.691  16.956  1.00  0.00     0.005 C
HETATM   14  C6  UNL     1      13.977   1.167  17.032  1.00  0.00     0.000 C
HETATM   15  C7  UNL     1      15.369   0.533  17.001  1.00  0.00     0.000 C
HETATM   16  C8  UNL     1      16.347   1.671  16.673  1.00  0.00     0.005 C
ENDBRANCH  11  12
ENDBRANCH   1  11
BRANCH   1  17
HETATM   17  C9  UNL     1      17.102   2.976  13.263  1.00  0.00     0.284 C
BRANCH  17  18
HETATM   18  N2  UNL     1      16.390   1.799  12.742  1.00  0.00     0.091 N
HETATM   19  C10 UNL     1      16.488   1.922  11.279  1.00  0.00     0.274 C
HETATM   20  C11 UNL     1      16.275   0.522  10.753  1.00  0.00     0.064 C
HETATM   21  C12 UNL     1      16.779  -0.364  11.865  1.00  0.00     0.213 C
HETATM   22  C13 UNL     1      17.183   0.602  12.958  1.00  0.00     0.305 C
BRANCH  21  23
HETATM   23  N3  UNL     1      17.900  -1.156  11.434  1.00  0.00    -0.073 N
ATOM     24  H33 UNL     1      17.824  -1.408  10.449  1.00  0.00     0.274 HD
ATOM     25  H32 UNL     1      18.755  -0.602  11.389  1.00  0.00     0.274 HD
ATOM     26  H31 UNL     1      18.019  -1.980  12.023  1.00  0.00     0.274 HD
ENDBRANCH  21  23
ENDBRANCH  17  18
ENDBRANCH   1  17
TORSDOF 7
ENDMDL