MODEL 5
REMARK VINA RESULT: -5.975348924      2.037      3.487
REMARK  2 active torsions:
REMARK  status: ('A' for Active; 'I' for Inactive)
REMARK    1  A    between atoms: O1_2  and  C2_3
REMARK       I    between atoms: C2_3  and  N1_5
REMARK    2  A    between atoms: N1_5  and  C3_7
ROOT
HETATM    1  C3  UNL     1       1.573 -11.743  -5.679  1.00  0.00     0.091 C
HETATM    2  C4  UNL     1       1.503 -13.203  -5.337  1.00  0.00     0.026 C
HETATM    3  C5  UNL     1       1.415 -13.496  -3.885  1.00  0.00     0.003 C
HETATM    4  C6  UNL     1       1.802 -12.371  -2.984  1.00  0.00     0.010 C
HETATM    5  C7  UNL     1       2.913 -11.556  -3.561  1.00  0.00    -0.032 C
HETATM    6  C8  UNL     1       4.177 -12.393  -3.647  1.00  0.00     0.016 C
HETATM    7  C9  UNL     1       2.564 -10.971  -4.880  1.00  0.00     0.017 C
HETATM    8  C10 UNL     1       2.010  -9.591  -4.560  1.00  0.00     0.008 C
HETATM    9  C11 UNL     1       2.577  -9.197  -3.225  1.00  0.00     0.010 C
HETATM   10  C12 UNL     1       3.189 -10.407  -2.615  1.00  0.00    -0.040 C
HETATM   11  C13 UNL     1       4.692 -10.166  -2.457  1.00  0.00     0.015 C
HETATM   12  C14 UNL     1       2.650 -10.672  -1.230  1.00  0.00     0.015 C
ENDROOT
BRANCH   1  13
HETATM   13  N1  UNL     1       1.941 -11.638  -7.077  1.00  0.00    -0.332 N
HETATM   14  C2  UNL     1       1.199 -10.834  -7.982  1.00  0.00     0.360 C
HETATM   15  O2  UNL     1       0.194 -10.184  -7.603  1.00  0.00    -0.239 OA
ATOM     16  H1  UNL     1       2.753 -12.153  -7.418  1.00  0.00     0.165 HD
BRANCH  14  17
HETATM   17  O1  UNL     1       1.549 -10.733  -9.319  1.00  0.00    -0.309 OA
HETATM   18  C1  UNL     1       2.397 -11.658  -9.974  1.00  0.00     0.215 C
ENDBRANCH  14  17
ENDBRANCH   1  13
TORSDOF 2
ENDMDL