MODEL 1
REMARK VINA RESULT: -6.101984855      0.000      0.000
REMARK  2 active torsions:
REMARK  status: ('A' for Active; 'I' for Inactive)
REMARK    1  A    between atoms: C5_6  and  O1_7
REMARK    2  A    between atoms: C5_6  and  C6_9
ROOT
HETATM    1  C1  UNL     1       7.448 -11.444  -3.662  1.00  0.00     0.014 C
HETATM    2  C2  UNL     1       6.307 -11.024  -3.558  1.00  0.00    -0.090 C
HETATM    3  C3  UNL     1       4.944 -10.495  -3.427  1.00  0.00     0.109 C
HETATM    4 CL1  UNL     1       5.077  -8.811  -2.911  1.00  0.00    -0.104 Cl
HETATM    5  C4  UNL     1       4.310 -10.555  -4.797  1.00  0.00     0.078 C
HETATM    6  C5  UNL     1       2.833 -10.308  -4.772  1.00  0.00     0.067 C
HETATM    7  C8  UNL     1       2.124 -11.173  -3.792  1.00  0.00     0.049 C
HETATM    8  C9  UNL     1       2.728 -10.914  -2.424  1.00  0.00     0.024 C
HETATM    9  C10 UNL     1       4.177 -11.337  -2.426  1.00  0.00    -0.010 C
HETATM   10  C11 UNL     1       4.717 -11.011  -1.033  1.00  0.00     0.018 C
HETATM   11  C12 UNL     1       4.346 -12.775  -2.765  1.00  0.00     0.016 C
HETATM   12  C13 UNL     1       3.177 -13.471  -3.351  1.00  0.00     0.034 C
HETATM   13  C14 UNL     1       2.175 -12.614  -4.022  1.00  0.00    -0.082 C
HETATM   14  C15 UNL     1       1.327 -13.204  -4.831  1.00  0.00     0.015 C
ENDROOT
BRANCH   6  15
HETATM   15  O1  UNL     1       2.587  -8.976  -4.344  1.00  0.00    -0.389 OA
ATOM     16  H1  UNL     1       1.903  -8.979  -3.686  1.00  0.00     0.210 HD
ENDBRANCH   6  15
BRANCH   6  17
HETATM   17  C6  UNL     1       2.289 -10.479  -6.158  1.00  0.00     0.034 C
HETATM   18  C7  UNL     1       3.416 -10.437  -7.186  1.00  0.00     0.008 C
ENDBRANCH   6  17
TORSDOF 2
ENDMDL