MODEL 4
REMARK VINA RESULT: -5.457798110      1.439      2.914
REMARK  2 active torsions:
REMARK  status: ('A' for Active; 'I' for Inactive)
REMARK    1  A    between atoms: C2_2  and  C4_5
REMARK       I    between atoms: C4_5  and  N1_7
REMARK    2  A    between atoms: N1_7  and  C5_9
ROOT
HETATM    1  C5  UNL     1       2.718 -11.673  -4.157  1.00  0.00     0.100 C
HETATM    2  C6  UNL     1       2.666 -10.440  -3.315  1.00  0.00    -0.026 C
HETATM    3  C7  UNL     1       2.120  -9.266  -4.145  1.00  0.00     0.017 C
HETATM    4  C8  UNL     1       4.053  -9.994  -2.864  1.00  0.00     0.017 C
HETATM    5  C9  UNL     1       1.826 -10.531  -2.094  1.00  0.00     0.011 C
HETATM    6  C10 UNL     1       1.952 -11.844  -1.356  1.00  0.00     0.002 C
HETATM    7  C11 UNL     1       1.458 -12.882  -2.337  1.00  0.00     0.011 C
HETATM    8  C12 UNL     1       2.382 -12.951  -3.488  1.00  0.00    -0.026 C
HETATM    9  C13 UNL     1       1.740 -13.908  -4.506  1.00  0.00     0.017 C
HETATM   10  C14 UNL     1       3.638 -13.688  -3.008  1.00  0.00     0.017 C
ENDROOT
BRANCH   1  11
HETATM   11  N1  UNL     1       1.914 -11.561  -5.359  1.00  0.00    -0.353 N
HETATM   12  C4  UNL     1       2.432 -11.159  -6.618  1.00  0.00     0.241 C
HETATM   13  O1  UNL     1       3.659 -10.893  -6.652  1.00  0.00    -0.271 OA
ATOM     14  H1  UNL     1       0.921 -11.784  -5.296  1.00  0.00     0.163 HD
BRANCH  12  15
HETATM   15  C2  UNL     1       1.653 -11.036  -7.841  1.00  0.00     0.110 C
HETATM   16  C1  UNL     1       0.489 -10.099  -7.571  1.00  0.00     0.042 C
HETATM   17  C3  UNL     1       1.116 -12.346  -8.357  1.00  0.00     0.042 C
HETATM   18 CL1  UNL     1       2.628 -10.293  -9.125  1.00  0.00    -0.110 Cl
ENDBRANCH  12  15
ENDBRANCH   1  11
TORSDOF 2
ENDMDL