MODEL 3
REMARK VINA RESULT: -6.285161622      3.303      6.570
REMARK  1 active torsions:
REMARK  status: ('A' for Active; 'I' for Inactive)
REMARK    1  A    between atoms: C11_11  and  N1_12
REMARK       I    between atoms: N1_12  and  C12_14
REMARK       I    between atoms: C12_14  and  N2_16
ROOT
HETATM    1  C1  UNL     1       4.576 -10.503  -5.368  1.00  0.00     0.012 C
HETATM    2  C2  UNL     1       3.406 -11.179  -6.050  1.00  0.00     0.004 C
HETATM    3  C3  UNL     1       2.854 -10.171  -7.041  1.00  0.00     0.006 C
HETATM    4  C4  UNL     1       3.571 -10.196  -8.356  1.00  0.00     0.000 C
HETATM    5  C5  UNL     1       3.419 -11.457  -9.145  1.00  0.00     0.000 C
HETATM    6  C6  UNL     1       2.066 -11.794  -9.600  1.00  0.00     0.000 C
HETATM    7  C7  UNL     1       1.167 -12.598  -8.763  1.00  0.00     0.000 C
HETATM    8  C8  UNL     1       1.696 -13.570  -7.815  1.00  0.00     0.000 C
HETATM    9  C9  UNL     1       1.306 -13.494  -6.379  1.00  0.00     0.002 C
HETATM   10  C10 UNL     1       1.114 -12.186  -5.744  1.00  0.00     0.026 C
HETATM   11  C11 UNL     1       2.322 -11.537  -5.111  1.00  0.00     0.089 C
ENDROOT
BRANCH  11  12
HETATM   12  N1  UNL     1       2.660 -12.285  -3.948  1.00  0.00    -0.338 N
HETATM   13  C12 UNL     1       2.447 -11.975  -2.607  1.00  0.00     0.317 C
HETATM   14  O1  UNL     1       1.883 -10.909  -2.189  1.00  0.00    -0.247 OA
HETATM   15  N2  UNL     1       2.850 -12.842  -1.557  1.00  0.00    -0.343 N
HETATM   16  C13 UNL     1       2.660 -12.579  -0.154  1.00  0.00     0.154 C
HETATM   17  C14 UNL     1       3.509 -14.092  -1.956  1.00  0.00     0.154 C
ATOM     18  H1  UNL     1       3.124 -13.176  -4.122  1.00  0.00     0.164 HD
ENDBRANCH  11  12
TORSDOF 1
ENDMDL