MODEL 4
REMARK VINA RESULT: -5.421958369      2.527      4.538
REMARK  2 active torsions:
REMARK  status: ('A' for Active; 'I' for Inactive)
REMARK    1  A    between atoms: C2_2  and  C3_3
REMARK    2  A    between atoms: C12_13  and  O1_14
ROOT
HETATM    1  C3  UNL     1       4.478 -11.180  -3.380  1.00  0.00    -0.023 C
HETATM    2  C4  UNL     1       4.092 -10.052  -2.430  1.00  0.00     0.020 C
HETATM    3  C5  UNL     1       5.165 -12.301  -2.693  1.00  0.00     0.015 C
HETATM    4  C6  UNL     1       4.352 -13.470  -2.319  1.00  0.00     0.022 C
HETATM    5  C7  UNL     1       3.232 -13.813  -3.245  1.00  0.00     0.090 C
HETATM    6 CL1  UNL     1       2.207 -15.040  -2.454  1.00  0.00    -0.124 Cl
HETATM    7  C8  UNL     1       2.399 -12.583  -3.596  1.00  0.00    -0.022 C
HETATM    8  C9  UNL     1       1.785 -12.090  -2.324  1.00  0.00     0.017 C
HETATM    9  C10 UNL     1       1.308 -12.951  -4.546  1.00  0.00     0.013 C
HETATM   10  C11 UNL     1       1.468 -12.463  -5.940  1.00  0.00     0.032 C
HETATM   11  C12 UNL     1       1.902 -11.041  -6.078  1.00  0.00     0.118 C
HETATM   12  C13 UNL     1       2.553 -10.496  -4.823  1.00  0.00     0.038 C
HETATM   13  C14 UNL     1       3.348 -11.622  -4.236  1.00  0.00     0.009 C
ENDROOT
BRANCH   1  14
HETATM   14  C2  UNL     1       5.501 -10.569  -4.323  1.00  0.00    -0.027 C
HETATM   15  C1  UNL     1       6.772 -10.475  -3.958  1.00  0.00     0.007 C
ENDBRANCH   1  14
BRANCH  11  16
HETATM   16  O1  UNL     1       0.904 -10.203  -6.563  1.00  0.00    -0.396 OA
ATOM     17  H1  UNL     1       1.003  -9.299  -6.287  1.00  0.00     0.210 HD
ENDBRANCH  11  16
TORSDOF 2
ENDMDL