MODEL 2
REMARK VINA RESULT: -5.801336308      2.161      4.817
REMARK  2 active torsions:
REMARK  status: ('A' for Active; 'I' for Inactive)
REMARK    1  A    between atoms: C2_2  and  N1_5
REMARK    2  A    between atoms: N1_5  and  C4_7
ROOT
HETATM    1  C4  UNL     1       2.166 -10.708  -9.327  1.00  0.00     0.086 C
HETATM    2  C5  UNL     1       0.802 -10.987  -8.717  1.00  0.00     0.009 C
HETATM    3  C6  UNL     1       0.484 -10.043  -7.599  1.00  0.00     0.011 C
HETATM    4  C7  UNL     1       1.484 -10.283  -6.495  1.00  0.00    -0.014 C
HETATM    5  C8  UNL     1       1.105 -11.490  -5.662  1.00  0.00     0.005 C
HETATM    6  C9  UNL     1       1.804 -12.745  -6.078  1.00  0.00     0.005 C
HETATM    7  C10 UNL     1       1.864 -12.964  -7.555  1.00  0.00    -0.014 C
HETATM    8  C11 UNL     1       0.697 -12.434  -8.316  1.00  0.00     0.011 C
HETATM    9  C12 UNL     1       3.199 -12.480  -8.047  1.00  0.00     0.011 C
HETATM   10  C13 UNL     1       3.172 -10.970  -8.245  1.00  0.00     0.009 C
HETATM   11  C14 UNL     1       2.900 -10.295  -6.951  1.00  0.00     0.011 C
ENDROOT
BRANCH   1  12
HETATM   12  N1  UNL     1       2.333 -11.668 -10.386  1.00  0.00    -0.396 N
ATOM     13  H1  UNL     1       1.914 -12.596 -10.347  1.00  0.00     0.155 HD
BRANCH  12  14
HETATM   14  C2  UNL     1       3.121 -11.239 -11.490  1.00  0.00     0.096 C
HETATM   15  C1  UNL     1       2.530 -11.554 -12.837  1.00  0.00     0.055 C
HETATM   16  C3  UNL     1       3.159  -9.699 -11.414  1.00  0.00     0.055 C
HETATM   17 CL1  UNL     1       4.799 -11.780 -11.465  1.00  0.00    -0.097 Cl
ENDBRANCH  12  14
ENDBRANCH   1  12
TORSDOF 2
ENDMDL