MODEL 5
REMARK VINA RESULT: -6.091528687      2.496      4.539
REMARK  2 active torsions:
REMARK  status: ('A' for Active; 'I' for Inactive)
REMARK    1  A    between atoms: C8_8  and  O1_9
REMARK    2  A    between atoms: C10_12  and  N1_13
ROOT
HETATM    1  C1  UNL     1       1.024 -13.166  -8.598  1.00  0.00     0.015 C
HETATM    2  C2  UNL     1       1.655 -12.109  -8.099  1.00  0.00    -0.084 C
HETATM    3  C3  UNL     1       1.726 -10.857  -8.895  1.00  0.00     0.034 C
HETATM    4  C4  UNL     1       2.960 -10.060  -8.653  1.00  0.00     0.005 C
HETATM    5  C5  UNL     1       3.638 -10.337  -7.350  1.00  0.00     0.012 C
HETATM    6  C6  UNL     1       2.690 -10.875  -6.292  1.00  0.00    -0.011 C
HETATM    7  C7  UNL     1       1.554  -9.948  -6.031  1.00  0.00     0.018 C
HETATM    8  C8  UNL     1       3.532 -11.143  -5.045  1.00  0.00     0.128 C
HETATM    9  C9  UNL     1       2.780 -11.848  -3.976  1.00  0.00     0.053 C
HETATM   10  C10 UNL     1       1.505 -12.479  -4.372  1.00  0.00     0.077 C
HETATM   11  C12 UNL     1       1.420 -12.972  -5.772  1.00  0.00     0.031 C
HETATM   12  C13 UNL     1       2.257 -12.247  -6.759  1.00  0.00     0.026 C
ENDROOT
BRANCH  10  13
HETATM   13  N1  UNL     1       1.189 -13.537  -3.424  1.00  0.00    -0.228 NA
HETATM   14  C11 UNL     1       1.938 -14.732  -3.645  1.00  0.00     0.131 C
HETATM   15 CL1  UNL     1       1.184 -13.002  -1.791  1.00  0.00    -0.022 Cl
ENDBRANCH  10  13
BRANCH   8  16
HETATM   16  O1  UNL     1       4.111  -9.947  -4.611  1.00  0.00    -0.395 OA
ATOM     17  H1  UNL     1       5.056 -10.013  -4.675  1.00  0.00     0.210 HD
ENDBRANCH   8  16
TORSDOF 2
ENDMDL