MODEL 5
REMARK VINA RESULT: -5.791844823      2.973      5.572
REMARK  4 active torsions:
REMARK  status: ('A' for Active; 'I' for Inactive)
REMARK    1  A    between atoms: C2_2  and  N1_5
REMARK    2  A    between atoms: N1_5  and  C5_7
REMARK    3  A    between atoms: C10_12  and  C11_13
REMARK    4  A    between atoms: C12_14  and  C13_15
ROOT
HETATM    1  C5  UNL     1       2.877 -10.253  -6.546  1.00  0.00     0.079 C
HETATM    2  C6  UNL     1       1.484  -9.805  -6.366  1.00  0.00     0.025 C
HETATM    3  C7  UNL     1       0.493 -10.433  -7.316  1.00  0.00     0.008 C
HETATM    4  C8  UNL     1       1.061 -10.980  -8.571  1.00  0.00     0.008 A
HETATM    5  C9  UNL     1       1.068 -12.514  -8.677  1.00  0.00     0.029 A
HETATM    6  C10 UNL     1       2.324 -11.740  -8.474  1.00  0.00     0.029 A
HETATM    7  C14 UNL     1       2.852 -11.698  -7.089  1.00  0.00     0.047 C
ENDROOT
BRANCH   1   8
HETATM    8  N1  UNL     1       3.755 -10.255  -5.459  1.00  0.00    -0.409 N
ATOM      9  H1  UNL     1       4.693  -9.872  -5.576  1.00  0.00     0.154 HD
BRANCH   8  10
HETATM   10  C2  UNL     1       3.374 -10.774  -4.207  1.00  0.00     0.015 C
HETATM   11  C1  UNL     1       2.310 -11.837  -4.200  1.00  0.00     0.037 C
HETATM   12  C3  UNL     1       2.923  -9.671  -3.254  1.00  0.00     0.037 C
HETATM   13  C4  UNL     1       4.612 -11.371  -3.560  1.00  0.00     0.037 C
ENDBRANCH   8  10
ENDBRANCH   1   8
BRANCH   6  14
HETATM   14  C11 UNL     1       3.217 -11.625  -9.635  1.00  0.00    -0.095 C
HETATM   15  C12 UNL     1       3.940 -11.555 -10.590  1.00  0.00    -0.091 C
BRANCH  15  16
HETATM   16  C13 UNL     1       4.836 -11.494 -11.755  1.00  0.00     0.208 C
HETATM   17 CL1  UNL     1       4.003 -12.102 -13.181  1.00  0.00    -0.117 Cl
ENDBRANCH  15  16
ENDBRANCH   6  14
TORSDOF 4
ENDMDL