MODEL 5
REMARK VINA RESULT: -6.743447757      3.601      7.689
REMARK  2 active torsions:
REMARK  status: ('A' for Active; 'I' for Inactive)
REMARK    1  A    between atoms: C2_2  and  N1_3
REMARK    2  A    between atoms: C2_2  and  C9_13
REMARK       I    between atoms: N1_3  and  C3_5
REMARK       I    between atoms: C3_5  and  N2_7
ROOT
HETATM    1  N1  UNL     1       2.278 -11.178  -6.983  1.00  0.00    -0.338 N
ATOM      2  H1  UNL     1       3.031 -10.498  -7.086  1.00  0.00     0.164 HD
HETATM    3  C3  UNL     1       1.935 -11.632  -5.699  1.00  0.00     0.318 C
HETATM    4  O1  UNL     1       1.004 -12.472  -5.591  1.00  0.00    -0.247 OA
HETATM    5  N2  UNL     1       2.584 -11.185  -4.558  1.00  0.00    -0.334 N
HETATM    6  C4  UNL     1       2.226 -11.675  -3.234  1.00  0.00     0.127 C
HETATM    7  C5  UNL     1       3.513 -11.871  -2.462  1.00  0.00     0.020 C
HETATM    8  C6  UNL     1       4.709 -12.106  -3.355  1.00  0.00     0.003 C
HETATM    9  C7  UNL     1       4.942 -10.976  -4.329  1.00  0.00     0.020 C
HETATM   10  C8  UNL     1       3.644 -10.221  -4.604  1.00  0.00     0.127 C
ENDROOT
BRANCH   1  11
HETATM   11  C2  UNL     1       1.574 -11.662  -8.190  1.00  0.00     0.086 C
HETATM   12  C1  UNL     1       1.498 -13.148  -8.189  1.00  0.00     0.032 C
BRANCH  11  13
HETATM   13  C9  UNL     1       2.199 -11.067  -9.422  1.00  0.00     0.008 C
HETATM   14  C10 UNL     1       1.850 -11.927 -10.611  1.00  0.00     0.007 C
HETATM   15  C11 UNL     1       2.562 -11.481 -11.866  1.00  0.00     0.000 C
HETATM   16  C12 UNL     1       4.047 -11.365 -11.676  1.00  0.00     0.000 C
HETATM   17  C13 UNL     1       4.496 -11.631 -10.275  1.00  0.00     0.000 C
HETATM   18  C14 UNL     1       3.656 -10.801  -9.306  1.00  0.00     0.007 C
ENDBRANCH  11  13
ENDBRANCH   1  11
TORSDOF 2
ENDMDL