MODEL 1
REMARK VINA RESULT: -7.506048886      0.000      0.000
REMARK  2 active torsions:
REMARK  status: ('A' for Active; 'I' for Inactive)
REMARK    1  A    between atoms: C2_2  and  C4_4
REMARK    2  A    between atoms: C10_13  and  O1_14
ROOT
HETATM    1  C4  UNL     1       2.400 -11.869  -5.290  1.00  0.00     0.094 C
HETATM    2  N1  UNL     1       3.536 -11.291  -4.559  1.00  0.00    -0.378 N
ATOM      3  H1  UNL     1       3.570 -11.327  -3.540  1.00  0.00     0.160 HD
HETATM    4  C5  UNL     1       4.484 -10.741  -5.226  1.00  0.00     0.076 C
HETATM    5 CL1  UNL     1       5.882 -10.022  -4.454  1.00  0.00    -0.070 Cl
HETATM    6  C6  UNL     1       4.318 -10.758  -6.702  1.00  0.00     0.075 C
HETATM    7  C7  UNL     1       2.937 -10.426  -7.132  1.00  0.00     0.008 C
HETATM    8  C8  UNL     1       2.653 -11.293  -8.369  1.00  0.00     0.015 C
HETATM    9  C9  UNL     1       3.914 -11.461  -9.197  1.00  0.00     0.013 C
HETATM   10  C10 UNL     1       1.588 -10.539  -9.143  1.00  0.00     0.122 C
HETATM   11  C11 UNL     1       0.541 -10.146  -8.142  1.00  0.00     0.033 C
HETATM   12  C12 UNL     1       0.621 -11.032  -6.884  1.00  0.00     0.014 C
HETATM   13  C13 UNL     1       1.863 -10.780  -6.100  1.00  0.00    -0.019 C
HETATM   14  C14 UNL     1       1.588  -9.516  -5.266  1.00  0.00     0.018 C
ENDROOT
BRANCH   1  15
HETATM   15  C2  UNL     1       1.604 -12.541  -4.278  1.00  0.00     0.001 C
HETATM   16  C1  UNL     1       1.973 -12.347  -2.839  1.00  0.00     0.011 C
HETATM   17  C3  UNL     1       1.421 -14.032  -4.500  1.00  0.00     0.011 C
ENDBRANCH   1  15
BRANCH  10  18
HETATM   18  O1  UNL     1       1.082 -11.293 -10.191  1.00  0.00    -0.395 OA
ATOM     19  H1  UNL     1       0.628 -10.754 -10.827  1.00  0.00     0.210 HD
ENDBRANCH  10  18
TORSDOF 2
ENDMDL