MODEL 2
REMARK VINA RESULT: -6.790690509      1.036      1.155
REMARK  4 active torsions:
REMARK  status: ('A' for Active; 'I' for Inactive)
REMARK    1  A    between atoms: O1_2  and  C2_3
REMARK    2  A    between atoms: C2_3  and  N2_7
REMARK       I    between atoms: C3_9  and  N4_11
REMARK    3  A    between atoms: N4_11  and  C4_13
REMARK    4  A    between atoms: C5_19  and  N7_20
ROOT
HETATM    1  N2  UNL     1       2.534  -1.682   1.231  1.00  0.00    -0.296 N
ATOM      2  H2  UNL     1       3.394  -2.190   1.440  1.00  0.00     0.172 HD
HETATM    3  C3  UNL     1       1.471  -2.012   1.868  1.00  0.00     0.197 C
HETATM    4  N3  UNL     1       1.574  -3.064   2.820  1.00  0.00    -0.063 NA
HETATM    5  N4  UNL     1       0.214  -1.388   1.673  1.00  0.00    -0.312 N
ATOM      6  H4  UNL     1      -0.494  -1.855   1.106  1.00  0.00     0.170 HD
ENDROOT
BRANCH   5   7
HETATM    7  C4  UNL     1      -0.055  -0.225   2.206  1.00  0.00     0.175 A
HETATM    8  N5  UNL     1       0.821   0.678   2.664  1.00  0.00    -0.222 N
HETATM    9  O2  UNL     1       0.161   1.694   3.113  1.00  0.00    -0.153 OA
ATOM     10  H5  UNL     1       1.836   0.581   2.660  1.00  0.00     0.198 HD
HETATM   11  N6  UNL     1      -1.114   1.500   2.971  1.00  0.00    -0.222 N
HETATM   12  C5  UNL     1      -1.297   0.297   2.400  1.00  0.00     0.167 A
ATOM     13  H6  UNL     1      -1.851   2.149   3.245  1.00  0.00     0.198 HD
BRANCH  12  14
HETATM   14  N7  UNL     1      -2.456  -0.208   2.118  1.00  0.00    -0.381 N
ATOM     15  H72 UNL     1      -2.689  -1.197   2.209  1.00  0.00     0.157 HD
ATOM     16  H71 UNL     1      -3.299   0.253   1.775  1.00  0.00     0.157 HD
ENDBRANCH  12  14
ENDBRANCH   5   7
BRANCH   1  17
HETATM   17  C2  UNL     1       2.591  -0.661   0.260  1.00  0.00     0.218 C
HETATM   18  N1  UNL     1       2.555  -0.971  -0.993  1.00  0.00    -0.365 N
ATOM     19  H12 UNL     1       2.595  -0.231  -1.695  1.00  0.00     0.159 HD
ATOM     20  H11 UNL     1       2.485  -1.963  -1.218  1.00  0.00     0.159 HD
BRANCH  17  21
HETATM   21  O1  UNL     1       2.685   0.691   0.566  1.00  0.00    -0.327 OA
HETATM   22  C1  UNL     1       3.891   1.142   1.140  1.00  0.00     0.213 C
ENDBRANCH  17  21
ENDBRANCH   1  17
TORSDOF 4
ENDMDL