MODEL 5
REMARK VINA RESULT: -5.241982297      1.029      1.029
REMARK  1 active torsions:
REMARK  status: ('A' for Active; 'I' for Inactive)
REMARK    1  A    between atoms: N1_1  and  C1_4
ROOT
HETATM    1  C1  UNL     1       3.686  -0.664   3.571  1.00  0.00     0.679 A
HETATM    2  N2  UNL     1       3.021  -1.750   3.137  1.00  0.00    -0.154 N
ATOM      3  H2  UNL     1       2.929  -2.546   3.769  1.00  0.00     0.187 HD
HETATM    4  C2  UNL     1       2.473  -1.843   1.916  1.00  0.00     0.289 A
HETATM    5  O1  UNL     1       1.851  -2.856   1.509  1.00  0.00    -0.265 OA
HETATM    6  C3  UNL     1       2.595  -0.771   1.057  1.00  0.00     0.138 A
HETATM    7  N3  UNL     1       2.054  -0.834  -0.179  1.00  0.00    -0.302 N
ATOM      8  H3  UNL     1       1.553  -1.665  -0.492  1.00  0.00     0.171 HD
HETATM    9  C4  UNL     1       2.198   0.235  -0.985  1.00  0.00     0.327 A
HETATM   10  O2  UNL     1       1.711   0.218  -2.140  1.00  0.00    -0.247 OA
HETATM   11  N4  UNL     1       2.851   1.343  -0.608  1.00  0.00    -0.274 N
ATOM     12  H4  UNL     1       2.939   2.133  -1.248  1.00  0.00     0.173 HD
HETATM   13  C5  UNL     1       3.389   1.403   0.625  1.00  0.00     0.279 A
HETATM   14  O3  UNL     1       4.016   2.405   1.058  1.00  0.00    -0.265 OA
HETATM   15  C6  UNL     1       3.282   0.334   1.519  1.00  0.00     0.149 A
HETATM   16  N5  UNL     1       3.822   0.398   2.752  1.00  0.00    -0.184 N
ATOM     17  H5  UNL     1       4.323   1.233   3.059  1.00  0.00     0.184 HD
ENDROOT
BRANCH   1  18
HETATM   18  N1  UNL     1       4.206  -0.617   4.770  1.00  0.00    -0.234 N
ATOM     19  H12 UNL     1       4.152  -1.440   5.369  1.00  0.00     0.174 HD
ATOM     20  H11 UNL     1       4.662   0.227   5.120  1.00  0.00     0.174 HD
ENDBRANCH   1  18
TORSDOF 1
ENDMDL