MODEL 5
REMARK VINA RESULT: -2.564288326      1.328      1.564
REMARK  2 active torsions:
REMARK  status: ('A' for Active; 'I' for Inactive)
REMARK    1  A    between atoms: C3_5  and  N2_6
REMARK       I    between atoms: N2_6  and  C4_8
REMARK       I    between atoms: C4_8  and  N3_9
REMARK       I    between atoms: C4_8  and  N4_13
REMARK    2  A    between atoms: C5_19  and  N6_20
ROOT
HETATM    1  C1  UNL     1       3.627   0.592   0.889  1.00  0.00     0.070 C
HETATM    2  C2  UNL     1       2.549   0.062   1.760  1.00  0.00     0.047 A
HETATM    3  N1  UNL     1       1.281   0.005   1.322  1.00  0.00    -0.194 N
ATOM      4  H1  UNL     1       1.042   0.325   0.384  1.00  0.00     0.184 HD
HETATM    5  C3  UNL     1       0.329  -0.482   2.141  1.00  0.00     0.683 A
HETATM    6  N5  UNL     1       0.560  -0.920   3.381  1.00  0.00    -0.176 N
ATOM      7  H5  UNL     1      -0.199  -1.280   3.959  1.00  0.00     0.186 HD
HETATM    8  C5  UNL     1       1.821  -0.875   3.848  1.00  0.00     0.137 A
HETATM    9  C6  UNL     1       2.837  -0.380   3.035  1.00  0.00     0.111 A
HETATM   10  C7  UNL     1       4.199  -0.318   3.504  1.00  0.00     0.105 C
HETATM   11  N7  UNL     1       5.292  -0.260   3.872  1.00  0.00    -0.191 NA
ENDROOT
BRANCH   8  12
HETATM   12  N6  UNL     1       2.146  -1.272   5.022  1.00  0.00    -0.384 N
ATOM     13  H62 UNL     1       1.399  -1.360   5.711  1.00  0.00     0.157 HD
ATOM     14  H61 UNL     1       3.104  -1.498   5.288  1.00  0.00     0.157 HD
ENDBRANCH   8  12
BRANCH   5  15
HETATM   15  N2  UNL     1      -0.873  -0.516   1.673  1.00  0.00    -0.173 N
HETATM   16  C4  UNL     1      -1.928   0.371   2.052  1.00  0.00     0.494 C
HETATM   17  N3  UNL     1      -2.332   0.012   3.413  1.00  0.00    -0.032 N
HETATM   18  N4  UNL     1      -3.073   0.105   1.197  1.00  0.00    -0.032 N
ATOM     19  H33 UNL     1      -2.584  -0.972   3.508  1.00  0.00     0.278 HD
ATOM     20  H32 UNL     1      -1.554   0.013   4.073  1.00  0.00     0.278 HD
ATOM     21  H31 UNL     1      -3.084   0.645   3.683  1.00  0.00     0.278 HD
ATOM     22  H43 UNL     1      -2.845   0.165   0.205  1.00  0.00     0.278 HD
ATOM     23  H42 UNL     1      -3.357  -0.875   1.213  1.00  0.00     0.278 HD
ATOM     24  H41 UNL     1      -3.825   0.738   1.467  1.00  0.00     0.278 HD
ATOM     25  H2  UNL     1      -1.087  -1.231   0.979  1.00  0.00     0.181 HD
ENDBRANCH   5  15
TORSDOF 2
ENDMDL