MODEL 5
REMARK VINA RESULT: -4.681478035      1.680      3.502
REMARK  4 active torsions:
REMARK  status: ('A' for Active; 'I' for Inactive)
REMARK    1  A    between atoms: C3_7  and  N3_8
REMARK    2  A    between atoms: C4_13  and  C5_14
REMARK    3  A    between atoms: C5_14  and  O1_15
REMARK    4  A    between atoms: O1_15  and  N5_16
ROOT
HETATM    1  C1  UNL     1       2.102   1.221  -1.240  1.00  0.00     0.147 C
HETATM    2  N1  UNL     1       1.090   1.369  -0.294  1.00  0.00    -0.379 N
ATOM      3  H1  UNL     1       0.368   2.002  -0.637  1.00  0.00     0.160 HD
HETATM    4  C2  UNL     1       0.809   0.962   0.834  1.00  0.00     0.139 A
HETATM    5  N2  UNL     1      -0.355   1.399   1.404  1.00  0.00    -0.176 N
ATOM      6  H2  UNL     1      -0.960   2.043   0.895  1.00  0.00     0.186 HD
HETATM    7  C3  UNL     1      -0.706   0.984   2.635  1.00  0.00     0.677 A
HETATM    8  N4  UNL     1       0.055   0.135   3.347  1.00  0.00    -0.192 N
ATOM      9  H4  UNL     1      -0.245  -0.157   4.278  1.00  0.00     0.184 HD
HETATM   10  C4  UNL     1       1.209  -0.329   2.839  1.00  0.00     0.077 A
HETATM   11  C6  UNL     1       1.574   0.104   1.558  1.00  0.00     0.114 A
HETATM   12  C7  UNL     1       2.794  -0.399   1.046  1.00  0.00     0.105 C
HETATM   13  N6  UNL     1       3.797  -0.824   0.647  1.00  0.00    -0.191 NA
ENDROOT
BRANCH  10  14
HETATM   14  C5  UNL     1       2.067  -1.267   3.607  1.00  0.00     0.259 C
BRANCH  14  15
HETATM   15  O1  UNL     1       1.578  -2.551   3.610  1.00  0.00    -0.281 OA
BRANCH  15  16
HETATM   16  N5  UNL     1       1.960  -3.166   2.489  1.00  0.00    -0.311 N
ATOM     17  H52 UNL     1       2.739  -2.870   1.901  1.00  0.00     0.184 HD
ATOM     18  H51 UNL     1       1.352  -3.968   2.324  1.00  0.00     0.184 HD
ENDBRANCH  15  16
ENDBRANCH  14  15
ENDBRANCH  10  14
BRANCH   7  19
HETATM   19  N3  UNL     1      -1.812   1.390   3.195  1.00  0.00    -0.234 N
ATOM     20  H32 UNL     1      -1.939   2.399   3.277  1.00  0.00     0.174 HD
ATOM     21  H31 UNL     1      -2.508   0.725   3.532  1.00  0.00     0.174 HD
ENDBRANCH   7  19
TORSDOF 4
ENDMDL