MODEL 3
REMARK VINA RESULT: -5.061185148      2.515      3.707
REMARK  3 active torsions:
REMARK  status: ('A' for Active; 'I' for Inactive)
REMARK    1  A    between atoms: N1_1  and  C1_4
REMARK    2  A    between atoms: C2_7  and  N3_8
REMARK    3  A    between atoms: N3_8  and  N4_10
ROOT
HETATM    1  C1  UNL     1      -0.736   0.245   2.239  1.00  0.00     0.678 A
HETATM    2  N2  UNL     1      -0.362   0.804   1.051  1.00  0.00    -0.173 N
ATOM      3  H2  UNL     1      -1.076   1.124   0.396  1.00  0.00     0.186 HD
HETATM    4  C2  UNL     1       0.937   0.934   0.738  1.00  0.00     0.165 A
HETATM    5  C3  UNL     1       1.883   0.494   1.640  1.00  0.00     0.121 A
HETATM    6  N5  UNL     1       3.188   0.622   1.333  1.00  0.00    -0.292 N
ATOM      7  H5  UNL     1       3.432   1.043   0.437  1.00  0.00     0.187 HD
HETATM    8  N6  UNL     1       4.172   0.232   2.128  1.00  0.00    -0.266 N
ATOM      9  H6  UNL     1       5.151   0.345   1.863  1.00  0.00     0.190 HD
HETATM   10  C4  UNL     1       3.817  -0.320   3.300  1.00  0.00     0.262 A
HETATM   11  O1  UNL     1       4.717  -0.704   4.087  1.00  0.00    -0.267 OA
HETATM   12  C5  UNL     1       2.509  -0.494   3.705  1.00  0.00     0.108 A
HETATM   13  C6  UNL     1       1.503  -0.080   2.860  1.00  0.00     0.086 A
HETATM   14  N7  UNL     1       0.198  -0.185   3.120  1.00  0.00    -0.190 N
ATOM     15  H7  UNL     1      -0.102  -0.600   4.002  1.00  0.00     0.184 HD
ENDROOT
BRANCH   4  16
HETATM   16  N3  UNL     1       1.340   1.447  -0.355  1.00  0.00    -0.290 N
ATOM     17  H3  UNL     1       1.256   2.461  -0.438  1.00  0.00     0.188 HD
BRANCH  16  18
HETATM   18  N4  UNL     1       1.871   0.791  -1.430  1.00  0.00    -0.344 N
ATOM     19  H42 UNL     1       1.273   0.074  -1.842  1.00  0.00     0.176 HD
ATOM     20  H41 UNL     1       2.787   0.941  -1.852  1.00  0.00     0.176 HD
ENDBRANCH  16  18
ENDBRANCH   4  16
BRANCH   1  21
HETATM   21  N1  UNL     1      -2.003   0.140   2.493  1.00  0.00    -0.234 N
ATOM     22  H12 UNL     1      -2.343  -0.004   3.444  1.00  0.00     0.174 HD
ATOM     23  H11 UNL     1      -2.657   0.206   1.714  1.00  0.00     0.174 HD
ENDBRANCH   1  21
TORSDOF 3
ENDMDL