MODEL 3
REMARK VINA RESULT: -3.326809933      1.281      2.956
REMARK  4 active torsions:
REMARK  status: ('A' for Active; 'I' for Inactive)
REMARK    1  A    between atoms: N1_2  and  C2_4
REMARK    2  A    between atoms: C4_8  and  N3_9
REMARK    3  A    between atoms: N3_9  and  N4_11
REMARK    4  A    between atoms: N7_20  and  N8_21
ROOT
HETATM    1  C2  UNL     1       2.311  -0.300   2.827  1.00  0.00     0.170 A
HETATM    2  C3  UNL     1       1.076   0.048   2.339  1.00  0.00     0.126 A
HETATM    3  N2  UNL     1      -0.179  -0.214   2.731  1.00  0.00    -0.184 N
ATOM      4  H2  UNL     1      -0.339  -0.787   3.559  1.00  0.00     0.184 HD
HETATM    5  C4  UNL     1      -1.235   0.273   2.038  1.00  0.00     0.696 A
HETATM    6  N5  UNL     1      -1.057   1.035   0.936  1.00  0.00    -0.198 N
ATOM      7  H5  UNL     1      -1.875   1.386   0.438  1.00  0.00     0.183 HD
HETATM    8  C5  UNL     1       0.169   1.342   0.478  1.00  0.00     0.139 A
HETATM    9  C6  UNL     1       1.236   0.839   1.194  1.00  0.00     0.097 A
HETATM   10  N6  UNL     1       2.559   0.937   1.036  1.00  0.00    -0.275 N
ATOM     11  H6  UNL     1       3.010   1.455   0.282  1.00  0.00     0.189 HD
HETATM   12  N7  UNL     1       3.209   0.282   1.977  1.00  0.00    -0.184 N
ENDROOT
BRANCH   5  13
HETATM   13  N3  UNL     1      -2.414  -0.020   2.475  1.00  0.00    -0.139 N
ATOM     14  H3  UNL     1      -2.583  -0.051   3.480  1.00  0.00     0.205 HD
BRANCH  13  15
HETATM   15  N4  UNL     1      -3.446  -0.293   1.606  1.00  0.00    -0.331 N
ATOM     16  H42 UNL     1      -4.249  -0.816   1.954  1.00  0.00     0.177 HD
ATOM     17  H41 UNL     1      -3.413   0.018   0.635  1.00  0.00     0.177 HD
ENDBRANCH  13  15
ENDBRANCH   5  13
BRANCH   1  18
HETATM   18  N1  UNL     1       2.663  -1.082   3.953  1.00  0.00    -0.376 N
HETATM   19  C1  UNL     1       1.909  -1.228   5.150  1.00  0.00     0.148 C
ATOM     20  H1  UNL     1       3.546  -1.591   3.901  1.00  0.00     0.160 HD
ENDBRANCH   1  18
BRANCH  12  21
HETATM   21  N8  UNL     1       4.602   0.212   2.063  1.00  0.00    -0.322 N
ATOM     22  H82 UNL     1       5.235   0.919   1.687  1.00  0.00     0.179 HD
ATOM     23  H81 UNL     1       5.146  -0.533   2.499  1.00  0.00     0.179 HD
ENDBRANCH  12  21
TORSDOF 4
ENDMDL