MODEL 5
REMARK VINA RESULT: -4.211491366      2.080      3.922
REMARK  3 active torsions:
REMARK  status: ('A' for Active; 'I' for Inactive)
REMARK    1  A    between atoms: C2_2  and  N1_3
REMARK    2  A    between atoms: N1_3  and  C3_5
REMARK    3  A    between atoms: N5_16  and  N6_17
ROOT
HETATM    1  C3  UNL     1      -1.146   0.087   2.092  1.00  0.00     0.681 A
HETATM    2  N2  UNL     1      -0.681   1.127   1.379  1.00  0.00    -0.175 N
ATOM      3  H2  UNL     1      -1.294   1.919   1.187  1.00  0.00     0.186 HD
HETATM    4  C4  UNL     1       0.596   1.137   0.910  1.00  0.00     0.145 A
HETATM    5  N3  UNL     1       0.978   2.156   0.238  1.00  0.00    -0.383 N
ATOM      6  H31 UNL     1       1.935   2.164  -0.114  1.00  0.00     0.157 HD
ATOM      7  H32 UNL     1       0.360   2.945   0.050  1.00  0.00     0.157 HD
HETATM    8  C5  UNL     1       1.429   0.075   1.163  1.00  0.00     0.124 A
HETATM    9  N4  UNL     1       2.708  -0.195   0.839  1.00  0.00    -0.345 N
ATOM     10  H4  UNL     1       3.320   0.416   0.298  1.00  0.00     0.167 HD
HETATM   11  C6  UNL     1       3.053  -1.393   1.341  1.00  0.00     0.208 A
HETATM   12  N5  UNL     1       1.968  -1.866   1.983  1.00  0.00    -0.239 N
HETATM   13  C7  UNL     1       0.943  -0.982   1.893  1.00  0.00     0.173 A
HETATM   14  N7  UNL     1      -0.329  -0.951   2.339  1.00  0.00    -0.172 N
ATOM     15  H7  UNL     1      -0.682  -1.740   2.881  1.00  0.00     0.186 HD
ENDROOT
BRANCH   1  16
HETATM   16  N1  UNL     1      -2.341   0.097   2.522  1.00  0.00    -0.226 N
ATOM     17  H1  UNL     1      -2.565   0.786   3.239  1.00  0.00     0.177 HD
BRANCH  16  18
HETATM   18  C2  UNL     1      -3.399  -0.759   2.101  1.00  0.00     0.133 C
HETATM   19  C1  UNL     1      -4.192  -0.214   0.950  1.00  0.00     0.027 C
ENDBRANCH  16  18
ENDBRANCH   1  16
BRANCH  12  20
HETATM   20  N6  UNL     1       1.881  -3.082   2.652  1.00  0.00    -0.336 N
ATOM     21  H62 UNL     1       1.929  -3.989   2.185  1.00  0.00     0.177 HD
ATOM     22  H61 UNL     1       1.760  -3.207   3.657  1.00  0.00     0.177 HD
ENDBRANCH  12  20
TORSDOF 3
ENDMDL