MODEL 5
REMARK VINA RESULT: -2.669539900      2.057      4.598
REMARK  2 active torsions:
REMARK  status: ('A' for Active; 'I' for Inactive)
REMARK    1  A    between atoms: N2_6  and  C4_7
REMARK    2  A    between atoms: C7_19  and  N6_20
ROOT
HETATM    1  C1  UNL     1       4.831   3.712   1.427  1.00  0.00     0.021 C
HETATM    2  C2  UNL     1       4.166   2.726   1.190  1.00  0.00    -0.039 C
HETATM    3  C3  UNL     1       3.392   1.544   0.900  1.00  0.00     0.190 A
HETATM    4  N1  UNL     1       2.631   0.822   1.739  1.00  0.00    -0.258 N
ATOM      5  H1  UNL     1       2.495   1.020   2.730  1.00  0.00     0.190 HD
HETATM    6  N2  UNL     1       2.087  -0.185   1.082  1.00  0.00    -0.084 N
HETATM    7  C7  UNL     1       2.483  -0.143  -0.212  1.00  0.00     0.697 A
HETATM    8  N7  UNL     1       3.283   0.926  -0.304  1.00  0.00    -0.166 N
ATOM      9  H7  UNL     1       3.747   1.234  -1.159  1.00  0.00     0.186 HD
ENDROOT
BRANCH   6  10
HETATM   10  C4  UNL     1       1.199  -1.191   1.644  1.00  0.00     0.340 C
HETATM   11  O1  UNL     1       0.793  -0.712   2.935  1.00  0.00    -0.286 OA
HETATM   12  C5  UNL     1       1.691  -1.213   3.885  1.00  0.00     0.220 C
HETATM   13  N3  UNL     1       1.813  -0.750   5.070  1.00  0.00    -0.365 N
HETATM   14  N4  UNL     1       2.407  -2.301   3.275  1.00  0.00    -0.309 N
ATOM     15  H32 UNL     1       1.304   0.022   5.503  1.00  0.00     0.159 HD
ATOM     16  H31 UNL     1       2.467  -1.115   5.763  1.00  0.00     0.159 HD
HETATM   17  C6  UNL     1       1.934  -2.456   1.941  1.00  0.00     0.131 C
ATOM     18  H4  UNL     1       3.131  -2.864   3.721  1.00  0.00     0.170 HD
HETATM   19  N5  UNL     1       2.121  -3.485   1.184  1.00  0.00    -0.385 N
ATOM     20  H52 UNL     1       1.783  -3.597   0.229  1.00  0.00     0.157 HD
ATOM     21  H51 UNL     1       2.623  -4.349   1.387  1.00  0.00     0.157 HD
ENDBRANCH   6  10
BRANCH   7  22
HETATM   22  N6  UNL     1       2.167  -0.951  -1.169  1.00  0.00    -0.233 N
ATOM     23  H62 UNL     1       2.391  -0.839  -2.157  1.00  0.00     0.174 HD
ATOM     24  H61 UNL     1       1.647  -1.826  -1.107  1.00  0.00     0.174 HD
ENDBRANCH   7  22
TORSDOF 2
ENDMDL