MODEL 4
REMARK VINA RESULT: -4.674010269      2.275      4.560
REMARK  1 active torsions:
REMARK  status: ('A' for Active; 'I' for Inactive)
REMARK       I    between atoms: N1_1  and  C1_5
REMARK       I    between atoms: C1_5  and  N2_6
REMARK       I    between atoms: C1_5  and  N3_10
REMARK    1  A    between atoms: N3_10  and  C2_12
ROOT
HETATM    1  C2  UNL     1       1.341   0.295   1.250  1.00  0.00     0.139 A
HETATM    2  N4  UNL     1       0.021   0.623   1.483  1.00  0.00    -0.293 N
ATOM      3  H4  UNL     1      -0.526   1.022   0.720  1.00  0.00     0.172 HD
HETATM    4  C3  UNL     1      -0.568   0.441   2.658  1.00  0.00     0.327 A
HETATM    5  O1  UNL     1      -1.795   0.751   2.858  1.00  0.00    -0.247 OA
HETATM    6  N5  UNL     1       0.164  -0.084   3.648  1.00  0.00    -0.292 N
ATOM      7  H5  UNL     1      -0.278  -0.229   4.555  1.00  0.00     0.172 HD
HETATM    8  C4  UNL     1       1.456  -0.431   3.503  1.00  0.00     0.141 A
HETATM    9  N6  UNL     1       2.372  -0.962   4.333  1.00  0.00    -0.337 N
ATOM     10  H6  UNL     1       2.214  -1.213   5.309  1.00  0.00     0.168 HD
HETATM   11  C5  UNL     1       3.520  -1.106   3.671  1.00  0.00     0.182 A
HETATM   12  N7  UNL     1       3.371  -0.670   2.395  1.00  0.00    -0.346 N
ATOM     13  H7  UNL     1       4.082  -0.661   1.663  1.00  0.00     0.167 HD
HETATM   14  C6  UNL     1       2.077  -0.246   2.289  1.00  0.00     0.122 A
ENDROOT
BRANCH   1  15
HETATM   15  N3  UNL     1       1.818   0.495   0.125  1.00  0.00    -0.325 N
HETATM   16  C1  UNL     1       2.028  -0.035  -1.118  1.00  0.00     0.481 C
HETATM   17  N1  UNL     1       3.145  -0.964  -1.242  1.00  0.00    -0.033 N
HETATM   18  N2  UNL     1       2.269   1.096  -2.067  1.00  0.00    -0.033 N
ATOM     19  H13 UNL     1       3.295  -1.276  -2.201  1.00  0.00     0.278 HD
ATOM     20  H12 UNL     1       4.050  -0.516  -1.103  1.00  0.00     0.278 HD
ATOM     21  H11 UNL     1       2.980  -1.735  -0.595  1.00  0.00     0.278 HD
ATOM     22  H23 UNL     1       3.175   1.544  -1.928  1.00  0.00     0.278 HD
ATOM     23  H22 UNL     1       2.420   0.784  -3.026  1.00  0.00     0.278 HD
ATOM     24  H21 UNL     1       1.487   1.746  -1.980  1.00  0.00     0.278 HD
ATOM     25  H3  UNL     1       2.215   1.435   0.127  1.00  0.00     0.165 HD
ENDBRANCH   1  15
TORSDOF 1
ENDMDL