MODEL 4
REMARK VINA RESULT: -5.346148027      2.619      3.985
REMARK  1 active torsions:
REMARK  status: ('A' for Active; 'I' for Inactive)
REMARK    1  A    between atoms: N1_1  and  C1_4
ROOT
HETATM    1  C1  UNL     1       2.366  -0.713  -0.656  1.00  0.00     0.131 A
HETATM    2  N2  UNL     1       2.494   0.505  -1.272  1.00  0.00    -0.337 N
ATOM      3  H2  UNL     1       2.737   0.542  -2.261  1.00  0.00     0.168 HD
HETATM    4  C2  UNL     1       2.306   1.645  -0.602  1.00  0.00     0.183 A
HETATM    5  N3  UNL     1       1.985   1.569   0.698  1.00  0.00    -0.337 N
ATOM      6  H3  UNL     1       1.842   2.439   1.211  1.00  0.00     0.168 HD
HETATM    7  C3  UNL     1       1.846   0.417   1.355  1.00  0.00     0.140 A
HETATM    8  N4  UNL     1       1.526   0.347   2.656  1.00  0.00    -0.303 N
ATOM      9  H4  UNL     1       1.382   1.217   3.168  1.00  0.00     0.171 HD
HETATM   10  C4  UNL     1       1.385  -0.812   3.315  1.00  0.00     0.315 A
HETATM   11  O1  UNL     1       1.086  -0.881   4.530  1.00  0.00    -0.262 OA
HETATM   12  C5  UNL     1       1.578  -1.987   2.628  1.00  0.00     0.314 A
HETATM   13  O2  UNL     1       1.452  -3.109   3.224  1.00  0.00    -0.262 OA
HETATM   14  N5  UNL     1       1.900  -1.959   1.322  1.00  0.00    -0.313 N
ATOM     15  H5  UNL     1       2.042  -2.834   0.817  1.00  0.00     0.169 HD
HETATM   16  C6  UNL     1       2.036  -0.795   0.681  1.00  0.00     0.124 A
ENDROOT
BRANCH   1  17
HETATM   17  N1  UNL     1       2.554  -1.786  -1.335  1.00  0.00    -0.383 N
ATOM     18  H12 UNL     1       2.261  -1.828  -2.311  1.00  0.00     0.157 HD
ATOM     19  H11 UNL     1       2.998  -2.589  -0.889  1.00  0.00     0.157 HD
ENDBRANCH   1  17
TORSDOF 1
ENDMDL