MODEL 3
REMARK VINA RESULT: -7.897331094      2.031      4.976
REMARK  5 active torsions:
REMARK  status: ('A' for Active; 'I' for Inactive)
REMARK    1  A    between atoms: C2_2  and  C3_3
REMARK    2  A    between atoms: C7_8  and  O2_9
REMARK    3  A    between atoms: C8_11  and  C9_12
REMARK    4  A    between atoms: C13_16  and  O3_17
REMARK    5  A    between atoms: C14_19  and  C15_20
ROOT
HETATM    1  C3  UNL     1     -15.070  -7.050 -11.317  1.00  0.00     0.057 A
HETATM    2  C4  UNL     1     -13.908  -6.927 -10.592  1.00  0.00     0.088 A
HETATM    3  C5  UNL     1     -13.254  -8.064 -10.163  1.00  0.00     0.190 A
HETATM    4  O1  UNL     1     -12.192  -7.927  -9.500  1.00  0.00    -0.287 OA
HETATM    5  C6  UNL     1     -13.789  -9.287 -10.477  1.00  0.00     0.083 A
HETATM    6  C7  UNL     1     -13.169 -10.443 -10.069  1.00  0.00     0.092 A
HETATM    7  C8  UNL     1     -13.705 -11.711 -10.384  1.00  0.00     0.018 A
HETATM    8  C13 UNL     1     -14.882 -11.755 -11.119  1.00  0.00     0.092 A
HETATM    9  C14 UNL     1     -15.515 -10.559 -11.537  1.00  0.00     0.078 A
HETATM   10  C17 UNL     1     -14.950  -9.326 -11.204  1.00  0.00     0.109 A
HETATM   11  O5  UNL     1     -15.568  -8.218 -11.610  1.00  0.00    -0.313 OA
ENDROOT
BRANCH   7  12
HETATM   12  C9  UNL     1     -13.044 -12.920  -9.943  1.00  0.00    -0.019 C
HETATM   13  C10 UNL     1     -12.214 -12.760  -8.691  1.00  0.00     0.019 C
HETATM   14  C11 UNL     1     -13.909 -14.128  -9.736  1.00  0.00     0.019 C
HETATM   15  C12 UNL     1     -12.026 -13.276 -11.050  1.00  0.00     0.019 C
ENDBRANCH   7  12
BRANCH   6  16
HETATM   16  O2  UNL     1     -12.035 -10.482  -9.356  1.00  0.00    -0.359 OA
ATOM     17  H2  UNL     1     -11.992 -10.654  -8.423  1.00  0.00     0.217 HD
ENDBRANCH   6  16
BRANCH   8  18
HETATM   18  O3  UNL     1     -15.498 -12.872 -11.485  1.00  0.00    -0.359 OA
ATOM     19  H3  UNL     1     -16.227 -13.262 -11.018  1.00  0.00     0.217 HD
ENDBRANCH   8  18
BRANCH   9  20
HETATM   20  C15 UNL     1     -16.732 -10.545 -12.300  1.00  0.00     0.161 C
HETATM   21  C16 UNL     1     -18.076 -10.286 -11.712  1.00  0.00     0.097 C
HETATM   22  O4  UNL     1     -16.661 -10.768 -13.561  1.00  0.00    -0.293 OA
ENDBRANCH   9  20
BRANCH   1  23
HETATM   23  C2  UNL     1     -15.729  -5.773 -11.753  1.00  0.00     0.061 C
HETATM   24  C1  UNL     1     -17.016  -6.067 -12.494  1.00  0.00     0.012 C
ENDBRANCH   1  23
TORSDOF 5
ENDMDL