MODEL 4
REMARK VINA RESULT: -6.771962887      2.308      5.245
REMARK  4 active torsions:
REMARK  status: ('A' for Active; 'I' for Inactive)
REMARK    1  A    between atoms: O1_2  and  C2_3
REMARK    2  A    between atoms: C3_4  and  O2_5
REMARK    3  A    between atoms: C4_7  and  C5_8
REMARK    4  A    between atoms: C5_8  and  O3_11
ROOT
HETATM    1  C2  UNL     1     -16.003 -11.851 -11.267  1.00  0.00     0.129 A
HETATM    2  C3  UNL     1     -17.312 -11.782 -11.649  1.00  0.00     0.111 A
HETATM    3  C4  UNL     1     -17.977 -10.573 -11.963  1.00  0.00     0.018 A
HETATM    4  C9  UNL     1     -17.191  -9.459 -11.861  1.00  0.00    -0.034 A
HETATM    5  C10 UNL     1     -17.569  -8.087 -12.326  1.00  0.00     0.050 C
HETATM    6  C11 UNL     1     -15.835  -9.500 -11.463  1.00  0.00     0.046 A
HETATM    7  C12 UNL     1     -15.246 -10.718 -11.167  1.00  0.00     0.080 A
HETATM    8  N1  UNL     1     -13.882 -10.716 -10.772  1.00  0.00    -0.378 N
ATOM      9  H1  UNL     1     -13.542 -11.529 -10.257  1.00  0.00     0.160 HD
HETATM   10  C13 UNL     1     -12.939  -9.665 -11.037  1.00  0.00     0.030 C
HETATM   11  C14 UNL     1     -12.176  -9.310  -9.774  1.00  0.00     0.038 C
HETATM   12  C15 UNL     1     -11.984 -10.212 -12.097  1.00  0.00     0.038 C
HETATM   13  C16 UNL     1     -13.553  -8.389 -11.556  1.00  0.00     0.114 C
HETATM   14  C17 UNL     1     -15.008  -8.322 -11.294  1.00  0.00     0.164 C
HETATM   15  O4  UNL     1     -15.523  -7.254 -10.928  1.00  0.00    -0.292 OA
ENDROOT
BRANCH   3  16
HETATM   16  C5  UNL     1     -19.343 -10.590 -12.415  1.00  0.00     0.083 C
HETATM   17  C6  UNL     1     -19.466 -11.523 -13.679  1.00  0.00     0.051 C
HETATM   18  C7  UNL     1     -20.312 -11.289 -11.452  1.00  0.00     0.051 C
BRANCH  16  19
HETATM   19  O3  UNL     1     -20.019  -9.469 -12.774  1.00  0.00    -0.381 OA
HETATM   20  C8  UNL     1     -21.349  -9.647 -13.149  1.00  0.00     0.203 C
ENDBRANCH  16  19
ENDBRANCH   3  16
BRANCH   2  21
HETATM   21  O2  UNL     1     -17.997 -12.964 -11.724  1.00  0.00    -0.357 OA
ATOM     22  H2  UNL     1     -18.899 -12.919 -12.018  1.00  0.00     0.217 HD
ENDBRANCH   2  21
BRANCH   1  23
HETATM   23  O1  UNL     1     -15.405 -13.066 -10.972  1.00  0.00    -0.351 OA
HETATM   24  C1  UNL     1     -14.784 -13.882 -11.928  1.00  0.00     0.210 C
ENDBRANCH   1  23
TORSDOF 4
ENDMDL