MODEL 5
REMARK VINA RESULT: -8.052161043      3.850      5.411
REMARK  4 active torsions:
REMARK  status: ('A' for Active; 'I' for Inactive)
REMARK    1  A    between atoms: C4_5  and  C5_6
REMARK    2  A    between atoms: C6_7  and  C7_8
REMARK    3  A    between atoms: C10_15  and  N3_16
REMARK    4  A    between atoms: N3_16  and  C11_18
ROOT
HETATM    1  C7  UNL     1     -14.948  -8.027 -10.808  1.00  0.00     0.016 A
HETATM    2  C8  UNL     1     -14.670  -6.720 -11.165  1.00  0.00     0.099 A
HETATM    3  C9  UNL     1     -13.446  -6.188 -10.801  1.00  0.00     0.305 A
HETATM    4  O1  UNL     1     -13.170  -5.012 -11.110  1.00  0.00    -0.258 OA
HETATM    5  O2  UNL     1     -12.597  -6.914 -10.141  1.00  0.00    -0.194 OA
HETATM    6  N2  UNL     1     -12.799  -8.126  -9.783  1.00  0.00    -0.240 N
ATOM      7  H2  UNL     1     -12.082  -8.632  -9.265  1.00  0.00     0.196 HD
HETATM    8  C10 UNL     1     -14.013  -8.758 -10.107  1.00  0.00     0.136 A
ENDROOT
BRANCH   1   9
HETATM    9  C6  UNL     1     -16.212  -8.630 -11.166  1.00  0.00     0.016 C
HETATM   10  C5  UNL     1     -17.050  -8.094 -12.054  1.00  0.00     0.012 C
BRANCH  10  11
HETATM   11  C4  UNL     1     -18.323  -8.712 -12.407  1.00  0.00    -0.036 A
HETATM   12  C3  UNL     1     -19.376  -7.885 -12.815  1.00  0.00     0.013 A
HETATM   13  C2  UNL     1     -20.607  -8.348 -13.169  1.00  0.00     0.027 A
HETATM   14  C1  UNL     1     -20.875  -9.689 -13.139  1.00  0.00     0.046 A
HETATM   15  N1  UNL     1     -22.151 -10.175 -13.504  1.00  0.00    -0.102 NA
HETATM   16  C16 UNL     1     -19.864 -10.529 -12.743  1.00  0.00     0.027 A
HETATM   17  C15 UNL     1     -18.598 -10.042 -12.380  1.00  0.00     0.013 A
ENDBRANCH  10  11
ENDBRANCH   1   9
BRANCH   8  18
HETATM   18  N3  UNL     1     -14.119  -9.886  -9.734  1.00  0.00    -0.340 N
ATOM     19  H3  UNL     1     -14.990  -9.875  -9.204  1.00  0.00     0.167 HD
BRANCH  18  20
HETATM   20  C11 UNL     1     -13.703 -11.198  -9.631  1.00  0.00     0.040 A
HETATM   21  C12 UNL     1     -12.592 -11.599  -8.957  1.00  0.00     0.037 A
HETATM   22  C13 UNL     1     -12.277 -12.914  -8.939  1.00  0.00     0.052 A
HETATM   23  S1  UNL     1     -13.518 -13.620  -9.860  1.00  0.00    -0.111 SA
HETATM   24  C14 UNL     1     -14.412 -12.245 -10.251  1.00  0.00     0.079 A
ENDBRANCH  18  20
ENDBRANCH   8  18
TORSDOF 4
ENDMDL