MODEL 4
REMARK VINA RESULT: -7.267894798      3.634      6.437
REMARK  4 active torsions:
REMARK  status: ('A' for Active; 'I' for Inactive)
REMARK    1  A    between atoms: C3_5  and  C4_6
REMARK    2  A    between atoms: C7_9  and  O3_10
REMARK    3  A    between atoms: C12_17  and  C13_18
REMARK    4  A    between atoms: C16_21  and  O5_22
ROOT
HETATM    1  O1  UNL     1     -13.106  -9.708 -11.833  1.00  0.00    -0.259 OA
HETATM    2  C1  UNL     1     -13.660 -10.834 -11.608  1.00  0.00     0.302 A
HETATM    3  O2  UNL     1     -13.047 -12.060 -11.638  1.00  0.00    -0.271 OA
HETATM    4  C2  UNL     1     -13.927 -13.107 -11.350  1.00  0.00     0.131 A
HETATM    5  C3  UNL     1     -13.602 -14.387 -11.316  1.00  0.00     0.053 C
HETATM    6  C10 UNL     1     -15.201 -12.517 -11.118  1.00  0.00     0.222 A
HETATM    7  O4  UNL     1     -16.297 -13.067 -10.830  1.00  0.00    -0.284 OA
HETATM    8  C11 UNL     1     -15.059 -11.046 -11.277  1.00  0.00     0.093 A
HETATM    9  C12 UNL     1     -16.064 -10.229 -11.104  1.00  0.00     0.033 C
ENDROOT
BRANCH   5  10
HETATM   10  C4  UNL     1     -14.487 -15.478 -11.017  1.00  0.00    -0.033 A
HETATM   11  C5  UNL     1     -15.093 -16.227 -12.038  1.00  0.00     0.014 A
HETATM   12  C6  UNL     1     -15.888 -17.300 -11.738  1.00  0.00     0.037 A
HETATM   13  C7  UNL     1     -16.148 -17.714 -10.453  1.00  0.00     0.065 A
HETATM   14  C8  UNL     1     -15.558 -16.986  -9.445  1.00  0.00     0.037 A
HETATM   15  C9  UNL     1     -14.752 -15.903  -9.724  1.00  0.00     0.014 A
BRANCH  13  16
HETATM   16  O3  UNL     1     -16.956 -18.803 -10.162  1.00  0.00    -0.361 OA
ATOM     17  H3  UNL     1     -17.862 -18.714  -9.889  1.00  0.00     0.217 HD
ENDBRANCH  13  16
ENDBRANCH   5  10
BRANCH   9  18
HETATM   18  C13 UNL     1     -15.986  -8.785 -11.211  1.00  0.00    -0.035 A
HETATM   19  C14 UNL     1     -15.183  -7.965 -10.477  1.00  0.00     0.014 A
HETATM   20  C15 UNL     1     -15.125  -6.580 -10.634  1.00  0.00     0.037 A
HETATM   21  C16 UNL     1     -15.929  -6.001 -11.593  1.00  0.00     0.065 A
HETATM   22  C17 UNL     1     -16.765  -6.783 -12.365  1.00  0.00     0.037 A
HETATM   23  C18 UNL     1     -16.789  -8.147 -12.174  1.00  0.00     0.014 A
BRANCH  21  24
HETATM   24  O5  UNL     1     -15.950  -4.637 -11.831  1.00  0.00    -0.361 OA
ATOM     25  H5  UNL     1     -16.706  -4.093 -11.644  1.00  0.00     0.217 HD
ENDBRANCH  21  24
ENDBRANCH   9  18
TORSDOF 4
ENDMDL