MODEL 1
REMARK VINA RESULT: -8.210770624      0.000      0.000
REMARK  3 active torsions:
REMARK  status: ('A' for Active; 'I' for Inactive)
REMARK       I    between atoms: C2_2  and  N1_4
REMARK    1  A    between atoms: C3_6  and  C4_7
REMARK    2  A    between atoms: C8_14  and  C9_15
REMARK    3  A    between atoms: C9_15  and  O2_17
ROOT
HETATM    1  C4  UNL     1     -13.396 -11.037  -9.732  1.00  0.00     0.023 A
HETATM    2  C5  UNL     1     -14.175 -12.185  -9.878  1.00  0.00     0.100 A
HETATM    3  N2  UNL     1     -13.866 -13.544  -9.485  1.00  0.00    -0.093 NA
HETATM    4  S1  UNL     1     -15.580 -11.609 -10.632  1.00  0.00    -0.072 SA
HETATM    5  C6  UNL     1     -15.168  -9.963 -10.750  1.00  0.00     0.043 A
HETATM    6  C7  UNL     1     -15.887  -8.909 -11.270  1.00  0.00     0.077 A
HETATM    7  N3  UNL     1     -17.172  -9.129 -11.819  1.00  0.00    -0.100 NA
HETATM    8  C8  UNL     1     -15.368  -7.605 -11.268  1.00  0.00     0.025 A
HETATM    9  C11 UNL     1     -14.124  -7.503 -10.715  1.00  0.00    -0.041 A
HETATM   10  C12 UNL     1     -13.532  -6.153 -10.529  1.00  0.00     0.050 C
HETATM   11  C13 UNL     1     -13.400  -8.572 -10.197  1.00  0.00    -0.043 A
HETATM   12  C14 UNL     1     -12.000  -8.236  -9.803  1.00  0.00     0.049 C
HETATM   13  C15 UNL     1     -13.914  -9.881 -10.191  1.00  0.00     0.003 A
ENDROOT
BRANCH   1  14
HETATM   14  C3  UNL     1     -12.112 -11.234  -9.033  1.00  0.00     0.105 C
HETATM   15  N1  UNL     1     -11.850 -12.347  -8.387  1.00  0.00    -0.337 N
HETATM   16  C2  UNL     1     -10.618 -12.487  -7.740  1.00  0.00     0.217 C
ATOM     17  H1  UNL     1     -12.537 -13.100  -8.359  1.00  0.00     0.168 HD
HETATM   18  C1  UNL     1     -10.282 -11.791  -6.480  1.00  0.00     0.117 C
HETATM   19  O1  UNL     1      -9.744 -13.239  -8.245  1.00  0.00    -0.274 OA
ENDBRANCH   1  14
BRANCH   8  20
HETATM   20  C9  UNL     1     -16.161  -6.564 -11.858  1.00  0.00     0.052 C
HETATM   21  C10 UNL     1     -16.679  -5.320 -11.285  1.00  0.00     0.077 C
BRANCH  20  22
HETATM   22  O2  UNL     1     -16.471  -6.743 -13.111  1.00  0.00    -0.364 OA
ATOM     23  H2  UNL     1     -17.357  -6.496 -13.349  1.00  0.00     0.217 HD
ENDBRANCH  20  22
ENDBRANCH   8  20
TORSDOF 3
ENDMDL