MODEL 3
REMARK VINA RESULT: -8.271832661      1.567      5.184
REMARK  3 active torsions:
REMARK  status: ('A' for Active; 'I' for Inactive)
REMARK    1  A    between atoms: O1_2  and  C2_3
REMARK    2  A    between atoms: C4_5  and  O2_6
REMARK    3  A    between atoms: C14_19  and  C15_20
ROOT
HETATM    1  C2  UNL     1     -14.509  -7.216 -11.061  1.00  0.00     0.105 A
HETATM    2  C3  UNL     1     -15.522  -6.446 -11.617  1.00  0.00     0.076 A
HETATM    3  C4  UNL     1     -16.679  -7.035 -12.111  1.00  0.00     0.069 A
HETATM    4  C5  UNL     1     -16.858  -8.405 -12.067  1.00  0.00     0.052 A
HETATM    5  C6  UNL     1     -15.853  -9.149 -11.517  1.00  0.00     0.017 A
HETATM    6  C7  UNL     1     -14.692  -8.571 -11.019  1.00  0.00     0.115 A
HETATM    7  O3  UNL     1     -13.713  -9.353 -10.478  1.00  0.00    -0.330 OA
HETATM    8  C8  UNL     1     -13.710 -10.727 -10.358  1.00  0.00     0.110 A
HETATM    9  C9  UNL     1     -13.514 -11.091  -8.896  1.00  0.00     0.053 C
HETATM   10  C10 UNL     1     -12.501 -11.307 -11.089  1.00  0.00     0.053 C
HETATM   11  C11 UNL     1     -14.937 -11.369 -10.881  1.00  0.00     0.100 A
HETATM   12  O4  UNL     1     -15.285 -12.665 -10.929  1.00  0.00    -0.315 OA
HETATM   13  C12 UNL     1     -16.446 -12.782 -11.468  1.00  0.00     0.067 A
HETATM   14  C13 UNL     1     -17.210 -14.018 -11.719  1.00  0.00     0.078 C
HETATM   15  C14 UNL     1     -16.915 -11.505 -11.806  1.00  0.00     0.083 A
HETATM   16  C16 UNL     1     -15.950 -10.602 -11.431  1.00  0.00     0.029 A
ENDROOT
BRANCH  15  17
HETATM   17  C15 UNL     1     -18.188 -11.265 -12.431  1.00  0.00     0.212 C
HETATM   18  O5  UNL     1     -18.298 -11.325 -13.669  1.00  0.00    -0.644 OA
HETATM   19  O6  UNL     1     -19.292 -10.966 -11.673  1.00  0.00    -0.644 OA
ENDBRANCH  15  17
BRANCH   3  20
HETATM   20  O2  UNL     1     -17.625  -6.168 -12.645  1.00  0.00    -0.361 OA
ATOM     21  H2  UNL     1     -17.878  -5.435 -12.096  1.00  0.00     0.217 HD
ENDBRANCH   3  20
BRANCH   1  22
HETATM   22  O1  UNL     1     -13.351  -6.635 -10.564  1.00  0.00    -0.353 OA
HETATM   23  C1  UNL     1     -12.968  -5.326 -10.928  1.00  0.00     0.210 C
ENDBRANCH   1  22
TORSDOF 3
ENDMDL