MODEL 4
REMARK VINA RESULT: -9.344757519      2.637      7.438
REMARK  4 active torsions:
REMARK  status: ('A' for Active; 'I' for Inactive)
REMARK    1  A    between atoms: N1_1  and  C1_4
REMARK    2  A    between atoms: C8_13  and  N3_14
REMARK    3  A    between atoms: N3_14  and  N4_16
REMARK    4  A    between atoms: C9_18  and  C10_19
ROOT
HETATM    1  N3  UNL     1     -13.327  -7.649 -10.045  1.00  0.00    -0.297 N
ATOM      2  H3  UNL     1     -12.715  -7.214  -9.354  1.00  0.00     0.187 HD
ENDROOT
BRANCH   1   3
HETATM    3  C8  UNL     1     -14.120  -6.888 -10.704  1.00  0.00     0.104 A
HETATM    4  C1  UNL     1     -14.012  -5.499 -11.088  1.00  0.00     0.129 A
HETATM    5  N2  UNL     1     -15.223  -5.152 -11.813  1.00  0.00    -0.340 N
HETATM    6  C2  UNL     1     -16.063  -6.286 -11.881  1.00  0.00     0.046 A
ATOM      7  H2  UNL     1     -15.433  -4.236 -12.210  1.00  0.00     0.167 HD
HETATM    8  C3  UNL     1     -17.304  -6.459 -12.458  1.00  0.00     0.030 A
HETATM    9  C7  UNL     1     -15.439  -7.325 -11.236  1.00  0.00     0.022 A
HETATM   10  C4  UNL     1     -17.962  -7.678 -12.407  1.00  0.00     0.002 A
HETATM   11  C5  UNL     1     -17.338  -8.720 -11.761  1.00  0.00     0.001 A
HETATM   12  C6  UNL     1     -16.098  -8.527 -11.191  1.00  0.00     0.016 A
BRANCH   4  13
HETATM   13  N1  UNL     1     -13.049  -4.698 -10.860  1.00  0.00    -0.384 N
ATOM     14  H12 UNL     1     -12.598  -4.060 -11.515  1.00  0.00     0.157 HD
ATOM     15  H11 UNL     1     -12.592  -4.582  -9.956  1.00  0.00     0.157 HD
ENDBRANCH   4  13
ENDBRANCH   1   3
BRANCH   1  16
HETATM   16  N4  UNL     1     -13.245  -8.997 -10.204  1.00  0.00    -0.310 N
HETATM   17  C9  UNL     1     -12.243  -9.656 -10.693  1.00  0.00     0.124 C
ATOM     18  H4  UNL     1     -14.053  -9.545  -9.907  1.00  0.00     0.186 HD
BRANCH  17  19
HETATM   19  C10 UNL     1     -12.334 -11.118 -10.787  1.00  0.00     0.057 A
HETATM   20  C11 UNL     1     -11.439 -11.943 -10.153  1.00  0.00     0.033 A
HETATM   21  C12 UNL     1     -11.595 -13.322 -10.297  1.00  0.00    -0.001 A
HETATM   22  C13 UNL     1     -10.721 -14.194  -9.680  1.00  0.00     0.014 A
HETATM   23  C17 UNL     1     -12.624 -13.846 -11.059  1.00  0.00     0.089 A
HETATM   24  C14 UNL     1     -10.808 -15.567  -9.774  1.00  0.00     0.001 A
HETATM   25  C15 UNL     1     -11.842 -16.077 -10.539  1.00  0.00     0.003 A
HETATM   26  C16 UNL     1     -12.721 -15.223 -11.160  1.00  0.00     0.038 A
HETATM   27  O1  UNL     1     -13.443 -13.027 -11.639  1.00  0.00    -0.274 OA
HETATM   28  C18 UNL     1     -13.341 -11.711 -11.535  1.00  0.00     0.300 A
HETATM   29  O2  UNL     1     -14.152 -10.928 -12.110  1.00  0.00    -0.259 OA
ENDBRANCH  17  19
ENDBRANCH   1  16
TORSDOF 4
ENDMDL