MODEL 2
REMARK VINA RESULT: -7.134337330      2.780      4.408
REMARK  4 active torsions:
REMARK  status: ('A' for Active; 'I' for Inactive)
REMARK    1  A    between atoms: C3_5  and  N2_6
REMARK       I    between atoms: N2_6  and  C4_8
REMARK       I    between atoms: C4_8  and  N3_10
REMARK    2  A    between atoms: N3_10  and  C5_12
REMARK    3  A    between atoms: C7_15  and  N4_16
REMARK    4  A    between atoms: N4_16  and  O2_17
ROOT
HETATM    1  N2  UNL     1     -14.075 -12.607  -9.572  1.00  0.00    -0.288 N
ATOM      2  H2  UNL     1     -13.625 -13.112  -8.808  1.00  0.00     0.172 HD
HETATM    3  C4  UNL     1     -14.210 -11.170  -9.556  1.00  0.00     0.326 C
HETATM    4  O1  UNL     1     -14.767 -10.697  -8.559  1.00  0.00    -0.247 OA
HETATM    5  N3  UNL     1     -13.734 -10.392 -10.609  1.00  0.00    -0.308 N
ATOM      6  H3  UNL     1     -13.283 -10.868 -11.391  1.00  0.00     0.170 HD
ENDROOT
BRANCH   1   7
HETATM    7  C3  UNL     1     -14.560 -13.233 -10.622  1.00  0.00     0.153 A
HETATM    8  N1  UNL     1     -15.703 -12.988 -11.261  1.00  0.00    -0.339 N
HETATM    9  C2  UNL     1     -16.014 -13.725 -12.291  1.00  0.00     0.020 A
ATOM     10  H1  UNL     1     -16.323 -12.239 -10.951  1.00  0.00     0.168 HD
HETATM   11  C1  UNL     1     -17.301 -13.516 -13.083  1.00  0.00     0.069 C
HETATM   12  C9  UNL     1     -15.137 -14.715 -12.653  1.00  0.00     0.004 A
HETATM   13  S3  UNL     1     -13.901 -14.540 -11.492  1.00  0.00    -0.057 SA
HETATM   14  C10 UNL     1     -15.268 -15.689 -13.794  1.00  0.00     0.058 C
ENDBRANCH   1   7
BRANCH   5  15
HETATM   15  C5  UNL     1     -13.842  -8.944 -10.661  1.00  0.00     0.045 A
HETATM   16  C6  UNL     1     -12.908  -8.124 -10.093  1.00  0.00     0.081 A
HETATM   17  S1  UNL     1     -13.489  -6.552 -10.472  1.00  0.00    -0.079 SA
HETATM   18  C7  UNL     1     -14.886  -6.985 -11.332  1.00  0.00     0.113 A
HETATM   19  C8  UNL     1     -14.867  -8.347 -11.303  1.00  0.00     0.070 A
BRANCH  18  20
HETATM   20  N4  UNL     1     -15.866  -6.119 -11.949  1.00  0.00    -0.178 N
HETATM   21  S2  UNL     1     -17.243  -6.797 -12.406  1.00  0.00     0.075 SA
BRANCH  20  22
HETATM   22  O2  UNL     1     -15.571  -4.816 -12.102  1.00  0.00    -0.275 OA
ATOM     23  H2  UNL     1     -16.137  -4.281 -12.646  1.00  0.00     0.246 HD
ENDBRANCH  20  22
ENDBRANCH  18  20
ENDBRANCH   5  15
TORSDOF 4
ENDMDL