MODEL 1
REMARK VINA RESULT: -8.772909910      0.000      0.000
REMARK  3 active torsions:
REMARK  status: ('A' for Active; 'I' for Inactive)
REMARK    1  A    between atoms: O1_1  and  C1_3
REMARK    2  A    between atoms: C7_14  and  C8_15
REMARK    3  A    between atoms: C9_16  and  C10_17
ROOT
HETATM    1  C1  UNL     1     -16.106 -13.149 -12.175  1.00  0.00     0.198 A
HETATM    2  O2  UNL     1     -15.786 -14.309 -12.673  1.00  0.00    -0.263 OA
HETATM    3  C2  UNL     1     -14.841 -15.118 -12.371  1.00  0.00     0.201 A
HETATM    4  N1  UNL     1     -14.703 -16.232 -13.000  1.00  0.00    -0.294 N
ATOM      5  H1  UNL     1     -13.949 -16.874 -12.757  1.00  0.00     0.177 HD
HETATM    6  S1  UNL     1     -15.836 -16.626 -14.282  1.00  0.00     0.044 SA
HETATM    7  S2  UNL     1     -13.853 -14.561 -11.107  1.00  0.00    -0.045 SA
HETATM    8  C3  UNL     1     -14.348 -13.022 -10.511  1.00  0.00     0.024 A
HETATM    9  C4  UNL     1     -13.660 -12.384  -9.495  1.00  0.00     0.020 A
HETATM   10  C5  UNL     1     -14.078 -11.148  -9.065  1.00  0.00     0.002 A
HETATM   11  C6  UNL     1     -15.176 -10.613  -9.681  1.00  0.00     0.012 A
HETATM   12  C7  UNL     1     -15.895 -11.212 -10.701  1.00  0.00    -0.020 A
HETATM   13  C16 UNL     1     -15.468 -12.483 -11.150  1.00  0.00     0.050 A
ENDROOT
BRANCH  12  14
HETATM   14  C8  UNL     1     -16.996 -10.536 -11.292  1.00  0.00     0.013 C
HETATM   15  C9  UNL     1     -17.257  -9.322 -11.675  1.00  0.00     0.012 C
BRANCH  15  16
HETATM   16  C10 UNL     1     -16.588  -8.082 -11.710  1.00  0.00    -0.036 A
HETATM   17  C11 UNL     1     -15.451  -7.717 -11.032  1.00  0.00     0.011 A
HETATM   18  C12 UNL     1     -14.897  -6.447 -11.056  1.00  0.00     0.001 A
HETATM   19  C13 UNL     1     -15.496  -5.465 -11.797  1.00  0.00     0.000 A
HETATM   20  C14 UNL     1     -16.634  -5.779 -12.494  1.00  0.00     0.001 A
HETATM   21  C15 UNL     1     -17.176  -7.042 -12.463  1.00  0.00     0.011 A
ENDBRANCH  15  16
ENDBRANCH  12  14
BRANCH   1  22
HETATM   22  O1  UNL     1     -17.135 -12.570 -12.719  1.00  0.00    -0.340 OA
ATOM     23  H1  UNL     1     -17.108 -11.621 -12.738  1.00  0.00     0.220 HD
ENDBRANCH   1  22
TORSDOF 3
ENDMDL