MODEL 3
REMARK VINA RESULT: -9.353830482      1.129      1.830
REMARK  4 active torsions:
REMARK  status: ('A' for Active; 'I' for Inactive)
REMARK    1  A    between atoms: C1_4  and  N2_5
REMARK    2  A    between atoms: C1_4  and  C11_18
REMARK    3  A    between atoms: N2_5  and  C2_7
REMARK    4  A    between atoms: C15_22  and  N3_23
ROOT
HETATM    1  N1  UNL     1     -12.530  -8.999 -12.004  1.00  0.00    -0.385 N
ATOM      2  H11 UNL     1     -11.778  -9.474 -12.502  1.00  0.00     0.157 HD
ATOM      3  H12 UNL     1     -12.844  -8.099 -12.367  1.00  0.00     0.157 HD
HETATM    4  C1  UNL     1     -13.063  -9.489 -10.977  1.00  0.00     0.109 C
ENDROOT
BRANCH   4   5
HETATM    5  N2  UNL     1     -14.131  -8.815 -10.270  1.00  0.00    -0.341 N
ATOM      6  H2  UNL     1     -14.133  -8.797  -9.250  1.00  0.00     0.167 HD
BRANCH   5   7
HETATM    7  C2  UNL     1     -15.159  -8.188 -10.977  1.00  0.00     0.052 A
HETATM    8  C3  UNL     1     -15.035  -6.821 -11.256  1.00  0.00     0.113 A
HETATM    9  C4  UNL     1     -16.063  -6.239 -11.952  1.00  0.00     0.290 A
HETATM   10  O1  UNL     1     -15.937  -4.993 -12.200  1.00  0.00    -0.260 OA
HETATM   11  O2  UNL     1     -17.114  -6.919 -12.342  1.00  0.00    -0.275 OA
HETATM   12  C5  UNL     1     -17.259  -8.197 -12.097  1.00  0.00     0.091 A
HETATM   13  C6  UNL     1     -18.371  -8.906 -12.511  1.00  0.00     0.038 A
HETATM   14  C10 UNL     1     -16.279  -8.906 -11.394  1.00  0.00     0.025 A
HETATM   15  C7  UNL     1     -18.561 -10.251 -12.273  1.00  0.00     0.003 A
HETATM   16  C8  UNL     1     -17.557 -10.908 -11.571  1.00  0.00     0.001 A
HETATM   17  C9  UNL     1     -16.437 -10.245 -11.140  1.00  0.00     0.016 A
ENDBRANCH   5   7
ENDBRANCH   4   5
BRANCH   4  18
HETATM   18  C11 UNL     1     -12.610 -10.786 -10.454  1.00  0.00     0.010 A
HETATM   19  C12 UNL     1     -12.928 -11.913 -11.187  1.00  0.00     0.015 A
HETATM   20  C13 UNL     1     -12.556 -13.169 -10.791  1.00  0.00     0.003 A
HETATM   21  C14 UNL     1     -11.841 -13.333  -9.628  1.00  0.00     0.036 A
HETATM   22  C15 UNL     1     -11.514 -12.197  -8.882  1.00  0.00     0.103 A
HETATM   23  C16 UNL     1     -11.903 -10.937  -9.304  1.00  0.00     0.051 A
BRANCH  22  24
HETATM   24  N3  UNL     1     -10.778 -12.335  -7.680  1.00  0.00    -0.116 N
HETATM   25  O3  UNL     1      -9.603 -12.749  -7.652  1.00  0.00    -0.532 OA
HETATM   26  O4  UNL     1     -11.384 -11.997  -6.499  1.00  0.00    -0.532 OA
ENDBRANCH  22  24
ENDBRANCH   4  18
TORSDOF 4
ENDMDL