MODEL 5
REMARK VINA RESULT: -8.601925149      0.541      1.586
REMARK  3 active torsions:
REMARK  status: ('A' for Active; 'I' for Inactive)
REMARK    1  A    between atoms: C4_4  and  N1_5
REMARK    2  A    between atoms: N1_5  and  C5_7
REMARK    3  A    between atoms: N4_13  and  C7_15
ROOT
HETATM    1  C5  UNL     1      10.867  54.426   0.877  1.00  0.00     0.167 A
HETATM    2  N2  UNL     1      11.474  54.550  -0.306  1.00  0.00    -0.278 N
ATOM      3  H2  UNL     1      12.262  53.950  -0.549  1.00  0.00     0.189 HD
HETATM    4  N3  UNL     1      11.053  55.429  -1.128  1.00  0.00    -0.277 N
ATOM      5  H3  UNL     1      11.501  55.542  -2.037  1.00  0.00     0.189 HD
HETATM    6  C6  UNL     1      10.023  56.197  -0.783  1.00  0.00     0.168 A
HETATM    7  N4  UNL     1       9.452  57.150  -1.490  1.00  0.00    -0.316 N
ATOM      8  H4  UNL     1       9.800  57.371  -2.423  1.00  0.00     0.170 HD
HETATM    9  S1  UNL     1       9.654  55.623   0.783  1.00  0.00    -0.015 SA
ENDROOT
BRANCH   7  10
HETATM   10  C7  UNL     1       8.351  57.870  -0.954  1.00  0.00     0.150 A
HETATM   11  C8  UNL     1       7.166  57.349  -0.444  1.00  0.00     0.070 A
HETATM   12  C9  UNL     1       6.433  58.446  -0.055  1.00  0.00     0.002 A
HETATM   13  C10 UNL     1       5.181  58.574   0.519  1.00  0.00     0.014 A
HETATM   14  C14 UNL     1       7.186  59.569  -0.338  1.00  0.00     0.088 A
HETATM   15  C11 UNL     1       4.701  59.840   0.802  1.00  0.00     0.001 A
HETATM   16  C12 UNL     1       5.423  60.988   0.534  1.00  0.00     0.003 A
HETATM   17  C13 UNL     1       6.671  60.815  -0.040  1.00  0.00     0.038 A
HETATM   18  O1  UNL     1       8.315  59.178  -0.869  1.00  0.00    -0.293 OA
ENDBRANCH   7  10
BRANCH   1  19
HETATM   19  N1  UNL     1      11.137  53.595   1.858  1.00  0.00    -0.335 N
ATOM     20  H1  UNL     1      11.699  53.895   2.656  1.00  0.00     0.168 HD
BRANCH  19  21
HETATM   21  C4  UNL     1      10.633  52.277   1.784  1.00  0.00     0.034 A
HETATM   22  C3  UNL     1      11.402  51.232   1.307  1.00  0.00     0.029 A
HETATM   23  C2  UNL     1      10.910  49.949   1.235  1.00  0.00     0.002 A
HETATM   24  C1  UNL     1       9.624  49.641   1.634  1.00  0.00     0.000 A
HETATM   25  C16 UNL     1       8.855  50.682   2.110  1.00  0.00     0.002 A
HETATM   26  C15 UNL     1       9.341  51.971   2.185  1.00  0.00     0.029 A
ENDBRANCH  19  21
ENDBRANCH   1  19
TORSDOF 3
ENDMDL