MODEL 2
REMARK VINA RESULT: -9.702162460      0.830      1.524
REMARK  4 active torsions:
REMARK  status: ('A' for Active; 'I' for Inactive)
REMARK    1  A    between atoms: C2_2  and  C3_3
REMARK    2  A    between atoms: C10_12  and  C11_13
REMARK    3  A    between atoms: C14_16  and  O3_17
REMARK    4  A    between atoms: C15_19  and  O4_20
ROOT
HETATM    1  C3  UNL     1       4.991  56.137   1.432  1.00  0.00    -0.034 C
HETATM    2  C4  UNL     1       3.816  56.847   1.436  1.00  0.00     0.015 C
HETATM    3  C5  UNL     1       3.635  58.235   1.383  1.00  0.00     0.057 C
HETATM    4  C6  UNL     1       4.574  59.181   1.058  1.00  0.00     0.189 C
HETATM    5  O1  UNL     1       4.399  60.369   1.383  1.00  0.00    -0.287 OA
HETATM    6  C7  UNL     1       5.756  58.972   0.376  1.00  0.00     0.098 A
HETATM    7  C8  UNL     1       6.260  60.096  -0.221  1.00  0.00     0.191 A
HETATM    8  O2  UNL     1       5.631  61.157  -0.099  1.00  0.00    -0.287 OA
HETATM    9  C9  UNL     1       7.443  59.975  -0.926  1.00  0.00     0.094 A
HETATM   10  C10 UNL     1       8.129  58.793  -1.052  1.00  0.00     0.090 A
HETATM   11  O5  UNL     1       7.591  57.745  -0.452  1.00  0.00    -0.309 OA
HETATM   12  C17 UNL     1       6.473  57.790   0.231  1.00  0.00     0.095 A
HETATM   13  C18 UNL     1       6.139  56.535   0.757  1.00  0.00     0.049 C
ENDROOT
BRANCH  10  14
HETATM   14  C11 UNL     1       9.377  58.628  -1.785  1.00  0.00     0.001 A
HETATM   15  C12 UNL     1       9.987  59.711  -2.416  1.00  0.00     0.017 A
HETATM   16  C13 UNL     1      11.167  59.566  -3.112  1.00  0.00     0.040 A
HETATM   17  C14 UNL     1      11.800  58.346  -3.217  1.00  0.00     0.098 A
HETATM   18  C15 UNL     1      11.207  57.270  -2.599  1.00  0.00     0.099 A
HETATM   19  C16 UNL     1      10.012  57.421  -1.895  1.00  0.00     0.053 A
BRANCH  17  20
HETATM   20  O3  UNL     1      12.994  58.224  -3.928  1.00  0.00    -0.358 OA
ATOM     21  H3  UNL     1      13.796  57.968  -3.487  1.00  0.00     0.217 HD
ENDBRANCH  17  20
BRANCH  18  22
HETATM   22  O4  UNL     1      11.833  56.037  -2.698  1.00  0.00    -0.358 OA
ATOM     23  H4  UNL     1      11.648  55.390  -2.028  1.00  0.00     0.217 HD
ENDBRANCH  18  22
ENDBRANCH  10  14
BRANCH   1  24
HETATM   24  C2  UNL     1       5.044  54.898   2.183  1.00  0.00     0.001 C
HETATM   25  C1  UNL     1       5.428  53.774   1.630  1.00  0.00     0.012 C
ENDBRANCH   1  24
TORSDOF 4
ENDMDL