MODEL 5
REMARK VINA RESULT: -6.459308515      2.368      6.001
REMARK  4 active torsions:
REMARK  status: ('A' for Active; 'I' for Inactive)
REMARK    1  A    between atoms: C2_2  and  O1_3
REMARK    2  A    between atoms: O1_3  and  C3_4
REMARK    3  A    between atoms: C3_4  and  C4_6
REMARK    4  A    between atoms: C11_17  and  O3_18
ROOT
HETATM    1  C4  UNL     1       6.821  53.061   2.299  1.00  0.00     0.151 C
HETATM    2  C5  UNL     1       8.149  53.716   2.334  1.00  0.00     0.055 C
HETATM    3  N1  UNL     1       9.325  53.300   2.142  1.00  0.00    -0.396 N
ATOM      4  H11 UNL     1      10.240  53.752   2.166  1.00  0.00     0.156 HD
ATOM      5  H12 UNL     1       9.550  52.333   1.907  1.00  0.00     0.156 HD
HETATM    6  S1  UNL     1       7.754  55.420   2.747  1.00  0.00    -0.110 SA
HETATM    7  C6  UNL     1       5.962  55.318   2.302  1.00  0.00     0.074 C
HETATM    8  C7  UNL     1       5.882  54.016   1.566  1.00  0.00    -0.012 C
HETATM    9  C8  UNL     1       4.482  53.481   1.900  1.00  0.00     0.018 C
HETATM   10  C9  UNL     1       6.145  54.070   0.122  1.00  0.00     0.014 C
HETATM   11  C10 UNL     1       6.162  55.372  -0.559  1.00  0.00     0.039 C
HETATM   12  C11 UNL     1       6.376  56.587   0.267  1.00  0.00     0.066 C
HETATM   13  C12 UNL     1       5.729  57.813  -0.376  1.00  0.00     0.038 C
HETATM   14  C13 UNL     1       4.448  58.082   0.356  1.00  0.00     0.004 C
HETATM   15  C14 UNL     1       4.233  56.775   1.148  1.00  0.00     0.013 C
HETATM   16  C15 UNL     1       5.637  56.541   1.588  1.00  0.00     0.001 C
HETATM   17  C16 UNL     1       6.042  57.729   2.440  1.00  0.00     0.019 C
ENDROOT
BRANCH   1  18
HETATM   18  C3  UNL     1       6.958  51.762   1.680  1.00  0.00     0.270 C
HETATM   19  O2  UNL     1       7.663  51.451   0.685  1.00  0.00    -0.264 OA
BRANCH  18  20
HETATM   20  O1  UNL     1       6.234  50.705   2.226  1.00  0.00    -0.321 OA
BRANCH  20  21
HETATM   21  C2  UNL     1       6.547  50.157   3.494  1.00  0.00     0.174 C
HETATM   22  C1  UNL     1       5.253  50.136   4.291  1.00  0.00     0.034 C
ENDBRANCH  20  21
ENDBRANCH  18  20
ENDBRANCH   1  18
BRANCH  12  23
HETATM   23  O3  UNL     1       7.717  56.840   0.431  1.00  0.00    -0.389 OA
ATOM     24  H3  UNL     1       7.880  57.293   1.250  1.00  0.00     0.210 HD
ENDBRANCH  12  23
TORSDOF 4
ENDMDL