MODEL 2
REMARK VINA RESULT: -7.601952658      3.154      4.921
REMARK  3 active torsions:
REMARK  status: ('A' for Active; 'I' for Inactive)
REMARK    1  A    between atoms: C2_2  and  C3_3
REMARK    2  A    between atoms: C3_3  and  C4_4
REMARK    3  A    between atoms: C10_14  and  O2_15
ROOT
HETATM    1  C4  UNL     1       9.679  58.618  -1.786  1.00  0.00     0.019 A
HETATM    2  S1  UNL     1       8.483  59.779  -1.476  1.00  0.00    -0.073 SA
HETATM    3  C5  UNL     1       7.474  58.857  -0.458  1.00  0.00     0.091 A
HETATM    4  N1  UNL     1       6.321  59.169   0.172  1.00  0.00    -0.315 N
ATOM      5  H1  UNL     1       5.928  60.103   0.054  1.00  0.00     0.170 HD
HETATM    6  C6  UNL     1       5.674  58.279   0.953  1.00  0.00     0.280 A
HETATM    7  O1  UNL     1       4.613  58.533   1.546  1.00  0.00    -0.265 OA
HETATM    8  C7  UNL     1       6.254  57.058   1.060  1.00  0.00     0.152 A
HETATM    9  C8  UNL     1       7.449  56.712   0.414  1.00  0.00     0.065 A
HETATM   10  C9  UNL     1       8.112  57.644  -0.388  1.00  0.00     0.049 A
HETATM   11  C10 UNL     1       9.261  57.511  -1.075  1.00  0.00     0.092 A
HETATM   12  C11 UNL     1       7.911  55.347   0.588  1.00  0.00     0.166 C
HETATM   13  O3  UNL     1       8.404  54.755  -0.372  1.00  0.00    -0.292 OA
HETATM   14  C12 UNL     1       7.770  54.708   1.920  1.00  0.00     0.122 C
HETATM   15  C13 UNL     1       6.507  55.139   2.616  1.00  0.00     0.068 C
HETATM   16  C14 UNL     1       5.623  53.977   3.012  1.00  0.00     0.046 C
HETATM   17  C15 UNL     1       6.872  55.896   3.874  1.00  0.00     0.046 C
HETATM   18  O4  UNL     1       5.715  56.010   1.835  1.00  0.00    -0.334 OA
ENDROOT
BRANCH   1  19
HETATM   19  C3  UNL     1      10.879  58.815  -2.644  1.00  0.00     0.049 C
BRANCH  19  20
HETATM   20  C2  UNL     1      10.856  60.161  -3.312  1.00  0.00     0.001 C
HETATM   21  C1  UNL     1      12.131  60.334  -4.093  1.00  0.00     0.005 C
ENDBRANCH  19  20
ENDBRANCH   1  19
BRANCH  11  22
HETATM   22  O2  UNL     1      10.109  56.370  -1.159  1.00  0.00    -0.359 OA
ATOM     23  H2  UNL     1      10.962  56.521  -1.547  1.00  0.00     0.217 HD
ENDBRANCH  11  22
TORSDOF 3
ENDMDL