MODEL 2
REMARK VINA RESULT: -8.266486949      2.956      4.877
REMARK  4 active torsions:
REMARK  status: ('A' for Active; 'I' for Inactive)
REMARK    1  A    between atoms: C7_7  and  N1_8
REMARK    2  A    between atoms: N1_8  and  N2_10
REMARK       I    between atoms: N2_10  and  C8_12
REMARK       I    between atoms: C8_12  and  N3_14
REMARK       I    between atoms: N3_14  and  C9_16
REMARK    3  A    between atoms: C9_16  and  C10_18
REMARK    4  A    between atoms: C13_21  and  N4_22
ROOT
HETATM    1  N2  UNL     1       6.119  55.716  -0.076  1.00  0.00    -0.251 N
ATOM      2  H2  UNL     1       6.250  55.666  -1.086  1.00  0.00     0.191 HD
HETATM    3  C8  UNL     1       6.547  54.640   0.734  1.00  0.00     0.341 C
HETATM    4  O1  UNL     1       5.704  54.089   1.491  1.00  0.00    -0.245 OA
HETATM    5  N3  UNL     1       7.912  54.214   0.672  1.00  0.00    -0.274 N
ATOM      6  H3  UNL     1       8.560  54.691   0.045  1.00  0.00     0.173 HD
HETATM    7  C9  UNL     1       8.374  53.140   1.468  1.00  0.00     0.259 C
HETATM    8  O2  UNL     1       7.576  52.566   2.235  1.00  0.00    -0.267 OA
ENDROOT
BRANCH   1   9
HETATM    9  N1  UNL     1       5.567  56.756   0.443  1.00  0.00    -0.296 N
ATOM     10  H1  UNL     1       4.765  56.651   1.065  1.00  0.00     0.187 HD
BRANCH   9  11
HETATM   11  C7  UNL     1       6.074  58.052   0.150  1.00  0.00     0.054 A
HETATM   12  C2  UNL     1       5.313  59.136   0.548  1.00  0.00    -0.034 A
HETATM   13  C1  UNL     1       4.019  58.911   1.252  1.00  0.00     0.050 C
HETATM   14  C3  UNL     1       5.804  60.393   0.264  1.00  0.00     0.009 A
HETATM   15  C4  UNL     1       7.025  60.542  -0.399  1.00  0.00     0.001 A
HETATM   16  C5  UNL     1       7.775  59.446  -0.790  1.00  0.00     0.002 A
HETATM   17  C6  UNL     1       7.280  58.198  -0.505  1.00  0.00     0.031 A
ENDBRANCH   9  11
ENDBRANCH   1   9
BRANCH   7  18
HETATM   18  C10 UNL     1       9.743  52.703   1.410  1.00  0.00     0.032 A
HETATM   19  C11 UNL     1      10.764  53.617   1.329  1.00  0.00     0.019 A
HETATM   20  C12 UNL     1      12.078  53.122   1.280  1.00  0.00     0.037 A
HETATM   21  C13 UNL     1      12.356  51.773   1.310  1.00  0.00     0.102 A
HETATM   22  C14 UNL     1      11.315  50.877   1.391  1.00  0.00     0.037 A
HETATM   23  C15 UNL     1      10.015  51.328   1.441  1.00  0.00     0.019 A
BRANCH  21  24
HETATM   24  N4  UNL     1      13.720  51.330   1.257  1.00  0.00    -0.116 N
HETATM   25  O3  UNL     1      14.188  50.657   2.197  1.00  0.00    -0.532 OA
HETATM   26  O4  UNL     1      14.529  51.622   0.199  1.00  0.00    -0.532 OA
ENDBRANCH  21  24
ENDBRANCH   7  18
TORSDOF 4
ENDMDL