MODEL 1
REMARK VINA RESULT: -9.465292506      0.000      0.000
REMARK  3 active torsions:
REMARK  status: ('A' for Active; 'I' for Inactive)
REMARK       I    between atoms: C1_2  and  N2_4
REMARK    1  A    between atoms: N3_6  and  C2_8
REMARK    2  A    between atoms: C5_11  and  O2_12
REMARK    3  A    between atoms: C9_18  and  C10_19
ROOT
HETATM    1  C2  UNL     1       5.202  57.228   0.910  1.00  0.00     0.083 A
HETATM    2  C3  UNL     1       4.210  58.060   1.378  1.00  0.00     0.036 A
HETATM    3  C4  UNL     1       4.325  59.410   1.145  1.00  0.00     0.040 A
HETATM    4  C5  UNL     1       5.424  59.933   0.451  1.00  0.00     0.083 A
HETATM    5  C6  UNL     1       6.385  59.075   0.003  1.00  0.00     0.086 A
HETATM    6  C7  UNL     1       6.316  57.704   0.212  1.00  0.00     0.121 A
HETATM    7  O3  UNL     1       7.420  57.089  -0.348  1.00  0.00    -0.303 OA
HETATM    8  C8  UNL     1       8.255  58.030  -0.944  1.00  0.00     0.128 A
HETATM    9  C9  UNL     1       9.368  57.725  -1.544  1.00  0.00     0.053 C
HETATM   10  C16 UNL     1       7.625  59.304  -0.737  1.00  0.00     0.221 A
HETATM   11  O4  UNL     1       8.033  60.443  -1.107  1.00  0.00    -0.284 OA
ENDROOT
BRANCH   1  12
HETATM   12  N3  UNL     1       5.099  55.849   1.137  1.00  0.00    -0.294 N
HETATM   13  N2  UNL     1       5.710  55.138   1.949  1.00  0.00    -0.254 N
HETATM   14  C1  UNL     1       6.685  55.495   2.882  1.00  0.00     0.347 C
ATOM     15  H2  UNL     1       5.464  54.148   1.932  1.00  0.00     0.191 HD
HETATM   16  N1  UNL     1       7.956  55.988   2.502  1.00  0.00    -0.038 NA
HETATM   17  O1  UNL     1       6.429  55.378   4.105  1.00  0.00    -0.249 OA
ATOM     18  H3  UNL     1       4.425  55.360   0.548  1.00  0.00     0.187 HD
ENDBRANCH   1  12
BRANCH   4  19
HETATM   19  O2  UNL     1       5.491  61.281   0.246  1.00  0.00    -0.360 OA
ATOM     20  H2  UNL     1       6.194  61.628  -0.291  1.00  0.00     0.217 HD
ENDBRANCH   4  19
BRANCH   9  21
HETATM   21  C10 UNL     1      10.304  58.598  -2.194  1.00  0.00    -0.034 A
HETATM   22  C11 UNL     1      11.647  58.254  -2.236  1.00  0.00     0.011 A
HETATM   23  C12 UNL     1      12.573  59.034  -2.887  1.00  0.00     0.001 A
HETATM   24  C13 UNL     1      12.198  60.200  -3.533  1.00  0.00     0.000 A
HETATM   25  C14 UNL     1      10.863  60.561  -3.503  1.00  0.00     0.001 A
HETATM   26  C15 UNL     1       9.955  59.761  -2.843  1.00  0.00     0.011 A
ENDBRANCH   9  21
TORSDOF 3
ENDMDL