MODEL 3
REMARK VINA RESULT: -9.112161176      1.172      7.882
REMARK  5 active torsions:
REMARK  status: ('A' for Active; 'I' for Inactive)
REMARK    1  A    between atoms: C1_2  and  O2_3
REMARK    2  A    between atoms: C1_2  and  C12_16
REMARK    3  A    between atoms: O2_3  and  C2_4
REMARK    4  A    between atoms: C7_9  and  O3_10
REMARK    5  A    between atoms: C16_20  and  O4_21
ROOT
HETATM    1  O2  UNL     1       7.766  54.377  -0.165  1.00  0.00    -0.275 OA
ENDROOT
BRANCH   1   2
HETATM    2  C1  UNL     1       8.338  53.694   0.881  1.00  0.00     0.298 C
HETATM    3  O1  UNL     1       9.536  53.928   1.142  1.00  0.00    -0.259 OA
BRANCH   2   4
HETATM    4  C12 UNL     1       7.516  52.747   1.610  1.00  0.00     0.043 A
HETATM    5  C13 UNL     1       6.160  52.994   1.658  1.00  0.00     0.018 A
HETATM    6  C14 UNL     1       5.127  52.309   2.266  1.00  0.00     0.004 A
HETATM    7  C15 UNL     1       5.210  51.132   3.008  1.00  0.00     0.040 A
HETATM    8  C16 UNL     1       6.341  50.375   3.302  1.00  0.00     0.115 A
HETATM    9  C17 UNL     1       7.642  50.616   2.941  1.00  0.00     0.205 A
HETATM   10  O5  UNL     1       8.493  49.764   3.337  1.00  0.00    -0.285 OA
HETATM   11  C18 UNL     1       8.146  51.675   2.197  1.00  0.00     0.075 A
BRANCH   8  12
HETATM   12  O4  UNL     1       6.150  49.223   4.058  1.00  0.00    -0.357 OA
ATOM     13  H4  UNL     1       5.338  48.748   3.923  1.00  0.00     0.218 HD
ENDBRANCH   8  12
ENDBRANCH   2   4
ENDBRANCH   1   2
BRANCH   1  14
HETATM   14  C2  UNL     1       7.456  55.729  -0.114  1.00  0.00     0.080 A
HETATM   15  C3  UNL     1       8.376  56.647  -0.578  1.00  0.00     0.038 A
HETATM   16  C4  UNL     1       8.123  58.014  -0.552  1.00  0.00     0.015 A
HETATM   17  C5  UNL     1       6.932  58.500  -0.058  1.00  0.00    -0.023 A
HETATM   18  C6  UNL     1       6.647  59.854  -0.018  1.00  0.00     0.048 A
HETATM   19  C10 UNL     1       6.007  57.587   0.407  1.00  0.00    -0.023 A
HETATM   20  C7  UNL     1       5.464  60.352   0.473  1.00  0.00     0.066 A
HETATM   21  C8  UNL     1       4.541  59.435   0.938  1.00  0.00     0.037 A
HETATM   22  C9  UNL     1       4.813  58.083   0.902  1.00  0.00     0.015 A
HETATM   23  C11 UNL     1       6.266  56.222   0.380  1.00  0.00     0.049 A
BRANCH  20  24
HETATM   24  O3  UNL     1       5.210  61.714   0.498  1.00  0.00    -0.361 OA
ATOM     25  H3  UNL     1       4.323  62.053   0.457  1.00  0.00     0.217 HD
ENDBRANCH  20  24
ENDBRANCH   1  14
TORSDOF 5
ENDMDL