MODEL 1
REMARK VINA RESULT: -7.387739768      0.000      0.000
REMARK  4 active torsions:
REMARK  status: ('A' for Active; 'I' for Inactive)
REMARK       I    between atoms: C1_2  and  N1_3
REMARK    1  A    between atoms: C1_2  and  C10_18
REMARK    2  A    between atoms: N1_3  and  C2_5
REMARK    3  A    between atoms: C2_5  and  N2_7
REMARK    4  A    between atoms: N2_7  and  C3_9
ROOT
HETATM    1  C2  UNL     1       8.431  55.089   0.464  1.00  0.00     0.179 C
HETATM    2  S1  UNL     1       9.995  55.537   0.465  1.00  0.00    -0.040 SA
ENDROOT
BRANCH   1   3
HETATM    3  N1  UNL     1       8.004  54.040   1.345  1.00  0.00    -0.299 N
HETATM    4  C1  UNL     1       6.877  53.228   1.087  1.00  0.00     0.264 C
HETATM    5  O1  UNL     1       6.213  53.418   0.049  1.00  0.00    -0.267 OA
ATOM      6  H1  UNL     1       8.537  53.874   2.197  1.00  0.00     0.171 HD
BRANCH   4   7
HETATM    7  C10 UNL     1       6.466  52.170   1.999  1.00  0.00     0.072 A
HETATM    8  C11 UNL     1       5.219  51.854   2.463  1.00  0.00     0.025 A
HETATM    9  C12 UNL     1       5.110  50.823   3.303  1.00  0.00     0.009 A
HETATM   10  C13 UNL     1       6.258  50.154   3.638  1.00  0.00     0.050 A
HETATM   11  S2  UNL     1       7.454  51.004   2.758  1.00  0.00    -0.097 SA
ENDBRANCH   4   7
ENDBRANCH   1   3
BRANCH   1  12
HETATM   12  N2  UNL     1       7.490  55.678  -0.407  1.00  0.00    -0.333 N
ATOM     13  H2  UNL     1       7.253  55.205  -1.280  1.00  0.00     0.168 HD
BRANCH  12  14
HETATM   14  C3  UNL     1       6.867  56.912  -0.096  1.00  0.00     0.037 A
HETATM   15  C4  UNL     1       7.310  58.134  -0.506  1.00  0.00     0.032 A
HETATM   16  C5  UNL     1       6.652  59.321  -0.208  1.00  0.00     0.042 A
HETATM   17  C6  UNL     1       5.503  59.264   0.532  1.00  0.00     0.105 A
HETATM   18  C7  UNL     1       5.024  58.036   0.966  1.00  0.00     0.107 A
HETATM   19  O3  UNL     1       4.629  60.239   0.989  1.00  0.00    -0.323 OA
HETATM   20  C8  UNL     1       5.685  56.875   0.664  1.00  0.00     0.069 A
HETATM   21  O2  UNL     1       3.846  58.229   1.700  1.00  0.00    -0.323 OA
HETATM   22  C9  UNL     1       3.515  59.589   1.570  1.00  0.00     0.352 C
ENDBRANCH  12  14
ENDBRANCH   1  12
TORSDOF 4
ENDMDL