MODEL 3
REMARK VINA RESULT: -7.817211618      2.181      4.615
REMARK  5 active torsions:
REMARK  status: ('A' for Active; 'I' for Inactive)
REMARK    1  A    between atoms: O1_2  and  C2_3
REMARK    2  A    between atoms: C2_3  and  C3_5
REMARK    3  A    between atoms: C4_6  and  O3_7
REMARK    4  A    between atoms: C5_9  and  C6_10
REMARK    5  A    between atoms: C10_15  and  O5_16
ROOT
HETATM    1  C3  UNL     1       9.696  54.891   0.830  1.00  0.00     0.107 A
HETATM    2  C4  UNL     1      10.308  55.601  -0.174  1.00  0.00     0.099 A
HETATM    3  C5  UNL     1       9.690  56.781  -0.743  1.00  0.00     0.055 A
HETATM    4  C8  UNL     1       8.454  57.159  -0.204  1.00  0.00    -0.004 A
HETATM    5  C9  UNL     1       7.831  56.446   0.801  1.00  0.00    -0.004 A
HETATM    6  C10 UNL     1       8.504  55.302   1.292  1.00  0.00     0.092 A
HETATM    7  C11 UNL     1       6.535  56.756   1.375  1.00  0.00    -0.014 C
HETATM    8  C12 UNL     1       6.461  56.588   2.876  1.00  0.00     0.020 C
HETATM    9  C13 UNL     1       5.554  55.683   0.833  1.00  0.00     0.020 C
HETATM   10  C14 UNL     1       5.998  58.051   0.996  1.00  0.00     0.041 C
HETATM   11  C15 UNL     1       6.705  58.761  -0.037  1.00  0.00    -0.018 C
HETATM   12  C16 UNL     1       7.859  58.416  -0.654  1.00  0.00    -0.054 C
HETATM   13  C17 UNL     1       8.453  59.397  -1.560  1.00  0.00     0.049 C
ENDROOT
BRANCH   1  14
HETATM   14  C2  UNL     1      10.387  53.697   1.359  1.00  0.00     0.298 C
HETATM   15  O2  UNL     1      11.613  53.690   1.658  1.00  0.00    -0.259 OA
BRANCH  14  16
HETATM   16  O1  UNL     1       9.733  52.520   1.558  1.00  0.00    -0.322 OA
HETATM   17  C1  UNL     1       9.235  51.664   0.572  1.00  0.00     0.213 C
ENDBRANCH  14  16
ENDBRANCH   1  14
BRANCH   2  18
HETATM   18  O3  UNL     1      11.476  55.216  -0.641  1.00  0.00    -0.359 OA
ATOM     19  H3  UNL     1      11.561  54.383  -1.088  1.00  0.00     0.217 HD
ENDBRANCH   2  18
BRANCH   6  20
HETATM   20  O5  UNL     1       7.832  54.660   2.269  1.00  0.00    -0.359 OA
ATOM     21  H5  UNL     1       7.578  55.077   3.083  1.00  0.00     0.217 HD
ENDBRANCH   6  20
BRANCH   3  22
HETATM   22  C6  UNL     1      10.304  57.363  -1.872  1.00  0.00     0.159 C
HETATM   23  C7  UNL     1      11.494  58.322  -1.591  1.00  0.00     0.097 C
HETATM   24  O4  UNL     1      10.181  57.348  -3.051  1.00  0.00    -0.293 OA
ENDBRANCH   3  22
TORSDOF 5
ENDMDL