MODEL 4
REMARK VINA RESULT: -9.156540870      4.482      9.070
REMARK  3 active torsions:
REMARK  status: ('A' for Active; 'I' for Inactive)
REMARK       I    between atoms: C1_2  and  N1_3
REMARK    1  A    between atoms: C1_2  and  C15_20
REMARK    2  A    between atoms: N1_3  and  C2_5
REMARK    3  A    between atoms: C18_23  and  O4_24
ROOT
HETATM    1  C2  UNL     1      10.115  58.561  -1.969  1.00  0.00     0.037 A
HETATM    2  C3  UNL     1       9.617  59.873  -1.990  1.00  0.00     0.030 A
HETATM    3  C4  UNL     1       8.402  60.211  -1.442  1.00  0.00     0.020 A
HETATM    4  C5  UNL     1       7.647  59.242  -0.856  1.00  0.00     0.049 A
HETATM    5  C6  UNL     1       6.425  59.557  -0.301  1.00  0.00     0.198 A
HETATM    6  O2  UNL     1       5.968  60.736  -0.314  1.00  0.00    -0.286 OA
HETATM    7  C7  UNL     1       5.703  58.525   0.282  1.00  0.00     0.049 A
HETATM    8  C8  UNL     1       4.489  58.785   0.845  1.00  0.00     0.018 A
HETATM    9  C9  UNL     1       3.773  57.747   1.426  1.00  0.00     0.001 A
HETATM   10  C10 UNL     1       4.283  56.461   1.434  1.00  0.00     0.003 A
HETATM   11  C11 UNL     1       5.519  56.201   0.860  1.00  0.00     0.038 A
HETATM   12  C12 UNL     1       6.211  57.244   0.291  1.00  0.00     0.090 A
HETATM   13  O3  UNL     1       7.378  56.983  -0.248  1.00  0.00    -0.309 OA
HETATM   14  C13 UNL     1       8.070  57.954  -0.803  1.00  0.00     0.092 A
HETATM   15  C14 UNL     1       9.323  57.631  -1.372  1.00  0.00     0.067 A
ENDROOT
BRANCH   1  16
HETATM   16  N1  UNL     1      11.372  58.297  -2.541  1.00  0.00    -0.321 N
HETATM   17  C1  UNL     1      11.890  58.725  -3.769  1.00  0.00     0.280 C
HETATM   18  O1  UNL     1      11.270  59.438  -4.559  1.00  0.00    -0.265 OA
ATOM     19  H1  UNL     1      11.993  57.711  -1.983  1.00  0.00     0.169 HD
BRANCH  17  20
HETATM   20  C15 UNL     1      13.259  58.296  -4.141  1.00  0.00     0.146 A
HETATM   21  C16 UNL     1      13.607  57.047  -4.611  1.00  0.00     0.048 A
HETATM   22  C17 UNL     1      14.966  57.086  -4.827  1.00  0.00     0.067 A
HETATM   23  C18 UNL     1      15.410  58.345  -4.487  1.00  0.00     0.183 A
HETATM   24  O5  UNL     1      14.346  58.993  -4.095  1.00  0.00    -0.282 OA
BRANCH  23  25
HETATM   25  O4  UNL     1      16.727  58.810  -4.555  1.00  0.00    -0.341 OA
ATOM     26  H4  UNL     1      17.174  59.130  -5.330  1.00  0.00     0.220 HD
ENDBRANCH  23  25
ENDBRANCH  17  20
ENDBRANCH   1  16
TORSDOF 3
ENDMDL