MODEL 5
REMARK VINA RESULT: -7.771337434      2.128      4.525
REMARK  5 active torsions:
REMARK  status: ('A' for Active; 'I' for Inactive)
REMARK    1  A    between atoms: C2_2  and  C5_5
REMARK       I    between atoms: C5_5  and  N1_7
REMARK       I    between atoms: N1_7  and  C6_9
REMARK    2  A    between atoms: C6_9  and  O3_11
REMARK    3  A    between atoms: O3_11  and  C7_12
REMARK    4  A    between atoms: C12_17  and  N2_18
REMARK       I    between atoms: N2_18  and  C13_20
REMARK    5  A    between atoms: C13_20  and  C14_22
ROOT
HETATM    1  C7  UNL     1       6.121  57.698  -0.361  1.00  0.00     0.107 A
HETATM    2  C8  UNL     1       4.995  58.017   0.322  1.00  0.00     0.040 A
HETATM    3  C9  UNL     1       4.752  59.315   0.733  1.00  0.00     0.003 A
HETATM    4  C10 UNL     1       5.688  60.282   0.432  1.00  0.00     0.002 A
HETATM    5  C11 UNL     1       6.861  59.980  -0.273  1.00  0.00     0.032 A
HETATM    6  C12 UNL     1       7.073  58.693  -0.665  1.00  0.00     0.069 A
ENDROOT
BRANCH   1   7
HETATM    7  O3  UNL     1       6.322  56.391  -0.752  1.00  0.00    -0.259 OA
BRANCH   7   8
HETATM    8  C6  UNL     1       6.658  55.415   0.164  1.00  0.00     0.372 C
HETATM    9  N1  UNL     1       7.868  54.722   0.054  1.00  0.00    -0.272 N
HETATM   10  C5  UNL     1       8.212  53.724   0.992  1.00  0.00     0.233 C
ATOM     11  H1  UNL     1       8.507  54.939  -0.711  1.00  0.00     0.174 HD
HETATM   12  O1  UNL     1       7.391  53.485   1.927  1.00  0.00    -0.272 OA
HETATM   13  O2  UNL     1       5.871  55.155   1.099  1.00  0.00    -0.238 OA
BRANCH  10  14
HETATM   14  C2  UNL     1       9.493  52.962   0.909  1.00  0.00     0.030 C
HETATM   15  C1  UNL     1       9.574  52.289  -0.422  1.00  0.00     0.025 C
HETATM   16  C3  UNL     1      10.613  53.922   1.183  1.00  0.00     0.025 C
HETATM   17  C4  UNL     1       9.438  51.869   1.973  1.00  0.00     0.025 C
ENDBRANCH  10  14
ENDBRANCH   7   8
ENDBRANCH   1   7
BRANCH   6  18
HETATM   18  N2  UNL     1       8.204  58.250  -1.376  1.00  0.00    -0.320 N
HETATM   19  C13 UNL     1       9.373  57.673  -0.839  1.00  0.00     0.258 C
HETATM   20  O4  UNL     1       9.566  57.471   0.399  1.00  0.00    -0.267 OA
ATOM     21  H2  UNL     1       8.175  58.358  -2.389  1.00  0.00     0.169 HD
BRANCH  19  22
HETATM   22  C14 UNL     1      10.440  57.282  -1.787  1.00  0.00     0.056 A
HETATM   23  C15 UNL     1      11.028  58.122  -2.689  1.00  0.00     0.043 A
HETATM   24  C16 UNL     1      11.975  57.360  -3.383  1.00  0.00     0.142 A
HETATM   25  O5  UNL     1      11.912  56.167  -2.889  1.00  0.00    -0.334 OA
HETATM   26  C17 UNL     1      11.015  56.055  -1.935  1.00  0.00     0.158 A
ENDBRANCH  19  22
ENDBRANCH   6  18
TORSDOF 5
ENDMDL