MODEL 2
REMARK VINA RESULT: -8.202449399      2.471      3.973
REMARK  5 active torsions:
REMARK  status: ('A' for Active; 'I' for Inactive)
REMARK    1  A    between atoms: C3_3  and  C4_4
REMARK    2  A    between atoms: C7_7  and  C8_8
REMARK    3  A    between atoms: C12_13  and  O2_14
REMARK    4  A    between atoms: C14_17  and  O3_18
REMARK    5  A    between atoms: C17_23  and  O5_24
ROOT
HETATM    1  C8  UNL     1       5.684  56.317   0.513  1.00  0.00     0.055 C
HETATM    2  C9  UNL     1       6.704  56.899  -0.066  1.00  0.00     0.128 A
HETATM    3  O1  UNL     1       6.722  58.235  -0.540  1.00  0.00    -0.305 OA
HETATM    4  C10 UNL     1       7.945  58.525  -1.087  1.00  0.00     0.096 A
HETATM    5  C11 UNL     1       8.436  59.688  -1.673  1.00  0.00     0.075 A
HETATM    6  C12 UNL     1       9.711  59.762  -2.162  1.00  0.00     0.071 A
HETATM    7  C13 UNL     1      10.551  58.682  -2.089  1.00  0.00     0.074 A
HETATM    8  C14 UNL     1      10.097  57.517  -1.515  1.00  0.00     0.085 A
HETATM    9  C15 UNL     1       8.813  57.470  -1.032  1.00  0.00     0.084 A
HETATM   10  C16 UNL     1       8.022  56.397  -0.368  1.00  0.00     0.221 A
HETATM   11  O4  UNL     1       8.492  55.261  -0.137  1.00  0.00    -0.284 OA
ENDROOT
BRANCH   1  12
HETATM   12  C7  UNL     1       5.595  54.969   1.011  1.00  0.00     0.000 A
HETATM   13  C6  UNL     1       5.442  53.858   0.213  1.00  0.00     0.015 A
HETATM   14  C5  UNL     1       5.397  52.620   0.785  1.00  0.00     0.012 A
HETATM   15  C4  UNL     1       5.503  52.458   2.146  1.00  0.00    -0.034 A
HETATM   16  C19 UNL     1       5.655  53.588   2.933  1.00  0.00     0.049 A
HETATM   17  C17 UNL     1       5.704  54.847   2.402  1.00  0.00     0.079 A
BRANCH  15  18
HETATM   18  C3  UNL     1       5.448  51.099   2.714  1.00  0.00     0.007 C
HETATM   19  C2  UNL     1       4.569  50.724   3.583  1.00  0.00    -0.030 C
HETATM   20  C1  UNL     1       4.551  49.349   4.127  1.00  0.00     0.036 C
ENDBRANCH  15  18
BRANCH  17  21
HETATM   21  O5  UNL     1       5.858  55.941   3.224  1.00  0.00    -0.355 OA
HETATM   22  C18 UNL     1       6.724  56.007   4.315  1.00  0.00     0.210 C
ENDBRANCH  17  21
ENDBRANCH   1  12
BRANCH   8  23
HETATM   23  O3  UNL     1      10.914  56.409  -1.425  1.00  0.00    -0.360 OA
ATOM     24  H3  UNL     1      10.916  55.748  -2.107  1.00  0.00     0.217 HD
ENDBRANCH   8  23
BRANCH   6  25
HETATM   25  O2  UNL     1      10.179  60.954  -2.750  1.00  0.00    -0.361 OA
ATOM     26  H2  UNL     1      10.610  61.613  -2.220  1.00  0.00     0.217 HD
ENDBRANCH   6  25
TORSDOF 5
ENDMDL