MODEL 2
REMARK VINA RESULT: -9.129459438      3.569      5.337
REMARK  3 active torsions:
REMARK  status: ('A' for Active; 'I' for Inactive)
REMARK    1  A    between atoms: C6_6  and  N1_7
REMARK       I    between atoms: N1_7  and  C7_9
REMARK    2  A    between atoms: C7_9  and  C8_11
REMARK    3  A    between atoms: N2_15  and  C10_16
ROOT
HETATM    1  C8  UNL     1       3.804  50.329   3.292  1.00  0.00     0.188 A
HETATM    2  O2  UNL     1       3.969  49.728   4.457  1.00  0.00    -0.275 OA
HETATM    3  C9  UNL     1       3.000  48.882   4.683  1.00  0.00     0.228 A
HETATM    4  S1  UNL     1       2.873  47.957   6.029  1.00  0.00    -0.032 SA
HETATM    5  N2  UNL     1       2.138  48.897   3.645  1.00  0.00    -0.268 N
HETATM    6  C16 UNL     1       2.639  49.793   2.785  1.00  0.00     0.166 A
HETATM    7  N3  UNL     1       2.046  50.125   1.551  1.00  0.00    -0.079 NA
ENDROOT
BRANCH   1   8
HETATM    8  C7  UNL     1       4.689  51.348   2.687  1.00  0.00     0.283 C
HETATM    9  N1  UNL     1       4.120  52.435   2.045  1.00  0.00    -0.321 N
ATOM     10  H1  UNL     1       3.101  52.473   2.019  1.00  0.00     0.169 HD
HETATM   11  O1  UNL     1       5.901  51.158   2.798  1.00  0.00    -0.265 OA
BRANCH   9  12
HETATM   12  C6  UNL     1       4.818  53.499   1.421  1.00  0.00     0.035 A
HETATM   13  C5  UNL     1       5.772  53.393   0.451  1.00  0.00     0.029 A
HETATM   14  C4  UNL     1       6.407  54.500  -0.132  1.00  0.00     0.003 A
HETATM   15  C3  UNL     1       6.081  55.763   0.265  1.00  0.00     0.007 A
HETATM   16  C2  UNL     1       5.123  55.908   1.240  1.00  0.00    -0.060 A
HETATM   17  C1  UNL     1       4.726  57.280   1.715  1.00  0.00     0.048 C
HETATM   18  C17 UNL     1       4.509  54.820   1.803  1.00  0.00     0.036 A
ENDBRANCH   9  12
ENDBRANCH   1   8
BRANCH   5  19
HETATM   19  C10 UNL     1       0.950  48.129   3.489  1.00  0.00     0.043 A
HETATM   20  C11 UNL     1       1.000  46.747   3.450  1.00  0.00     0.030 A
HETATM   21  C12 UNL     1      -0.141  45.992   3.300  1.00  0.00     0.002 A
HETATM   22  C13 UNL     1      -1.383  46.587   3.182  1.00  0.00     0.000 A
HETATM   23  C14 UNL     1      -1.454  47.962   3.217  1.00  0.00     0.002 A
HETATM   24  C15 UNL     1      -0.298  48.704   3.368  1.00  0.00     0.030 A
ENDBRANCH   5  19
TORSDOF 3
ENDMDL