MODEL 3
REMARK VINA RESULT: -9.858488528      1.296      1.772
REMARK  4 active torsions:
REMARK  status: ('A' for Active; 'I' for Inactive)
REMARK    1  A    between atoms: C10_11  and  N2_12
REMARK    2  A    between atoms: N2_12  and  C11_14
REMARK    3  A    between atoms: C12_19  and  S1_20
REMARK    4  A    between atoms: S1_20  and  C13_21
ROOT
HETATM    1  C11 UNL     1       5.797  56.300   2.108  1.00  0.00     0.246 A
HETATM    2  N3  UNL     1       6.153  56.257   3.404  1.00  0.00    -0.262 N
ATOM      3  H3  UNL     1       6.175  57.029   4.070  1.00  0.00     0.190 HD
HETATM    4  N4  UNL     1       6.469  54.982   3.625  1.00  0.00    -0.271 N
ATOM      5  H4  UNL     1       6.784  54.603   4.518  1.00  0.00     0.189 HD
HETATM    6  C12 UNL     1       6.312  54.276   2.502  1.00  0.00     0.210 A
HETATM    7  O1  UNL     1       5.901  55.095   1.581  1.00  0.00    -0.253 OA
ENDROOT
BRANCH   1   8
HETATM    8  N2  UNL     1       5.411  57.349   1.454  1.00  0.00    -0.319 N
ATOM      9  H2  UNL     1       4.468  57.719   1.575  1.00  0.00     0.169 HD
BRANCH   8  10
HETATM   10  C10 UNL     1       6.329  57.981   0.559  1.00  0.00     0.060 A
HETATM   11  C1  UNL     1       6.107  59.280   0.130  1.00  0.00     0.074 A
HETATM   12  N1  UNL     1       4.969  60.014   0.563  1.00  0.00    -0.100 NA
HETATM   13  C2  UNL     1       6.995  59.887  -0.734  1.00  0.00     0.041 A
HETATM   14  C3  UNL     1       8.123  59.224  -1.196  1.00  0.00    -0.024 A
HETATM   15  C4  UNL     1       9.007  59.850  -2.065  1.00  0.00     0.012 A
HETATM   16  C8  UNL     1       8.349  57.926  -0.769  1.00  0.00    -0.024 A
HETATM   17  C5  UNL     1      10.123  59.173  -2.510  1.00  0.00     0.001 A
HETATM   18  C6  UNL     1      10.376  57.878  -2.104  1.00  0.00     0.001 A
HETATM   19  C7  UNL     1       9.476  57.291  -1.240  1.00  0.00     0.012 A
HETATM   20  C9  UNL     1       7.456  57.340   0.090  1.00  0.00     0.043 A
ENDBRANCH   8  10
ENDBRANCH   1   8
BRANCH   6  21
HETATM   21  S1  UNL     1       6.606  52.539   2.286  1.00  0.00    -0.045 SA
BRANCH  21  22
HETATM   22  C13 UNL     1       5.047  51.655   2.294  1.00  0.00     0.009 A
HETATM   23  C14 UNL     1       4.763  50.736   3.287  1.00  0.00     0.019 A
HETATM   24  C15 UNL     1       3.566  50.030   3.327  1.00  0.00     0.001 A
HETATM   25  C16 UNL     1       2.657  50.295   2.309  1.00  0.00     0.000 A
HETATM   26  C17 UNL     1       2.937  51.211   1.317  1.00  0.00     0.001 A
HETATM   27  C18 UNL     1       4.143  51.901   1.303  1.00  0.00     0.019 A
ENDBRANCH  21  22
ENDBRANCH   6  21
TORSDOF 4
ENDMDL