MODEL 2
REMARK VINA RESULT: -7.803358961      1.652      4.225
REMARK  5 active torsions:
REMARK  status: ('A' for Active; 'I' for Inactive)
REMARK    1  A    between atoms: O1_2  and  C2_3
REMARK    2  A    between atoms: C7_8  and  O2_9
REMARK    3  A    between atoms: C10_13  and  O3_14
REMARK    4  A    between atoms: C13_17  and  O4_18
REMARK    5  A    between atoms: C14_20  and  C16_22
ROOT
HETATM    1  C2  UNL     1       9.798  57.535  -1.011  1.00  0.00     0.102 A
HETATM    2  C3  UNL     1       8.905  58.531  -1.206  1.00  0.00     0.047 A
HETATM    3  C4  UNL     1       7.681  58.441  -0.602  1.00  0.00    -0.043 A
HETATM    4  C5  UNL     1       7.290  57.377   0.212  1.00  0.00    -0.004 A
HETATM    5  C6  UNL     1       6.039  57.312   0.769  1.00  0.00     0.003 A
HETATM    6  C7  UNL     1       5.693  56.188   1.535  1.00  0.00     0.082 A
HETATM    7  C8  UNL     1       6.585  55.164   1.744  1.00  0.00     0.006 A
HETATM    8  C9  UNL     1       6.247  53.948   2.556  1.00  0.00     0.054 C
HETATM    9  C10 UNL     1       7.842  55.282   1.164  1.00  0.00     0.090 A
HETATM   10  C12 UNL     1       8.222  56.359   0.402  1.00  0.00     0.045 A
HETATM   11  C13 UNL     1       9.458  56.454  -0.212  1.00  0.00     0.113 A
HETATM   12  C14 UNL     1       5.084  58.413   0.630  1.00  0.00     0.040 C
HETATM   13  C15 UNL     1       4.063  58.056  -0.396  1.00  0.00     0.028 C
HETATM   14  C17 UNL     1       5.846  59.708   0.263  1.00  0.00     0.026 C
HETATM   15  C18 UNL     1       6.706  59.517  -0.902  1.00  0.00     0.041 C
ENDROOT
BRANCH  12  16
HETATM   16  C16 UNL     1       4.462  58.835   1.945  1.00  0.00     0.245 C
HETATM   17  O5  UNL     1       3.285  58.931   2.048  1.00  0.00    -0.306 OA
ENDBRANCH  12  16
BRANCH   6  18
HETATM   18  O2  UNL     1       4.423  56.056   2.117  1.00  0.00    -0.359 OA
ATOM     19  H2  UNL     1       3.826  55.362   1.860  1.00  0.00     0.217 HD
ENDBRANCH   6  18
BRANCH   9  20
HETATM   20  O3  UNL     1       8.733  54.240   1.389  1.00  0.00    -0.354 OA
HETATM   21  C11 UNL     1       8.516  53.041   0.616  1.00  0.00     0.210 C
ENDBRANCH   9  20
BRANCH  11  22
HETATM   22  O4  UNL     1      10.378  55.429  -0.016  1.00  0.00    -0.357 OA
ATOM     23  H4  UNL     1      10.902  55.416   0.777  1.00  0.00     0.217 HD
ENDBRANCH  11  22
BRANCH   1  24
HETATM   24  O1  UNL     1      11.071  57.525  -1.575  1.00  0.00    -0.353 OA
HETATM   25  C1  UNL     1      11.336  57.242  -2.914  1.00  0.00     0.210 C
ENDBRANCH   1  24
TORSDOF 5
ENDMDL