MODEL 5
REMARK VINA RESULT: -10.263355840      2.607      3.460
REMARK  4 active torsions:
REMARK  status: ('A' for Active; 'I' for Inactive)
REMARK    1  A    between atoms: C3_5  and  C4_6
REMARK    2  A    between atoms: N1_7  and  N2_9
REMARK    3  A    between atoms: N2_9  and  C5_11
REMARK    4  A    between atoms: C11_17  and  O3_18
ROOT
HETATM    1  O1  UNL     1       6.113  55.252   1.897  1.00  0.00    -0.259 OA
HETATM    2  C1  UNL     1       6.513  56.224   1.180  1.00  0.00     0.299 A
HETATM    3  O2  UNL     1       7.682  56.097   0.609  1.00  0.00    -0.273 OA
HETATM    4  C2  UNL     1       8.137  57.072  -0.141  1.00  0.00     0.105 A
HETATM    5  C3  UNL     1       9.396  56.887  -0.729  1.00  0.00     0.049 A
HETATM    6  C11 UNL     1       9.912  57.875  -1.519  1.00  0.00     0.080 A
HETATM    7  C12 UNL     1       9.199  59.061  -1.742  1.00  0.00     0.038 A
HETATM    8  C13 UNL     1       7.953  59.248  -1.162  1.00  0.00     0.018 A
HETATM    9  C14 UNL     1       7.442  58.251  -0.371  1.00  0.00     0.010 A
HETATM   10  C15 UNL     1       6.196  58.387   0.237  1.00  0.00    -0.007 A
HETATM   11  C16 UNL     1       5.447  59.516   0.064  1.00  0.00     0.013 A
HETATM   12  C17 UNL     1       4.223  59.571   0.702  1.00  0.00     0.001 A
HETATM   13  C18 UNL     1       3.733  58.560   1.491  1.00  0.00     0.001 A
HETATM   14  C19 UNL     1       4.507  57.431   1.649  1.00  0.00     0.018 A
HETATM   15  C20 UNL     1       5.743  57.354   1.016  1.00  0.00     0.051 A
ENDROOT
BRANCH   5  16
HETATM   16  C4  UNL     1      10.115  55.647  -0.469  1.00  0.00     0.124 C
HETATM   17  N1  UNL     1      10.420  55.328   0.728  1.00  0.00    -0.310 N
ATOM     18  H1  UNL     1      10.151  55.953   1.488  1.00  0.00     0.186 HD
BRANCH  17  19
HETATM   19  N2  UNL     1      11.095  54.177   1.027  1.00  0.00    -0.301 N
ATOM     20  H2  UNL     1      12.114  54.194   1.066  1.00  0.00     0.187 HD
BRANCH  19  21
HETATM   21  C5  UNL     1      10.416  52.962   1.284  1.00  0.00     0.048 A
HETATM   22  C6  UNL     1      11.085  51.764   1.176  1.00  0.00     0.031 A
HETATM   23  C7  UNL     1      10.461  50.564   1.401  1.00  0.00     0.002 A
HETATM   24  C8  UNL     1       9.132  50.560   1.745  1.00  0.00     0.000 A
HETATM   25  C9  UNL     1       8.433  51.749   1.862  1.00  0.00     0.002 A
HETATM   26  C10 UNL     1       9.077  52.938   1.632  1.00  0.00     0.031 A
ENDBRANCH  19  21
ENDBRANCH  17  19
ENDBRANCH   5  16
BRANCH   6  27
HETATM   27  O3  UNL     1      11.160  57.744  -2.129  1.00  0.00    -0.360 OA
ATOM     28  H3  UNL     1      11.419  58.299  -2.855  1.00  0.00     0.217 HD
ENDBRANCH   6  27
TORSDOF 4
ENDMDL