MODEL 3
REMARK VINA RESULT: -9.445074892      0.335      1.424
REMARK  5 active torsions:
REMARK  status: ('A' for Active; 'I' for Inactive)
REMARK    1  A    between atoms: O1_2  and  C2_3
REMARK       I    between atoms: C2_3  and  N1_5
REMARK    2  A    between atoms: N1_5  and  N2_7
REMARK       I    between atoms: N2_7  and  C3_9
REMARK    3  A    between atoms: C3_9  and  C4_11
REMARK    4  A    between atoms: C9_16  and  N3_17
REMARK    5  A    between atoms: N4_19  and  C10_21
ROOT
HETATM    1  C4  UNL     1       7.128  52.235   2.222  1.00  0.00     0.035 A
HETATM    2  C5  UNL     1       8.404  51.830   1.912  1.00  0.00     0.018 A
HETATM    3  C6  UNL     1       9.377  52.682   1.391  1.00  0.00     0.010 A
HETATM    4  C7  UNL     1       9.064  54.004   1.165  1.00  0.00    -0.034 A
HETATM    5  C8  UNL     1      10.065  54.955   0.612  1.00  0.00     0.050 C
HETATM    6  C9  UNL     1       7.778  54.431   1.473  1.00  0.00     0.055 A
HETATM    7  C17 UNL     1       6.824  53.583   1.988  1.00  0.00     0.048 A
ENDROOT
BRANCH   6   8
HETATM    8  N3  UNL     1       7.508  55.806   1.212  1.00  0.00    -0.300 N
HETATM    9  N4  UNL     1       6.839  56.211   0.218  1.00  0.00    -0.300 N
ATOM     10  H4  UNL     1       6.459  55.542  -0.451  1.00  0.00     0.187 HD
ATOM     11  H3  UNL     1       7.875  56.500   1.862  1.00  0.00     0.187 HD
BRANCH   9  12
HETATM   12  C10 UNL     1       6.619  57.612   0.035  1.00  0.00     0.054 A
HETATM   13  C11 UNL     1       5.481  58.209   0.544  1.00  0.00     0.031 A
HETATM   14  C12 UNL     1       5.263  59.560   0.373  1.00  0.00     0.002 A
HETATM   15  C13 UNL     1       6.198  60.298  -0.314  1.00  0.00     0.001 A
HETATM   16  C14 UNL     1       7.355  59.739  -0.842  1.00  0.00     0.009 A
HETATM   17  C15 UNL     1       7.536  58.378  -0.647  1.00  0.00    -0.034 A
HETATM   18  C16 UNL     1       8.750  57.745  -1.192  1.00  0.00     0.050 C
ENDBRANCH   9  12
ENDBRANCH   6   8
BRANCH   1  19
HETATM   19  C3  UNL     1       6.105  51.348   2.759  1.00  0.00     0.270 C
HETATM   20  N2  UNL     1       4.750  51.549   2.474  1.00  0.00    -0.261 N
ATOM     21  H2  UNL     1       4.504  52.339   1.876  1.00  0.00     0.190 HD
HETATM   22  O3  UNL     1       6.472  50.376   3.500  1.00  0.00    -0.266 OA
BRANCH  20  23
HETATM   23  N1  UNL     1       3.718  50.751   2.946  1.00  0.00    -0.242 N
HETATM   24  C2  UNL     1       2.677  50.375   2.082  1.00  0.00     0.379 C
HETATM   25  O2  UNL     1       2.658  50.751   0.873  1.00  0.00    -0.237 OA
ATOM     26  H1  UNL     1       3.715  50.438   3.917  1.00  0.00     0.192 HD
BRANCH  24  27
HETATM   27  O1  UNL     1       1.656  49.583   2.550  1.00  0.00    -0.308 OA
HETATM   28  C1  UNL     1       1.752  48.875   3.777  1.00  0.00     0.215 C
ENDBRANCH  24  27
ENDBRANCH  20  23
ENDBRANCH   1  19
TORSDOF 5
ENDMDL