MODEL 5
REMARK VINA RESULT: -9.254352902      1.562      2.248
REMARK  6 active torsions:
REMARK  status: ('A' for Active; 'I' for Inactive)
REMARK    1  A    between atoms: C1_4  and  N2_5
REMARK    2  A    between atoms: C1_4  and  C8_17
REMARK    3  A    between atoms: N2_5  and  O1_7
REMARK    4  A    between atoms: O1_7  and  C2_8
REMARK    5  A    between atoms: C2_8  and  C3_10
REMARK    6  A    between atoms: C11_20  and  C12_21
ROOT
HETATM    1  N1  UNL     1       6.064  51.528   1.780  1.00  0.00    -0.383 N
ATOM      2  H11 UNL     1       7.026  51.789   1.563  1.00  0.00     0.157 HD
ATOM      3  H12 UNL     1       5.874  50.595   2.147  1.00  0.00     0.157 HD
HETATM    4  C1  UNL     1       5.107  52.346   1.601  1.00  0.00     0.136 C
ENDROOT
BRANCH   4   5
HETATM    5  N2  UNL     1       3.790  51.989   1.898  1.00  0.00    -0.240 N
ATOM      6  H2  UNL     1       3.113  52.741   2.028  1.00  0.00     0.196 HD
BRANCH   5   7
HETATM    7  O1  UNL     1       3.339  50.697   2.030  1.00  0.00    -0.193 OA
BRANCH   7   8
HETATM    8  C2  UNL     1       3.318  49.999   3.209  1.00  0.00     0.316 C
HETATM    9  O2  UNL     1       4.262  50.197   4.019  1.00  0.00    -0.257 OA
BRANCH   8  10
HETATM   10  C3  UNL     1       2.275  49.051   3.577  1.00  0.00     0.056 A
HETATM   11  C4  UNL     1       2.348  48.361   4.768  1.00  0.00     0.020 A
HETATM   12  C5  UNL     1       1.356  47.446   5.141  1.00  0.00     0.018 A
HETATM   13  C6  UNL     1       0.294  47.243   4.285  1.00  0.00     0.087 A
HETATM   14  N3  UNL     1       0.233  47.917   3.132  1.00  0.00    -0.374 N
HETATM   15  C7  UNL     1       1.195  48.811   2.760  1.00  0.00     0.105 A
ATOM     16  H3  UNL     1      -0.559  47.756   2.509  1.00  0.00     0.164 HD
ENDBRANCH   8  10
ENDBRANCH   7   8
ENDBRANCH   5   7
ENDBRANCH   4   5
BRANCH   4  17
HETATM   17  C8  UNL     1       5.378  53.680   1.076  1.00  0.00     0.051 A
HETATM   18  C9  UNL     1       6.151  54.032   0.008  1.00  0.00     0.024 A
HETATM   19  C10 UNL     1       6.257  55.333  -0.295  1.00  0.00     0.021 A
HETATM   20  C11 UNL     1       5.575  56.220   0.495  1.00  0.00     0.016 A
HETATM   21  S1  UNL     1       4.812  55.211   1.633  1.00  0.00    -0.086 SA
BRANCH  20  22
HETATM   22  C12 UNL     1       5.517  57.679   0.391  1.00  0.00    -0.019 A
HETATM   23  C13 UNL     1       6.484  58.367  -0.303  1.00  0.00     0.013 A
HETATM   24  C14 UNL     1       6.401  59.757  -0.385  1.00  0.00     0.001 A
HETATM   25  C15 UNL     1       5.374  60.442   0.212  1.00  0.00     0.000 A
HETATM   26  C16 UNL     1       4.411  59.749   0.904  1.00  0.00     0.001 A
HETATM   27  C17 UNL     1       4.503  58.379   0.979  1.00  0.00     0.013 A
ENDBRANCH  20  22
ENDBRANCH   4  17
TORSDOF 6
ENDMDL