MODEL 5
REMARK VINA RESULT: -9.064313032      3.301     10.095
REMARK  4 active torsions:
REMARK  status: ('A' for Active; 'I' for Inactive)
REMARK    1  A    between atoms: C4_4  and  O1_5
REMARK    2  A    between atoms: C5_7  and  C6_8
REMARK    3  A    between atoms: N1_9  and  N2_11
REMARK       I    between atoms: N2_11  and  C7_13
REMARK    4  A    between atoms: C7_13  and  C8_15
ROOT
HETATM    1  N2  UNL     1       3.486  51.103   2.426  1.00  0.00    -0.265 N
ATOM      2  H2  UNL     1       2.643  51.253   1.872  1.00  0.00     0.190 HD
HETATM    3  C7  UNL     1       3.530  50.055   3.381  1.00  0.00     0.293 C
HETATM    4  O2  UNL     1       4.552  49.870   4.055  1.00  0.00    -0.264 OA
ENDROOT
BRANCH   1   5
HETATM    5  N1  UNL     1       4.579  51.918   2.247  1.00  0.00    -0.308 N
HETATM    6  C6  UNL     1       4.715  52.685   1.245  1.00  0.00     0.129 C
ATOM      7  H1  UNL     1       5.315  51.906   2.953  1.00  0.00     0.186 HD
BRANCH   6   8
HETATM    8  C5  UNL     1       5.901  53.529   1.112  1.00  0.00     0.055 A
HETATM    9  C4  UNL     1       7.100  53.567   1.742  1.00  0.00     0.085 A
HETATM   10  C3  UNL     1       7.986  54.513   1.348  1.00  0.00     0.052 A
HETATM   11  C2  UNL     1       7.614  55.356   0.349  1.00  0.00    -0.018 A
HETATM   12  C1  UNL     1       8.429  56.481  -0.255  1.00  0.00     0.056 C
HETATM   13  S1  UNL     1       6.045  54.834  -0.032  1.00  0.00    -0.091 SA
BRANCH   9  14
HETATM   14  O1  UNL     1       7.442  52.667   2.778  1.00  0.00    -0.359 OA
ATOM     15  H1  UNL     1       7.102  52.800   3.655  1.00  0.00     0.217 HD
ENDBRANCH   9  14
ENDBRANCH   6   8
ENDBRANCH   1   5
BRANCH   3  16
HETATM   16  C8  UNL     1       2.356  49.183   3.569  1.00  0.00     0.146 A
HETATM   17  C9  UNL     1       2.246  48.161   4.477  1.00  0.00     0.057 A
HETATM   18  C10 UNL     1       0.984  47.626   4.300  1.00  0.00     0.001 A
HETATM   19  C11 UNL     1       0.304  46.577   4.925  1.00  0.00     0.021 A
HETATM   20  C17 UNL     1       0.386  48.346   3.295  1.00  0.00     0.087 A
HETATM   21  C12 UNL     1      -0.966  46.292   4.507  1.00  0.00    -0.055 A
HETATM   22  C13 UNL     1      -1.695  45.177   5.167  1.00  0.00     0.049 C
HETATM   23  C14 UNL     1      -1.555  47.007   3.511  1.00  0.00    -0.053 A
HETATM   24  C15 UNL     1      -2.954  46.641   3.099  1.00  0.00     0.049 C
HETATM   25  C16 UNL     1      -0.904  48.033   2.893  1.00  0.00     0.045 A
HETATM   26  O3  UNL     1       1.236  49.253   2.897  1.00  0.00    -0.304 OA
ENDBRANCH   3  16
TORSDOF 4
ENDMDL