MODEL 2
REMARK VINA RESULT: -7.780815804      1.367      1.676
REMARK  5 active torsions:
REMARK  status: ('A' for Active; 'I' for Inactive)
REMARK    1  A    between atoms: C4_5  and  N1_6
REMARK    2  A    between atoms: N1_6  and  C5_8
REMARK    3  A    between atoms: C5_8  and  N2_10
REMARK       I    between atoms: N2_10  and  C6_12
REMARK    4  A    between atoms: C6_12  and  C7_14
REMARK    5  A    between atoms: C9_16  and  C10_17
ROOT
HETATM    1  N2  UNL     1       5.480  53.186   3.166  1.00  0.00    -0.298 N
ATOM      2  H2  UNL     1       5.540  53.074   4.178  1.00  0.00     0.171 HD
HETATM    3  C6  UNL     1       5.193  52.041   2.424  1.00  0.00     0.276 C
HETATM    4  O1  UNL     1       5.084  51.949   1.184  1.00  0.00    -0.266 OA
ENDROOT
BRANCH   1   5
HETATM    5  C5  UNL     1       5.694  54.471   2.662  1.00  0.00     0.179 C
HETATM    6  S2  UNL     1       6.423  55.524   3.711  1.00  0.00    -0.040 SA
BRANCH   5   7
HETATM    7  N1  UNL     1       5.294  54.925   1.420  1.00  0.00    -0.327 N
ATOM      8  H1  UNL     1       4.836  54.243   0.815  1.00  0.00     0.169 HD
BRANCH   7   9
HETATM    9  C4  UNL     1       5.447  56.239   0.888  1.00  0.00     0.076 A
HETATM   10  S1  UNL     1       4.226  57.481   1.043  1.00  0.00    -0.084 SA
HETATM   11  C3  UNL     1       5.018  58.751   0.238  1.00  0.00     0.058 A
HETATM   12  C2  UNL     1       6.209  58.192  -0.133  1.00  0.00    -0.053 A
HETATM   13  C1  UNL     1       7.224  59.047  -0.889  1.00  0.00     0.049 C
HETATM   14  C14 UNL     1       6.414  56.894   0.210  1.00  0.00     0.044 A
ENDBRANCH   7   9
ENDBRANCH   5   7
ENDBRANCH   1   5
BRANCH   3  15
HETATM   15  C7  UNL     1       4.987  50.736   3.123  1.00  0.00     0.125 A
HETATM   16  C8  UNL     1       3.788  50.236   3.569  1.00  0.00     0.072 A
HETATM   17  C9  UNL     1       4.029  49.016   4.206  1.00  0.00     0.086 A
HETATM   18  O2  UNL     1       5.305  48.838   4.121  1.00  0.00    -0.241 OA
HETATM   19  N3  UNL     1       5.895  49.833   3.492  1.00  0.00    -0.256 N
ATOM     20  H3  UNL     1       6.897  49.901   3.312  1.00  0.00     0.195 HD
BRANCH  17  21
HETATM   21  C10 UNL     1       2.940  48.210   4.801  1.00  0.00     0.000 C
HETATM   22  C11 UNL     1       2.656  48.733   6.200  1.00  0.00     0.021 C
HETATM   23  C12 UNL     1       3.291  46.753   4.924  1.00  0.00     0.021 C
HETATM   24  C13 UNL     1       1.695  48.314   3.931  1.00  0.00     0.021 C
ENDBRANCH  17  21
ENDBRANCH   3  15
TORSDOF 5
ENDMDL