MODEL 4
REMARK VINA RESULT: -9.260942729      1.479      2.275
REMARK  6 active torsions:
REMARK  status: ('A' for Active; 'I' for Inactive)
REMARK    1  A    between atoms: C1_2  and  C2_3
REMARK    2  A    between atoms: C1_2  and  C8_13
REMARK    3  A    between atoms: C5_6  and  O2_7
REMARK    4  A    between atoms: C6_9  and  O3_10
REMARK    5  A    between atoms: C11_16  and  C12_17
REMARK    6  A    between atoms: C18_23  and  N1_24
ROOT
HETATM    1  C8  UNL     1       6.670  53.013   0.966  1.00  0.00     0.017 A
HETATM    2  C9  UNL     1       6.169  53.542  -0.214  1.00  0.00     0.016 A
HETATM    3  C10 UNL     1       6.101  54.899  -0.389  1.00  0.00     0.016 A
HETATM    4  C11 UNL     1       6.526  55.789   0.598  1.00  0.00     0.007 A
HETATM    5  C18 UNL     1       7.024  55.296   1.767  1.00  0.00     0.115 A
HETATM    6  C19 UNL     1       7.082  53.900   1.921  1.00  0.00     0.052 A
ENDROOT
BRANCH   1   7
HETATM    7  C1  UNL     1       6.821  51.595   1.207  1.00  0.00     0.192 C
HETATM    8  O1  UNL     1       7.617  50.920   0.469  1.00  0.00    -0.287 OA
BRANCH   7   9
HETATM    9  C2  UNL     1       6.099  50.917   2.249  1.00  0.00     0.018 A
HETATM   10  C3  UNL     1       6.679  50.240   3.300  1.00  0.00     0.018 A
HETATM   11  C4  UNL     1       5.915  49.615   4.259  1.00  0.00     0.040 A
HETATM   12  C5  UNL     1       4.539  49.629   4.229  1.00  0.00     0.098 A
HETATM   13  C6  UNL     1       3.956  50.303   3.185  1.00  0.00     0.099 A
HETATM   14  C7  UNL     1       4.699  50.933   2.216  1.00  0.00     0.054 A
BRANCH  12  15
HETATM   15  O2  UNL     1       3.765  48.992   5.209  1.00  0.00    -0.358 OA
ATOM     16  H2  UNL     1       4.129  48.341   5.797  1.00  0.00     0.217 HD
ENDBRANCH  12  15
BRANCH  13  17
HETATM   17  O3  UNL     1       2.562  50.331   3.133  1.00  0.00    -0.358 OA
ATOM     18  H3  UNL     1       2.124  49.612   2.694  1.00  0.00     0.217 HD
ENDBRANCH  13  17
ENDBRANCH   7   9
ENDBRANCH   1   7
BRANCH   5  19
HETATM   19  N1  UNL     1       7.535  56.115   2.801  1.00  0.00    -0.115 N
HETATM   20  O4  UNL     1       8.669  56.551   2.799  1.00  0.00    -0.532 OA
HETATM   21  O5  UNL     1       6.730  56.477   3.889  1.00  0.00    -0.532 OA
ENDBRANCH   5  19
BRANCH   4  22
HETATM   22  C12 UNL     1       6.406  57.224   0.365  1.00  0.00    -0.024 A
HETATM   23  C13 UNL     1       7.418  57.881  -0.302  1.00  0.00     0.012 A
HETATM   24  C14 UNL     1       7.349  59.231  -0.593  1.00  0.00     0.001 A
HETATM   25  C15 UNL     1       6.248  59.955  -0.211  1.00  0.00     0.000 A
HETATM   26  C16 UNL     1       5.223  59.332   0.456  1.00  0.00     0.001 A
HETATM   27  C17 UNL     1       5.306  57.982   0.739  1.00  0.00     0.012 A
ENDBRANCH   4  22
TORSDOF 6
ENDMDL