MODEL 5
REMARK VINA RESULT: -7.752081299      3.285      4.591
REMARK  5 active torsions:
REMARK  status: ('A' for Active; 'I' for Inactive)
REMARK    1  A    between atoms: O1_2  and  C2_3
REMARK    2  A    between atoms: C5_6  and  C6_7
REMARK    3  A    between atoms: C6_7  and  C7_9
REMARK    4  A    between atoms: C11_13  and  N1_14
REMARK       I    between atoms: N1_14  and  C12_16
REMARK       I    between atoms: C12_16  and  N2_18
REMARK    5  A    between atoms: N2_18  and  C13_20
ROOT
HETATM    1  C7  UNL     1       5.182  56.723   1.545  1.00  0.00     0.018 A
HETATM    2  C8  UNL     1       4.106  55.893   1.715  1.00  0.00     0.015 A
HETATM    3  C9  UNL     1       4.353  54.590   2.125  1.00  0.00     0.003 A
HETATM    4  C10 UNL     1       5.632  54.153   2.348  1.00  0.00     0.029 A
HETATM    5  C11 UNL     1       6.761  54.981   2.182  1.00  0.00     0.037 A
HETATM    6  C17 UNL     1       6.487  56.260   1.780  1.00  0.00     0.045 A
ENDROOT
BRANCH   5   7
HETATM    7  N1  UNL     1       8.033  54.428   2.396  1.00  0.00    -0.309 N
HETATM    8  C12 UNL     1       8.868  53.885   1.406  1.00  0.00     0.321 C
HETATM    9  O3  UNL     1       8.626  53.829   0.174  1.00  0.00    -0.247 OA
HETATM   10  N2  UNL     1      10.149  53.312   1.767  1.00  0.00    -0.335 N
ATOM     11  H2  UNL     1      10.426  53.312   2.748  1.00  0.00     0.165 HD
ATOM     12  H1  UNL     1       8.381  54.419   3.354  1.00  0.00     0.170 HD
BRANCH  10  13
HETATM   13  C13 UNL     1      11.042  52.747   0.803  1.00  0.00     0.023 C
HETATM   14  C14 UNL     1      12.431  52.551   1.414  1.00  0.00     0.037 C
HETATM   15  C15 UNL     1      10.469  51.415   0.325  1.00  0.00     0.037 C
HETATM   16  C16 UNL     1      11.227  53.685  -0.372  1.00  0.00     0.037 C
ENDBRANCH  10  13
ENDBRANCH   5   7
BRANCH   1  17
HETATM   17  C6  UNL     1       5.003  58.073   1.089  1.00  0.00     0.199 C
HETATM   18  O2  UNL     1       3.864  58.617   1.363  1.00  0.00    -0.286 OA
BRANCH  17  19
HETATM   19  C5  UNL     1       5.972  58.892   0.360  1.00  0.00     0.058 A
HETATM   20  C4  UNL     1       6.055  60.209   0.052  1.00  0.00     0.026 A
HETATM   21  C3  UNL     1       7.087  60.625  -0.695  1.00  0.00     0.046 A
HETATM   22  C2  UNL     1       7.996  59.689  -1.101  1.00  0.00     0.109 A
HETATM   23  S1  UNL     1       7.382  58.247  -0.424  1.00  0.00    -0.062 SA
BRANCH  22  24
HETATM   24  O1  UNL     1       9.152  59.869  -1.884  1.00  0.00    -0.349 OA
HETATM   25  C1  UNL     1      10.029  58.852  -2.215  1.00  0.00     0.211 C
ENDBRANCH  22  24
ENDBRANCH  17  19
ENDBRANCH   1  17
TORSDOF 5
ENDMDL