MODEL 3
REMARK VINA RESULT: -8.786222642      1.967      8.121
REMARK  4 active torsions:
REMARK  status: ('A' for Active; 'I' for Inactive)
REMARK    1  A    between atoms: C2_4  and  C3_5
REMARK    2  A    between atoms: C8_10  and  N2_11
REMARK    3  A    between atoms: C10_15  and  C11_16
REMARK       I    between atoms: C11_16  and  N3_18
REMARK    4  A    between atoms: N3_18  and  C12_20
ROOT
HETATM    1  N1  UNL     1       8.235  52.107   0.749  1.00  0.00    -0.093 NA
HETATM    2  C1  UNL     1       7.651  53.423   0.621  1.00  0.00     0.103 A
HETATM    3  S1  UNL     1       8.414  54.871   0.110  1.00  0.00    -0.074 SA
HETATM    4  C2  UNL     1       7.122  55.955   0.219  1.00  0.00     0.020 A
HETATM    5  C9  UNL     1       6.102  55.141   0.662  1.00  0.00     0.039 A
HETATM    6  C10 UNL     1       6.375  53.850   0.867  1.00  0.00     0.064 A
ENDROOT
BRANCH   6   7
HETATM    7  C11 UNL     1       5.342  52.875   1.343  1.00  0.00     0.258 C
HETATM    8  O3  UNL     1       4.444  53.322   2.088  1.00  0.00    -0.267 OA
HETATM    9  N3  UNL     1       5.383  51.533   0.971  1.00  0.00    -0.323 N
ATOM     10  H3  UNL     1       6.135  51.229   0.353  1.00  0.00     0.169 HD
BRANCH   9  11
HETATM   11  C12 UNL     1       4.439  50.564   1.401  1.00  0.00     0.035 A
HETATM   12  C13 UNL     1       4.760  49.730   2.482  1.00  0.00     0.029 A
HETATM   13  C14 UNL     1       3.867  48.809   2.931  1.00  0.00     0.002 A
HETATM   14  C15 UNL     1       2.628  48.656   2.354  1.00  0.00     0.000 A
HETATM   15  C16 UNL     1       2.288  49.462   1.293  1.00  0.00     0.002 A
HETATM   16  C17 UNL     1       3.207  50.397   0.844  1.00  0.00     0.029 A
ENDBRANCH   9  11
ENDBRANCH   6   7
BRANCH   4  17
HETATM   17  C3  UNL     1       7.019  57.372  -0.093  1.00  0.00     0.014 A
HETATM   18  C4  UNL     1       5.748  57.966   0.042  1.00  0.00     0.015 A
HETATM   19  C5  UNL     1       5.474  59.278  -0.188  1.00  0.00     0.001 A
HETATM   20  C6  UNL     1       6.512  60.094  -0.583  1.00  0.00     0.002 A
HETATM   21  C7  UNL     1       7.758  59.577  -0.730  1.00  0.00     0.037 A
HETATM   22  C8  UNL     1       8.015  58.195  -0.485  1.00  0.00     0.114 A
BRANCH  22  23
HETATM   23  N2  UNL     1       9.339  57.797  -0.703  1.00  0.00    -0.115 N
HETATM   24  O1  UNL     1       9.671  57.622  -1.930  1.00  0.00    -0.532 OA
HETATM   25  O2  UNL     1      10.276  57.601   0.227  1.00  0.00    -0.532 OA
ENDBRANCH  22  23
ENDBRANCH   4  17
TORSDOF 4
ENDMDL