MODEL 1
REMARK VINA RESULT: -9.447164750      0.000      0.000
REMARK  4 active torsions:
REMARK  status: ('A' for Active; 'I' for Inactive)
REMARK    1  A    between atoms: C6_6  and  N1_7
REMARK       I    between atoms: N1_7  and  C7_9
REMARK    2  A    between atoms: C7_9  and  C8_11
REMARK    3  A    between atoms: C10_14  and  C11_15
REMARK    4  A    between atoms: C11_15  and  C12_17
ROOT
HETATM    1  C8  UNL     1       8.053  53.965   1.127  1.00  0.00     0.081 A
HETATM    2  C9  UNL     1       8.767  52.907   0.623  1.00  0.00     0.161 A
HETATM    3  O2  UNL     1       8.215  51.779   1.041  1.00  0.00    -0.316 OA
HETATM    4  C10 UNL     1       7.177  52.018   1.794  1.00  0.00     0.150 A
HETATM    5  C18 UNL     1       7.039  53.387   1.874  1.00  0.00     0.101 A
HETATM    6  N2  UNL     1       6.062  54.116   2.576  1.00  0.00    -0.098 NA
ENDROOT
BRANCH   1   7
HETATM    7  C7  UNL     1       8.319  55.410   0.914  1.00  0.00     0.260 C
HETATM    8  N1  UNL     1       7.431  56.119   0.092  1.00  0.00    -0.322 N
ATOM      9  H1  UNL     1       6.659  55.583  -0.304  1.00  0.00     0.169 HD
HETATM   10  O1  UNL     1       9.308  55.934   1.469  1.00  0.00    -0.267 OA
BRANCH   8  11
HETATM   11  C6  UNL     1       7.480  57.490  -0.255  1.00  0.00     0.041 A
HETATM   12  C5  UNL     1       8.476  58.077  -0.991  1.00  0.00     0.030 A
HETATM   13  C4  UNL     1       8.465  59.436  -1.301  1.00  0.00     0.003 A
HETATM   14  C3  UNL     1       7.452  60.246  -0.879  1.00  0.00     0.007 A
HETATM   15  C2  UNL     1       6.447  59.685  -0.142  1.00  0.00    -0.054 A
HETATM   16  C1  UNL     1       5.329  60.582   0.323  1.00  0.00     0.049 C
HETATM   17  C19 UNL     1       6.456  58.358   0.161  1.00  0.00    -0.029 A
HETATM   18  C20 UNL     1       5.333  57.803   0.971  1.00  0.00     0.051 C
ENDBRANCH   8  11
ENDBRANCH   1   7
BRANCH   4  19
HETATM   19  C11 UNL     1       6.304  51.064   2.444  1.00  0.00     0.217 C
HETATM   20  O3  UNL     1       6.642  50.507   3.551  1.00  0.00    -0.284 OA
BRANCH  19  21
HETATM   21  C12 UNL     1       5.004  50.649   1.938  1.00  0.00     0.017 A
HETATM   22  C13 UNL     1       4.280  49.643   2.568  1.00  0.00     0.015 A
HETATM   23  C14 UNL     1       3.055  49.209   2.147  1.00  0.00     0.001 A
HETATM   24  C15 UNL     1       2.468  49.780   1.036  1.00  0.00     0.000 A
HETATM   25  C16 UNL     1       3.151  50.782   0.378  1.00  0.00     0.001 A
HETATM   26  C17 UNL     1       4.407  51.209   0.830  1.00  0.00     0.015 A
ENDBRANCH  19  21
ENDBRANCH   4  19
TORSDOF 4
ENDMDL