MODEL 1
REMARK VINA RESULT: -8.332030473      0.000      0.000
REMARK  6 active torsions:
REMARK  status: ('A' for Active; 'I' for Inactive)
REMARK    1  A    between atoms: C5_5  and  N1_6
REMARK    2  A    between atoms: N1_6  and  C6_8
REMARK    3  A    between atoms: C6_8  and  N2_10
REMARK    4  A    between atoms: N2_10  and  N3_12
REMARK    5  A    between atoms: C7_14  and  C8_15
REMARK    6  A    between atoms: C11_18  and  C12_19
ROOT
HETATM    1  N2  UNL     1      10.060  55.250  -0.654  1.00  0.00    -0.276 N
ATOM      2  H2  UNL     1       9.704  54.648  -1.396  1.00  0.00     0.189 HD
ENDROOT
BRANCH   1   3
HETATM    3  C6  UNL     1       9.883  54.829   0.678  1.00  0.00     0.191 C
HETATM    4  S1  UNL     1      11.063  53.831   1.288  1.00  0.00    -0.039 SA
BRANCH   3   5
HETATM    5  N1  UNL     1       8.830  55.172   1.498  1.00  0.00    -0.332 N
ATOM      6  H1  UNL     1       8.936  55.999   2.085  1.00  0.00     0.168 HD
BRANCH   5   7
HETATM    7  C5  UNL     1       7.609  54.456   1.582  1.00  0.00     0.034 A
HETATM    8  C4  UNL     1       6.911  54.204   2.734  1.00  0.00     0.030 A
HETATM    9  C3  UNL     1       5.737  53.465   2.725  1.00  0.00     0.009 A
HETATM   10  C2  UNL     1       5.207  52.943   1.567  1.00  0.00    -0.062 A
HETATM   11  C1  UNL     1       3.936  52.142   1.591  1.00  0.00     0.048 C
HETATM   12  C17 UNL     1       5.899  53.193   0.408  1.00  0.00     0.009 A
HETATM   13  C16 UNL     1       7.061  53.921   0.401  1.00  0.00     0.030 A
ENDBRANCH   5   7
ENDBRANCH   3   5
ENDBRANCH   1   3
BRANCH   1  14
HETATM   14  N3  UNL     1      10.681  56.417  -1.021  1.00  0.00    -0.307 N
HETATM   15  C7  UNL     1      10.333  57.601  -1.133  1.00  0.00     0.144 C
ATOM     16  H3  UNL     1      11.663  56.277  -1.257  1.00  0.00     0.186 HD
BRANCH  15  17
HETATM   17  C8  UNL     1       9.025  58.206  -0.891  1.00  0.00     0.093 A
HETATM   18  C9  UNL     1       8.636  59.441  -1.327  1.00  0.00     0.041 A
HETATM   19  C10 UNL     1       7.341  59.589  -0.869  1.00  0.00     0.043 A
HETATM   20  C11 UNL     1       6.990  58.437  -0.169  1.00  0.00     0.110 A
HETATM   21  O2  UNL     1       8.022  57.643  -0.209  1.00  0.00    -0.307 OA
BRANCH  20  22
HETATM   22  C12 UNL     1       5.699  58.207   0.469  1.00  0.00     0.108 A
HETATM   23  C13 UNL     1       5.183  56.975   0.805  1.00  0.00     0.042 A
HETATM   24  C14 UNL     1       3.931  57.205   1.392  1.00  0.00     0.027 A
HETATM   25  C15 UNL     1       3.779  58.579   1.368  1.00  0.00     0.142 A
HETATM   26  O1  UNL     1       4.851  59.135   0.811  1.00  0.00    -0.320 OA
ENDBRANCH  20  22
ENDBRANCH  15  17
ENDBRANCH   1  14
TORSDOF 6
ENDMDL