MODEL 1
REMARK VINA RESULT: -8.851251139      0.000      0.000
REMARK  7 active torsions:
REMARK  status: ('A' for Active; 'I' for Inactive)
REMARK    1  A    between atoms: C2_2  and  O1_5
REMARK    2  A    between atoms: O1_5  and  C5_6
REMARK       I    between atoms: C5_6  and  N1_8
REMARK    3  A    between atoms: N1_8  and  C6_10
REMARK    4  A    between atoms: C9_13  and  N2_14
REMARK       I    between atoms: N2_14  and  C10_16
REMARK    5  A    between atoms: C10_16  and  C11_18
REMARK    6  A    between atoms: C18_25  and  N3_26
REMARK    7  A    between atoms: N3_26  and  O4_28
ROOT
HETATM    1  C6  UNL     1       4.654  50.504   2.124  1.00  0.00     0.065 A
HETATM    2  C7  UNL     1       4.523  51.001   0.846  1.00  0.00     0.034 A
HETATM    3  C8  UNL     1       4.924  52.283   0.510  1.00  0.00     0.032 A
HETATM    4  C9  UNL     1       5.491  53.160   1.444  1.00  0.00     0.037 A
HETATM    5  C17 UNL     1       5.619  52.664   2.705  1.00  0.00     0.063 A
HETATM    6  C18 UNL     1       5.219  51.382   3.049  1.00  0.00     0.083 A
ENDROOT
BRANCH   4   7
HETATM    7  N2  UNL     1       5.849  54.446   0.990  1.00  0.00    -0.323 N
HETATM    8  C10 UNL     1       5.146  55.616   1.272  1.00  0.00     0.256 C
HETATM    9  O3  UNL     1       4.083  55.685   1.983  1.00  0.00    -0.267 OA
ATOM     10  H2  UNL     1       6.685  54.526   0.411  1.00  0.00     0.169 HD
BRANCH   8  11
HETATM   11  C11 UNL     1       5.657  56.889   0.711  1.00  0.00     0.032 A
HETATM   12  C12 UNL     1       4.908  58.036   0.858  1.00  0.00     0.017 A
HETATM   13  C13 UNL     1       5.376  59.205   0.354  1.00  0.00     0.001 A
HETATM   14  C14 UNL     1       6.583  59.302  -0.306  1.00  0.00     0.000 A
HETATM   15  C15 UNL     1       7.327  58.155  -0.450  1.00  0.00     0.001 A
HETATM   16  C16 UNL     1       6.862  56.939   0.062  1.00  0.00     0.017 A
ENDBRANCH   8  11
ENDBRANCH   4   7
BRANCH   6  17
HETATM   17  N3  UNL     1       5.387  50.934   4.397  1.00  0.00    -0.267 N
ATOM     18  H3  UNL     1       4.785  51.158   5.190  1.00  0.00     0.194 HD
BRANCH  17  19
HETATM   19  O4  UNL     1       6.492  50.156   4.422  1.00  0.00    -0.289 OA
ATOM     20  H4  UNL     1       7.236  50.732   4.560  1.00  0.00     0.244 HD
ENDBRANCH  17  19
ENDBRANCH   6  17
BRANCH   1  21
HETATM   21  N1  UNL     1       4.272  49.222   2.536  1.00  0.00    -0.300 N
HETATM   22  C5  UNL     1       2.980  48.703   2.715  1.00  0.00     0.366 C
HETATM   23  O2  UNL     1       1.918  49.311   2.533  1.00  0.00    -0.238 OA
ATOM     24  H1  UNL     1       5.037  48.577   2.734  1.00  0.00     0.171 HD
BRANCH  22  25
HETATM   25  O1  UNL     1       2.803  47.368   3.142  1.00  0.00    -0.294 OA
BRANCH  25  26
HETATM   26  C2  UNL     1       2.461  47.059   4.475  1.00  0.00     0.061 C
HETATM   27  C1  UNL     1       0.972  46.794   4.523  1.00  0.00     0.046 C
HETATM   28  C3  UNL     1       3.147  45.768   4.924  1.00  0.00     0.046 C
HETATM   29  C4  UNL     1       2.749  48.188   5.433  1.00  0.00     0.046 C
ENDBRANCH  25  26
ENDBRANCH  22  25
ENDBRANCH   1  21
TORSDOF 7
ENDMDL