MODEL 1
REMARK VINA RESULT: -9.036267232      0.000      0.000
REMARK  4 active torsions:
REMARK  status: ('A' for Active; 'I' for Inactive)
REMARK    1  A    between atoms: C3_5  and  C4_6
REMARK    2  A    between atoms: C7_9  and  N2_10
REMARK    3  A    between atoms: C10_15  and  C11_16
REMARK       I    between atoms: C11_16  and  N3_18
REMARK    4  A    between atoms: N3_18  and  C12_20
ROOT
HETATM    1  N1  UNL     1       6.127  61.084   0.024  1.00  0.00    -0.093 NA
HETATM    2  C1  UNL     1       5.533  59.841   0.466  1.00  0.00     0.103 A
HETATM    3  S1  UNL     1       4.016  59.590   1.170  1.00  0.00    -0.085 SA
HETATM    4  C2  UNL     1       4.079  57.926   1.388  1.00  0.00     0.065 A
HETATM    5  C3  UNL     1       5.331  57.566   0.888  1.00  0.00    -0.001 A
HETATM    6  C10 UNL     1       6.115  58.555   0.403  1.00  0.00     0.075 A
ENDROOT
BRANCH   6   7
HETATM    7  C11 UNL     1       7.471  58.433  -0.176  1.00  0.00     0.259 C
HETATM    8  O3  UNL     1       8.319  57.767   0.520  1.00  0.00    -0.267 OA
HETATM    9  N3  UNL     1       7.911  58.956  -1.392  1.00  0.00    -0.323 N
ATOM     10  H3  UNL     1       7.253  59.483  -1.966  1.00  0.00     0.169 HD
BRANCH   9  11
HETATM   11  C12 UNL     1       9.266  58.780  -1.869  1.00  0.00     0.035 A
HETATM   12  C13 UNL     1       9.894  59.862  -2.449  1.00  0.00     0.029 A
HETATM   13  C14 UNL     1      11.172  59.773  -2.958  1.00  0.00     0.002 A
HETATM   14  C15 UNL     1      11.827  58.563  -2.881  1.00  0.00     0.000 A
HETATM   15  C16 UNL     1      11.189  57.494  -2.302  1.00  0.00     0.002 A
HETATM   16  C17 UNL     1       9.890  57.576  -1.781  1.00  0.00     0.029 A
ENDBRANCH   9  11
ENDBRANCH   6   7
BRANCH   5  17
HETATM   17  C4  UNL     1       5.563  56.074   0.862  1.00  0.00    -0.024 A
HETATM   18  C5  UNL     1       5.124  55.268   1.882  1.00  0.00     0.015 A
HETATM   19  C6  UNL     1       5.254  53.900   1.825  1.00  0.00     0.037 A
HETATM   20  C7  UNL     1       5.834  53.297   0.732  1.00  0.00     0.102 A
HETATM   21  C8  UNL     1       6.274  54.109  -0.291  1.00  0.00     0.037 A
HETATM   22  C9  UNL     1       6.148  55.480  -0.241  1.00  0.00     0.015 A
BRANCH  20  23
HETATM   23  N2  UNL     1       5.960  51.884   0.692  1.00  0.00    -0.116 N
HETATM   24  O1  UNL     1       4.943  51.168   0.654  1.00  0.00    -0.532 OA
HETATM   25  O2  UNL     1       7.180  51.254   0.692  1.00  0.00    -0.532 OA
ENDBRANCH  20  23
ENDBRANCH   5  17
TORSDOF 4
ENDMDL