MODEL 1
REMARK VINA RESULT: -9.031392805      0.000      0.000
REMARK  4 active torsions:
REMARK  status: ('A' for Active; 'I' for Inactive)
REMARK    1  A    between atoms: C4_5  and  C5_6
REMARK    2  A    between atoms: C10_12  and  N2_13
REMARK       I    between atoms: N2_13  and  C11_15
REMARK    3  A    between atoms: C11_15  and  C12_17
REMARK    4  A    between atoms: C15_20  and  N3_21
ROOT
HETATM    1  N2  UNL     1       5.865  53.264   0.629  1.00  0.00    -0.321 N
ATOM      2  H2  UNL     1       5.477  52.836  -0.211  1.00  0.00     0.169 HD
HETATM    3  C11 UNL     1       5.422  52.733   1.837  1.00  0.00     0.256 C
HETATM    4  O1  UNL     1       5.807  53.155   2.943  1.00  0.00    -0.267 OA
ENDROOT
BRANCH   1   5
HETATM    5  C10 UNL     1       6.780  54.314   0.413  1.00  0.00     0.060 A
HETATM    6  C1  UNL     1       8.168  54.052   0.359  1.00  0.00     0.073 A
HETATM    7  N1  UNL     1       8.625  52.720   0.527  1.00  0.00    -0.100 NA
HETATM    8  C2  UNL     1       9.102  55.033   0.152  1.00  0.00     0.030 A
HETATM    9  C3  UNL     1       8.704  56.330  -0.014  1.00  0.00     0.015 A
HETATM   10  C4  UNL     1       7.372  56.628   0.030  1.00  0.00    -0.017 A
HETATM   11  C9  UNL     1       6.451  55.633   0.239  1.00  0.00     0.044 A
BRANCH  10  12
HETATM   12  C5  UNL     1       6.953  58.038  -0.152  1.00  0.00     0.015 A
HETATM   13  C6  UNL     1       7.696  59.081  -0.646  1.00  0.00     0.020 A
HETATM   14  C7  UNL     1       7.101  60.276  -0.719  1.00  0.00     0.008 A
HETATM   15  C8  UNL     1       5.804  60.366  -0.298  1.00  0.00     0.050 A
HETATM   16  S1  UNL     1       5.452  58.770   0.189  1.00  0.00    -0.101 SA
ENDBRANCH  10  12
ENDBRANCH   1   5
BRANCH   3  17
HETATM   17  C12 UNL     1       4.455  51.622   1.816  1.00  0.00     0.032 A
HETATM   18  C13 UNL     1       4.341  50.812   2.923  1.00  0.00     0.019 A
HETATM   19  C14 UNL     1       3.449  49.755   2.938  1.00  0.00     0.037 A
HETATM   20  C15 UNL     1       2.661  49.507   1.826  1.00  0.00     0.102 A
HETATM   21  C16 UNL     1       2.766  50.299   0.726  1.00  0.00     0.037 A
HETATM   22  C17 UNL     1       3.671  51.363   0.730  1.00  0.00     0.019 A
BRANCH  20  23
HETATM   23  N3  UNL     1       1.743  48.429   1.821  1.00  0.00    -0.116 N
HETATM   24  O2  UNL     1       2.039  47.324   1.370  1.00  0.00    -0.532 OA
HETATM   25  O3  UNL     1       0.461  48.600   2.333  1.00  0.00    -0.532 OA
ENDBRANCH  20  23
ENDBRANCH   3  17
TORSDOF 4
ENDMDL