MODEL 3
REMARK VINA RESULT: -8.708522724      2.267      2.757
REMARK  5 active torsions:
REMARK  status: ('A' for Active; 'I' for Inactive)
REMARK       I    between atoms: C1_2  and  N1_3
REMARK    1  A    between atoms: C1_2  and  C8_13
REMARK    2  A    between atoms: N1_3  and  C2_5
REMARK    3  A    between atoms: C5_8  and  O2_9
REMARK    4  A    between atoms: C10_15  and  N2_16
REMARK    5  A    between atoms: C11_19  and  C12_20
ROOT
HETATM    1  C8  UNL     1       5.666  53.974   0.898  1.00  0.00     0.076 A
HETATM    2  C9  UNL     1       5.010  55.058   1.368  1.00  0.00     0.062 A
HETATM    3  C10 UNL     1       5.476  56.295   1.038  1.00  0.00     0.122 A
HETATM    4  C11 UNL     1       6.574  56.359   0.264  1.00  0.00     0.049 A
HETATM    5  S1  UNL     1       6.931  54.671   0.000  1.00  0.00    -0.081 SA
ENDROOT
BRANCH   1   6
HETATM    6  C1  UNL     1       5.375  52.534   1.100  1.00  0.00     0.263 C
HETATM    7  O1  UNL     1       6.156  51.753   0.572  1.00  0.00    -0.267 OA
HETATM    8  N1  UNL     1       4.265  52.175   1.853  1.00  0.00    -0.323 N
ATOM      9  H1  UNL     1       3.709  52.942   2.231  1.00  0.00     0.169 HD
BRANCH   8  10
HETATM   10  C2  UNL     1       3.823  50.883   2.154  1.00  0.00     0.035 A
HETATM   11  C3  UNL     1       4.247  50.160   3.229  1.00  0.00     0.032 A
HETATM   12  C4  UNL     1       3.771  48.852   3.497  1.00  0.00     0.039 A
HETATM   13  C5  UNL     1       2.850  48.266   2.660  1.00  0.00     0.065 A
HETATM   14  C6  UNL     1       2.421  48.993   1.575  1.00  0.00     0.039 A
HETATM   15  C7  UNL     1       2.881  50.263   1.313  1.00  0.00     0.032 A
BRANCH  13  16
HETATM   16  O2  UNL     1       2.373  46.987   2.907  1.00  0.00    -0.361 OA
ATOM     17  H2  UNL     1       1.486  46.848   3.219  1.00  0.00     0.217 HD
ENDBRANCH  13  16
ENDBRANCH   8  10
ENDBRANCH   1   6
BRANCH   3  18
HETATM   18  N2  UNL     1       4.746  57.462   1.505  1.00  0.00    -0.114 N
HETATM   19  O3  UNL     1       5.158  58.039   2.512  1.00  0.00    -0.532 OA
HETATM   20  O4  UNL     1       3.701  57.953   0.784  1.00  0.00    -0.532 OA
ENDBRANCH   3  18
BRANCH   4  21
HETATM   21  C12 UNL     1       7.394  57.397  -0.319  1.00  0.00    -0.017 A
HETATM   22  C13 UNL     1       7.028  58.702  -0.448  1.00  0.00     0.013 A
HETATM   23  C14 UNL     1       7.853  59.645  -1.088  1.00  0.00     0.001 A
HETATM   24  C15 UNL     1       9.065  59.250  -1.600  1.00  0.00     0.000 A
HETATM   25  C16 UNL     1       9.436  57.941  -1.470  1.00  0.00     0.001 A
HETATM   26  C17 UNL     1       8.624  57.046  -0.849  1.00  0.00     0.013 A
ENDBRANCH   4  21
TORSDOF 5
ENDMDL