MODEL 3
REMARK VINA RESULT: -8.010693193      0.268      1.188
REMARK  9 active torsions:
REMARK  status: ('A' for Active; 'I' for Inactive)
REMARK    1  A    between atoms: N1_2  and  C3_4
REMARK    2  A    between atoms: C8_9  and  N2_10
REMARK       I    between atoms: N2_10  and  C9_12
REMARK       I    between atoms: C9_12  and  N3_14
REMARK    3  A    between atoms: N3_14  and  C10_16
REMARK    4  A    between atoms: C10_16  and  O2_17
REMARK    5  A    between atoms: C10_16  and  O3_19
REMARK    6  A    between atoms: O3_19  and  C11_20
REMARK    7  A    between atoms: C14_23  and  N4_24
REMARK    8  A    between atoms: N4_24  and  N5_26
REMARK    9  A    between atoms: N5_26  and  N6_27
ROOT
HETATM    1  C10 UNL     1      10.571  54.212   1.082  1.00  0.00     0.271 C
ENDROOT
BRANCH   1   2
HETATM    2  N3  UNL     1      10.552  55.606   0.848  1.00  0.00    -0.268 N
HETATM    3  C9  UNL     1       9.442  56.459   0.715  1.00  0.00     0.328 C
HETATM    4  N2  UNL     1       8.111  56.028   0.781  1.00  0.00    -0.306 N
HETATM    5  O1  UNL     1       9.727  57.694   0.522  1.00  0.00    -0.247 OA
ATOM      6  H2  UNL     1       7.951  55.031   0.925  1.00  0.00     0.170 HD
ATOM      7  H3  UNL     1      11.465  56.053   0.766  1.00  0.00     0.174 HD
BRANCH   4   8
HETATM    8  C8  UNL     1       6.967  56.855   0.665  1.00  0.00     0.062 A
HETATM    9  C3  UNL     1       6.042  56.802   1.710  1.00  0.00     0.056 A
HETATM   10  C4  UNL     1       4.904  57.583   1.768  1.00  0.00     0.031 A
HETATM   11  C5  UNL     1       4.657  58.468   0.740  1.00  0.00     0.002 A
HETATM   12  C6  UNL     1       5.545  58.546  -0.305  1.00  0.00     0.002 A
HETATM   13  C7  UNL     1       6.695  57.736  -0.332  1.00  0.00     0.032 A
BRANCH   9  14
HETATM   14  N1  UNL     1       6.244  55.863   2.770  1.00  0.00    -0.388 N
HETATM   15  C1  UNL     1       5.657  54.552   2.650  1.00  0.00     0.149 C
HETATM   16  C2  UNL     1       7.026  56.272   3.907  1.00  0.00     0.149 C
ENDBRANCH   9  14
ENDBRANCH   4   8
ENDBRANCH   1   2
BRANCH   1  17
HETATM   17  O2  UNL     1      11.309  53.753   2.052  1.00  0.00    -0.326 OA
ATOM     18  H2  UNL     1      11.206  54.129   2.918  1.00  0.00     0.221 HD
ENDBRANCH   1  17
BRANCH   1  19
HETATM   19  O3  UNL     1       9.903  53.226   0.412  1.00  0.00    -0.274 OA
BRANCH  19  20
HETATM   20  C11 UNL     1       9.013  52.343   0.999  1.00  0.00     0.080 A
HETATM   21  C12 UNL     1       7.647  52.343   0.769  1.00  0.00     0.040 A
HETATM   22  C13 UNL     1       6.818  51.434   1.387  1.00  0.00     0.035 A
HETATM   23  C14 UNL     1       7.300  50.486   2.261  1.00  0.00     0.062 A
HETATM   24  C15 UNL     1       8.664  50.477   2.498  1.00  0.00     0.035 A
HETATM   25  C16 UNL     1       9.498  51.396   1.872  1.00  0.00     0.040 A
BRANCH  23  26
HETATM   26  N4  UNL     1       6.440  49.568   2.887  1.00  0.00    -0.217 N
ATOM     27  H4  UNL     1       6.173  48.726   2.377  1.00  0.00     0.203 HD
BRANCH  26  28
HETATM   28  N5  UNL     1       5.996  49.731   4.014  1.00  0.00    -0.243 NA
BRANCH  28  29
HETATM   29  N6  UNL     1       5.273  50.134   4.948  1.00  0.00    -0.260 N
ATOM     30  H62 UNL     1       4.417  50.218   4.399  1.00  0.00     0.193 HD
ATOM     31  H61 UNL     1       4.979  50.429   5.879  1.00  0.00     0.193 HD
ENDBRANCH  28  29
ENDBRANCH  26  28
ENDBRANCH  23  26
ENDBRANCH  19  20
ENDBRANCH   1  19
TORSDOF 9
ENDMDL