MODEL 2
REMARK VINA RESULT: -7.429728946      0.970      1.294
REMARK  6 active torsions:
REMARK  status: ('A' for Active; 'I' for Inactive)
REMARK    1  A    between atoms: N1_3  and  C2_4
REMARK    2  A    between atoms: C2_4  and  C3_5
REMARK    3  A    between atoms: C3_5  and  C4_6
REMARK    4  A    between atoms: C4_6  and  C5_7
REMARK    5  A    between atoms: C13_18  and  O3_19
REMARK    6  A    between atoms: C14_21  and  O4_22
ROOT
HETATM    1  O1  UNL     1      15.112   5.827  15.132  1.00  0.00    -0.245 OA
HETATM    2  C1  UNL     1      15.806   4.833  14.722  1.00  0.00     0.347 A
HETATM    3  N1  UNL     1      16.845   4.878  13.870  1.00  0.00    -0.249 N
HETATM    4  C11 UNL     1      17.306   3.630  13.689  1.00  0.00     0.347 A
HETATM    5  O2  UNL     1      18.282   3.254  12.954  1.00  0.00    -0.245 OA
HETATM    6  N2  UNL     1      16.553   2.809  14.428  1.00  0.00    -0.234 N
HETATM    7  N3  UNL     1      15.648   3.541  15.050  1.00  0.00    -0.234 N
HETATM    8  C12 UNL     1      14.715   2.842  15.917  1.00  0.00     0.188 C
HETATM    9  C13 UNL     1      15.515   1.924  16.810  1.00  0.00     0.168 C
HETATM   10  C14 UNL     1      16.386   0.972  16.056  1.00  0.00     0.168 C
HETATM   11  C15 UNL     1      16.599   1.351  14.617  1.00  0.00     0.188 C
ENDROOT
BRANCH   3  12
HETATM   12  C2  UNL     1      17.411   6.071  13.226  1.00  0.00     0.139 C
BRANCH  12  13
HETATM   13  C3  UNL     1      16.627   6.361  11.955  1.00  0.00     0.021 C
BRANCH  13  14
HETATM   14  C4  UNL     1      16.739   7.848  11.690  1.00  0.00     0.006 C
BRANCH  14  15
HETATM   15  C5  UNL     1      15.908   8.246  10.482  1.00  0.00    -0.014 C
HETATM   16  C6  UNL     1      15.255   7.052   9.839  1.00  0.00     0.004 C
HETATM   17  C7  UNL     1      14.040   7.420   9.034  1.00  0.00     0.000 C
HETATM   18  C8  UNL     1      13.013   8.166   9.824  1.00  0.00     0.000 C
HETATM   19  C9  UNL     1      13.593   8.470  11.211  1.00  0.00     0.000 C
HETATM   20  C10 UNL     1      14.875   9.240  10.971  1.00  0.00     0.004 C
ENDBRANCH  14  15
ENDBRANCH  13  14
ENDBRANCH  12  13
ENDBRANCH   3  12
BRANCH   9  21
HETATM   21  O3  UNL     1      14.656   1.203  17.652  1.00  0.00    -0.391 OA
ATOM     22  H3  UNL     1      13.776   1.202  17.295  1.00  0.00     0.210 HD
ENDBRANCH   9  21
BRANCH  10  23
HETATM   23  O4  UNL     1      15.863  -0.318  16.130  1.00  0.00    -0.391 OA
ATOM     24  H4  UNL     1      15.048  -0.368  15.645  1.00  0.00     0.210 HD
ENDBRANCH  10  23
TORSDOF 6
ENDMDL