MODEL 2
REMARK VINA RESULT: -6.850332412      3.041      6.955
REMARK  5 active torsions:
REMARK  status: ('A' for Active; 'I' for Inactive)
REMARK    1  A    between atoms: C2_2  and  O1_4
REMARK    2  A    between atoms: O1_4  and  C4_5
REMARK    3  A    between atoms: C5_8  and  N2_9
REMARK    4  A    between atoms: N3_12  and  C8_13
REMARK    5  A    between atoms: C12_20  and  N6_21
ROOT
HETATM    1  C8  UNL     1      20.706   2.864   9.057  1.00  0.00     0.250 C
HETATM    2  C9  UNL     1      21.974   3.468   9.454  1.00  0.00     0.079 C
HETATM    3  N4  UNL     1      22.964   3.946   9.767  1.00  0.00    -0.196 NA
ENDROOT
BRANCH   1   4
HETATM    4  N3  UNL     1      19.832   2.564  10.131  1.00  0.00    -0.358 N
HETATM    5  C7  UNL     1      19.594   1.224  10.413  1.00  0.00     0.084 C
HETATM    6  C6  UNL     1      18.429   0.873  11.262  1.00  0.00     0.186 C
HETATM    7  N2  UNL     1      17.683   2.030  11.729  1.00  0.00    -0.208 N
HETATM    8  C11 UNL     1      17.616   3.139  10.822  1.00  0.00     0.186 C
HETATM    9  C10 UNL     1      19.049   3.595  10.654  1.00  0.00     0.084 C
BRANCH   7  10
HETATM   10  C5  UNL     1      17.074   2.037  13.013  1.00  0.00     0.684 A
HETATM   11  N1  UNL     1      16.380   3.088  13.420  1.00  0.00    -0.169 N
HETATM   12  C4  UNL     1      15.742   3.203  14.643  1.00  0.00     0.182 A
ATOM     13  H1  UNL     1      16.310   3.878  12.780  1.00  0.00     0.186 HD
HETATM   14  C13 UNL     1      15.857   2.123  15.481  1.00  0.00     0.140 A
HETATM   15  C12 UNL     1      16.577   1.022  15.070  1.00  0.00     0.140 A
HETATM   16  C14 UNL     1      15.256   2.069  16.806  1.00  0.00     0.107 C
HETATM   17  N5  UNL     1      17.169   0.992  13.860  1.00  0.00    -0.175 N
ATOM     18  H5  UNL     1      17.697   0.165  13.581  1.00  0.00     0.186 HD
HETATM   19  N7  UNL     1      14.799   2.000  17.844  1.00  0.00    -0.191 NA
BRANCH  12  20
HETATM   20  O1  UNL     1      15.077   4.314  14.931  1.00  0.00    -0.330 OA
BRANCH  20  21
HETATM   21  C2  UNL     1      15.079   5.621  14.937  1.00  0.00     0.122 C
HETATM   22  C1  UNL     1      16.543   6.171  15.026  1.00  0.00     0.040 C
HETATM   23  C3  UNL     1      14.493   6.194  13.618  1.00  0.00     0.040 C
ENDBRANCH  20  21
ENDBRANCH  12  20
BRANCH  15  24
HETATM   24  N6  UNL     1      16.681   0.007  15.871  1.00  0.00    -0.384 N
ATOM     25  H62 UNL     1      16.552  -0.932  15.495  1.00  0.00     0.157 HD
ATOM     26  H61 UNL     1      16.887   0.154  16.860  1.00  0.00     0.157 HD
ENDBRANCH  15  24
ENDBRANCH   7  10
ENDBRANCH   1   4
TORSDOF 5
ENDMDL