MODEL 4
REMARK VINA RESULT: -6.519260048      2.364      4.118
REMARK  6 active torsions:
REMARK  status: ('A' for Active; 'I' for Inactive)
REMARK    1  A    between atoms: O1_2  and  C2_3
REMARK    2  A    between atoms: C2_3  and  C3_4
REMARK    3  A    between atoms: C5_6  and  O2_8
REMARK    4  A    between atoms: C8_11  and  N1_12
REMARK    5  A    between atoms: C10_16  and  O5_17
REMARK    6  A    between atoms: C12_19  and  O6_20
ROOT
HETATM    1  C3  UNL     1      16.901   4.122  13.475  1.00  0.00     0.111 C
HETATM    2  C4  UNL     1      16.115   3.067  12.825  1.00  0.00     0.070 C
HETATM    3  C5  UNL     1      16.842   1.763  12.543  1.00  0.00     0.088 C
HETATM    4  C6  UNL     1      16.949   0.898  13.741  1.00  0.00     0.051 C
HETATM    5  C7  UNL     1      18.110   1.996  11.828  1.00  0.00     0.038 A
HETATM    6  C8  UNL     1      18.624   1.125  10.893  1.00  0.00     0.117 A
HETATM    7  C9  UNL     1      19.811   1.498  10.202  1.00  0.00     0.076 A
HETATM    8  C10 UNL     1      20.419   2.689  10.469  1.00  0.00     0.106 A
HETATM    9  C12 UNL     1      19.879   3.536  11.415  1.00  0.00     0.126 A
HETATM   10  C13 UNL     1      18.731   3.221  12.112  1.00  0.00     0.078 A
HETATM   11  N2  UNL     1      18.290   4.138  13.101  1.00  0.00    -0.375 N
HETATM   12  C14 UNL     1      19.201   5.075  13.741  1.00  0.00     0.150 C
ENDROOT
BRANCH   1  13
HETATM   13  C2  UNL     1      16.218   5.453  13.216  1.00  0.00     0.192 C
BRANCH  13  14
HETATM   14  O1  UNL     1      14.930   5.520  13.725  1.00  0.00    -0.394 OA
HETATM   15  C1  UNL     1      15.079   5.446  15.129  1.00  0.00     0.201 C
ENDBRANCH  13  14
ENDBRANCH   1  13
BRANCH   3  16
HETATM   16  O2  UNL     1      15.962   1.135  11.614  1.00  0.00    -0.385 OA
ATOM     17  H2  UNL     1      16.532   0.490  11.213  1.00  0.00     0.211 HD
ENDBRANCH   3  16
BRANCH   9  18
HETATM   18  O6  UNL     1      20.538   4.720  11.639  1.00  0.00    -0.356 OA
ATOM     19  H6  UNL     1      21.486   4.704  11.577  1.00  0.00     0.218 HD
ENDBRANCH   9  18
BRANCH   6  20
HETATM   20  N1  UNL     1      18.077  -0.126  10.581  1.00  0.00    -0.115 N
HETATM   21  O3  UNL     1      17.414  -0.188   9.494  1.00  0.00    -0.532 OA
HETATM   22  O4  UNL     1      18.164  -1.256  11.287  1.00  0.00    -0.532 OA
ENDBRANCH   6  20
BRANCH   8  23
HETATM   23  O5  UNL     1      21.573   3.003   9.765  1.00  0.00    -0.353 OA
HETATM   24  C11 UNL     1      21.595   3.511   8.471  1.00  0.00     0.210 C
ENDBRANCH   8  23
TORSDOF 6
ENDMDL