MODEL 3
REMARK VINA RESULT: -7.055137896      2.865      4.614
REMARK  6 active torsions:
REMARK  status: ('A' for Active; 'I' for Inactive)
REMARK    1  A    between atoms: N1_8  and  C8_9
REMARK    2  A    between atoms: C8_9  and  C9_10
REMARK    3  A    between atoms: C10_13  and  N3_14
REMARK    4  A    between atoms: N3_14  and  C11_16
REMARK    5  A    between atoms: C11_16  and  C12_17
REMARK    6  A    between atoms: C12_17  and  O1_18
ROOT
HETATM    1  C9  UNL     1      17.640   2.555  12.155  1.00  0.00     0.092 A
HETATM    2  N2  UNL     1      17.477   1.339  11.642  1.00  0.00    -0.189 N
ATOM      3  H2  UNL     1      16.622   0.833  11.871  1.00  0.00     0.184 HD
HETATM    4  C10 UNL     1      18.379   0.730  10.833  1.00  0.00     0.680 A
HETATM    5  N4  UNL     1      19.525   1.341  10.493  1.00  0.00    -0.172 N
ATOM      6  H4  UNL     1      20.204   0.884   9.885  1.00  0.00     0.186 HD
HETATM    7  C13 UNL     1      19.752   2.572  10.977  1.00  0.00     0.173 A
HETATM    8  N5  UNL     1      20.778   3.453  10.839  1.00  0.00    -0.223 N
ATOM      9  H5  UNL     1      21.620   3.292  10.286  1.00  0.00     0.198 HD
HETATM   10  O2  UNL     1      20.525   4.535  11.518  1.00  0.00    -0.155 OA
HETATM   11  N6  UNL     1      19.368   4.395  12.098  1.00  0.00    -0.236 N
ATOM     12  H6  UNL     1      18.926   5.096  12.693  1.00  0.00     0.197 HD
HETATM   13  C14 UNL     1      18.837   3.192  11.799  1.00  0.00     0.131 A
ENDROOT
BRANCH   1  14
HETATM   14  C8  UNL     1      16.720   3.283  13.003  1.00  0.00     0.093 C
BRANCH  14  15
HETATM   15  N1  UNL     1      16.042   2.551  14.038  1.00  0.00    -0.282 NA
HETATM   16  C2  UNL     1      15.059   3.387  14.705  1.00  0.00     0.059 C
HETATM   17  C1  UNL     1      15.500   4.788  14.942  1.00  0.00     0.026 C
HETATM   18  C3  UNL     1      14.597   2.706  15.946  1.00  0.00     0.020 C
HETATM   19  C4  UNL     1      15.717   2.637  16.967  1.00  0.00     0.003 C
HETATM   20  C5  UNL     1      17.045   2.414  16.318  1.00  0.00     0.020 C
HETATM   21  C6  UNL     1      16.948   1.895  14.907  1.00  0.00     0.059 C
HETATM   22  C7  UNL     1      16.626   0.390  14.946  1.00  0.00     0.026 C
ENDBRANCH  14  15
ENDBRANCH   1  14
BRANCH   4  23
HETATM   23  N3  UNL     1      18.153  -0.448  10.375  1.00  0.00    -0.224 N
ATOM     24  H3  UNL     1      18.291  -0.638   9.383  1.00  0.00     0.177 HD
BRANCH  23  25
HETATM   25  C11 UNL     1      17.708  -1.500  11.246  1.00  0.00     0.164 C
BRANCH  25  26
HETATM   26  C12 UNL     1      18.733  -2.609  11.357  1.00  0.00     0.184 C
BRANCH  26  27
HETATM   27  O1  UNL     1      18.114  -3.852  11.291  1.00  0.00    -0.399 OA
ATOM     28  H1  UNL     1      18.753  -4.547  11.396  1.00  0.00     0.209 HD
ENDBRANCH  26  27
ENDBRANCH  25  26
ENDBRANCH  23  25
ENDBRANCH   4  23
TORSDOF 6
ENDMDL