MODEL 1
REMARK VINA RESULT: -6.822589541      0.000      0.000
REMARK  5 active torsions:
REMARK  status: ('A' for Active; 'I' for Inactive)
REMARK    1  A    between atoms: C2_2  and  N1_3
REMARK    2  A    between atoms: N1_3  and  C3_5
REMARK    3  A    between atoms: C8_18  and  N6_19
REMARK    4  A    between atoms: N7_23  and  C12_24
REMARK    5  A    between atoms: C12_24  and  C13_25
ROOT
HETATM    1  C13 UNL     1      16.518   5.833  14.539  1.00  0.00     0.144 C
HETATM    2  C14 UNL     1      15.948   6.077  13.252  1.00  0.00     0.060 C
HETATM    3  N8  UNL     1      15.474   6.304  12.225  1.00  0.00    -0.197 NA
ENDROOT
BRANCH   1   4
HETATM    4  C12 UNL     1      17.538   4.740  14.667  1.00  0.00     0.163 C
BRANCH   4   5
HETATM    5  N7  UNL     1      17.313   3.525  13.981  1.00  0.00    -0.164 N
HETATM    6  C6  UNL     1      17.896   3.142  12.808  1.00  0.00     0.172 A
HETATM    7  N4  UNL     1      18.796   3.732  12.012  1.00  0.00    -0.170 N
HETATM    8  C7  UNL     1      17.367   1.879  12.497  1.00  0.00     0.139 A
HETATM    9  C4  UNL     1      19.166   3.048  10.884  1.00  0.00     0.681 A
HETATM   10  C5  UNL     1      19.427   5.003  12.316  1.00  0.00     0.177 C
HETATM   11  N2  UNL     1      18.645   1.821  10.591  1.00  0.00    -0.175 N
HETATM   12  N3  UNL     1      19.994   3.562  10.078  1.00  0.00    -0.234 N
HETATM   13  C3  UNL     1      17.747   1.194  11.361  1.00  0.00     0.148 A
ATOM     14  H2  UNL     1      18.957   1.357   9.739  1.00  0.00     0.186 HD
ATOM     15  H32 UNL     1      20.269   3.053   9.238  1.00  0.00     0.174 HD
ATOM     16  H31 UNL     1      20.384   4.479  10.298  1.00  0.00     0.174 HD
HETATM   17  N5  UNL     1      16.506   1.534  13.463  1.00  0.00    -0.184 N
HETATM   18  C8  UNL     1      16.460   2.524  14.379  1.00  0.00     0.684 A
ATOM     19  H5  UNL     1      15.972   0.665  13.501  1.00  0.00     0.184 HD
BRANCH  13  20
HETATM   20  N1  UNL     1      17.308   0.037  11.015  1.00  0.00    -0.374 N
ATOM     21  H1  UNL     1      16.970   0.018  10.053  1.00  0.00     0.161 HD
BRANCH  20  22
HETATM   22  C2  UNL     1      17.188  -1.191  11.644  1.00  0.00     0.116 C
HETATM   23  C1  UNL     1      18.414  -2.045  11.273  1.00  0.00     0.026 C
ENDBRANCH  20  22
ENDBRANCH  13  20
BRANCH  18  24
HETATM   24  N6  UNL     1      15.727   2.504  15.589  1.00  0.00    -0.217 N
HETATM   25  C9  UNL     1      15.786   1.681  16.812  1.00  0.00     0.143 C
HETATM   26  C10 UNL     1      14.269   1.820  16.910  1.00  0.00     0.041 C
HETATM   27  C11 UNL     1      14.583   3.145  16.216  1.00  0.00     0.143 C
ENDBRANCH  18  24
ENDBRANCH   4   5
ENDBRANCH   1   4
TORSDOF 5
ENDMDL