MODEL 4
REMARK VINA RESULT: -7.671781367      2.486      4.414
REMARK  6 active torsions:
REMARK  status: ('A' for Active; 'I' for Inactive)
REMARK    1  A    between atoms: N1_7  and  C5_8
REMARK    2  A    between atoms: C10_13  and  O3_14
REMARK    3  A    between atoms: C11_16  and  O4_17
REMARK    4  A    between atoms: O4_17  and  C12_18
REMARK    5  A    between atoms: C12_18  and  C14_20
REMARK    6  A    between atoms: C14_20  and  O5_21
ROOT
HETATM    1  C5  UNL     1      17.228   1.319  12.368  1.00  0.00     0.144 C
HETATM    2  C6  UNL     1      16.849  -0.132  12.146  1.00  0.00     0.030 C
HETATM    3  C7  UNL     1      17.123  -0.608  10.773  1.00  0.00     0.003 C
HETATM    4  C8  UNL     1      18.365  -0.116  10.129  1.00  0.00     0.010 C
HETATM    5  C9  UNL     1      18.676   1.317  10.441  1.00  0.00     0.050 C
HETATM    6  C10 UNL     1      20.097   1.713  10.214  1.00  0.00     0.179 C
HETATM    7  C11 UNL     1      20.304   2.773  11.271  1.00  0.00     0.289 C
HETATM    8  O6  UNL     1      19.134   2.780  12.062  1.00  0.00    -0.351 OA
HETATM    9  C15 UNL     1      18.643   1.485  11.976  1.00  0.00     0.156 C
ENDROOT
BRANCH   1  10
HETATM   10  N1  UNL     1      16.911   1.720  13.729  1.00  0.00    -0.246 N
HETATM   11  C2  UNL     1      16.532   2.921  14.176  1.00  0.00     0.038 A
HETATM   12  C1  UNL     1      16.338   4.147  13.405  1.00  0.00     0.070 C
HETATM   13  C3  UNL     1      16.348   2.806  15.533  1.00  0.00     0.110 A
HETATM   14  C4  UNL     1      16.635   1.500  15.844  1.00  0.00     0.306 A
HETATM   15  O1  UNL     1      16.575   1.022  17.004  1.00  0.00    -0.258 OA
HETATM   16  O2  UNL     1      16.958   0.918  14.735  1.00  0.00    -0.193 OA
ENDBRANCH   1  10
BRANCH   6  17
HETATM   17  O3  UNL     1      20.347   2.159   8.926  1.00  0.00    -0.390 OA
ATOM     18  H3  UNL     1      19.559   2.306   8.416  1.00  0.00     0.210 HD
ENDBRANCH   6  17
BRANCH   7  19
HETATM   19  O4  UNL     1      20.409   4.024  10.721  1.00  0.00    -0.352 OA
BRANCH  19  20
HETATM   20  C12 UNL     1      21.394   4.789  11.307  1.00  0.00     0.144 C
HETATM   21  C13 UNL     1      21.159   6.269  10.978  1.00  0.00     0.042 C
BRANCH  20  22
HETATM   22  C14 UNL     1      22.732   4.334  10.779  1.00  0.00     0.195 C
BRANCH  22  23
HETATM   23  O5  UNL     1      23.673   4.275  11.813  1.00  0.00    -0.398 OA
ATOM     24  H5  UNL     1      24.301   3.580  11.653  1.00  0.00     0.209 HD
ENDBRANCH  22  23
ENDBRANCH  20  22
ENDBRANCH  19  20
ENDBRANCH   7  19
TORSDOF 6
ENDMDL