MODEL 4
REMARK VINA RESULT: -7.226268697      3.648      5.273
REMARK  6 active torsions:
REMARK  status: ('A' for Active; 'I' for Inactive)
REMARK    1  A    between atoms: C3_3  and  O1_4
REMARK    2  A    between atoms: N1_9  and  C5_10
REMARK    3  A    between atoms: C5_10  and  C6_11
REMARK    4  A    between atoms: C6_11  and  C7_12
REMARK    5  A    between atoms: C7_12  and  N2_13
REMARK    6  A    between atoms: C13_20  and  O5_21
ROOT
HETATM    1  C7  UNL     1      17.350   5.101  13.358  1.00  0.00     0.274 C
ENDROOT
BRANCH   1   2
HETATM    2  C6  UNL     1      17.002   4.650  14.732  1.00  0.00     0.050 C
BRANCH   2   3
HETATM    3  C5  UNL     1      15.772   3.820  14.741  1.00  0.00     0.136 C
BRANCH   3   4
HETATM    4  N1  UNL     1      15.913   2.456  15.133  1.00  0.00    -0.293 N
HETATM    5  C2  UNL     1      15.312   1.994  16.274  1.00  0.00     0.071 A
HETATM    6  C1  UNL     1      14.464   2.763  17.219  1.00  0.00     0.074 C
HETATM    7  C3  UNL     1      15.617   0.678  16.426  1.00  0.00     0.210 A
HETATM    8  O2  UNL     1      16.377   0.329  15.419  1.00  0.00    -0.235 OA
HETATM    9  C4  UNL     1      16.552   1.396  14.650  1.00  0.00     0.374 A
HETATM   10  O3  UNL     1      17.235   1.363  13.618  1.00  0.00    -0.237 OA
BRANCH   7  11
HETATM   11  O1  UNL     1      15.187  -0.153  17.478  1.00  0.00    -0.339 OA
ATOM     12  H1  UNL     1      15.194  -1.103  17.476  1.00  0.00     0.220 HD
ENDBRANCH   7  11
ENDBRANCH   3   4
ENDBRANCH   2   3
ENDBRANCH   1   2
BRANCH   1  13
HETATM   13  N2  UNL     1      16.981   6.509  13.146  1.00  0.00     0.089 N
HETATM   14  C8  UNL     1      18.021   7.155  12.373  1.00  0.00     0.273 C
HETATM   15  C9  UNL     1      17.314   8.112  11.438  1.00  0.00     0.046 C
HETATM   16  C10 UNL     1      15.989   7.488  11.224  1.00  0.00     0.039 C
HETATM   17  C11 UNL     1      14.842   8.501  11.141  1.00  0.00     0.042 C
HETATM   18  C13 UNL     1      15.830   6.850   9.862  1.00  0.00     0.267 C
HETATM   19  C14 UNL     1      15.789   6.540  12.348  1.00  0.00     0.286 C
HETATM   20  C12 UNL     1      13.806   7.616  10.460  1.00  0.00     0.172 C
HETATM   21  O4  UNL     1      14.477   6.632   9.787  1.00  0.00    -0.361 OA
BRANCH  18  22
HETATM   22  O5  UNL     1      16.592   5.717   9.696  1.00  0.00    -0.370 OA
ATOM     23  H5  UNL     1      16.973   5.642   8.828  1.00  0.00     0.212 HD
ENDBRANCH  18  22
ENDBRANCH   1  13
TORSDOF 6
ENDMDL