MODEL 5
REMARK VINA RESULT: -6.134424053      2.069      2.698
REMARK  7 active torsions:
REMARK  status: ('A' for Active; 'I' for Inactive)
REMARK    1  A    between atoms: C3_3  and  C4_4
REMARK    2  A    between atoms: C4_4  and  C5_5
REMARK    3  A    between atoms: C6_8  and  S1_9
REMARK    4  A    between atoms: S1_9  and  C7_10
REMARK    5  A    between atoms: C7_10  and  N2_11
REMARK    6  A    between atoms: N2_11  and  O1_13
REMARK    7  A    between atoms: C10_17  and  O2_18
ROOT
HETATM    1  C5  UNL     1      16.873   3.913  12.385  1.00  0.00     0.086 A
HETATM    2  N1  UNL     1      16.861   3.215  13.543  1.00  0.00    -0.333 N
ATOM      3  H1  UNL     1      16.858   3.631  14.475  1.00  0.00     0.168 HD
HETATM    4  C6  UNL     1      16.854   1.900  13.291  1.00  0.00     0.154 A
HETATM    5  N3  UNL     1      16.861   1.751  11.955  1.00  0.00    -0.310 N
HETATM    6  C9  UNL     1      16.858   0.505  11.227  1.00  0.00     0.160 C
HETATM    7  C10 UNL     1      16.873   2.971  11.365  1.00  0.00     0.171 A
ENDROOT
BRANCH   1   8
HETATM    8  C4  UNL     1      16.884   5.357  12.193  1.00  0.00     0.048 C
BRANCH   8   9
HETATM    9  C3  UNL     1      17.784   6.155  12.701  1.00  0.00    -0.006 A
HETATM   10  C2  UNL     1      19.001   6.483  12.143  1.00  0.00     0.035 A
HETATM   11  C1  UNL     1      19.455   6.021  10.966  1.00  0.00     0.044 C
HETATM   12  N4  UNL     1      19.627   7.321  12.968  1.00  0.00    -0.355 N
HETATM   13  C12 UNL     1      18.884   7.576  14.063  1.00  0.00     0.008 A
HETATM   14  C14 UNL     1      20.934   7.879  12.709  1.00  0.00     0.156 C
HETATM   15  C11 UNL     1      17.726   6.841  13.893  1.00  0.00     0.038 A
HETATM   16  C13 UNL     1      19.245   8.466  15.213  1.00  0.00     0.068 C
ENDBRANCH   8   9
ENDBRANCH   1   8
BRANCH   7  17
HETATM   17  O2  UNL     1      16.884   3.237   9.992  1.00  0.00    -0.344 OA
ATOM     18  H2  UNL     1      17.637   3.188   9.416  1.00  0.00     0.219 HD
ENDBRANCH   7  17
BRANCH   4  19
HETATM   19  S1  UNL     1      16.837   0.535  14.470  1.00  0.00    -0.046 SA
BRANCH  19  20
HETATM   20  C7  UNL     1      16.484   1.170  16.100  1.00  0.00     0.166 C
BRANCH  20  21
HETATM   21  N2  UNL     1      15.765   0.492  16.935  1.00  0.00    -0.272 N
ATOM     22  H2  UNL     1      16.228   0.036  17.722  1.00  0.00     0.194 HD
BRANCH  21  23
HETATM   23  O1  UNL     1      14.417   0.360  16.808  1.00  0.00    -0.285 OA
HETATM   24  C8  UNL     1      13.568   1.487  16.903  1.00  0.00     0.237 C
ENDBRANCH  21  23
ENDBRANCH  20  21
ENDBRANCH  19  20
ENDBRANCH   4  19
TORSDOF 7
ENDMDL