MODEL 5
REMARK VINA RESULT: -6.647753599      1.933      2.720
REMARK  5 active torsions:
REMARK  status: ('A' for Active; 'I' for Inactive)
REMARK    1  A    between atoms: O1_1  and  C1_3
REMARK    2  A    between atoms: C1_3  and  C2_4
REMARK    3  A    between atoms: C2_4  and  C3_5
REMARK    4  A    between atoms: N1_8  and  C6_9
REMARK    5  A    between atoms: C8_15  and  N4_16
ROOT
HETATM    1  C6  UNL     1      18.437   2.008  11.727  1.00  0.00     0.695 A
HETATM    2  N2  UNL     1      18.079   0.842  11.160  1.00  0.00    -0.187 N
ATOM      3  H2  UNL     1      18.506   0.557  10.279  1.00  0.00     0.185 HD
HETATM    4  C7  UNL     1      17.170   0.052  11.738  1.00  0.00     0.215 A
HETATM    5  N3  UNL     1      16.616   0.438  12.896  1.00  0.00    -0.187 N
ATOM      6  H3  UNL     1      15.924  -0.171  13.331  1.00  0.00     0.185 HD
HETATM    7  C8  UNL     1      16.933   1.592  13.509  1.00  0.00     0.695 A
HETATM    8  N5  UNL     1      17.860   2.359  12.886  1.00  0.00    -0.022 N
ATOM      9  H5  UNL     1      18.131   3.243  13.318  1.00  0.00     0.203 HD
ENDROOT
BRANCH   1  10
HETATM   10  N1  UNL     1      19.418   2.845  11.088  1.00  0.00    -0.215 N
HETATM   11  C5  UNL     1      19.957   2.270   9.863  1.00  0.00     0.143 C
HETATM   12  C4  UNL     1      21.330   2.864   9.643  1.00  0.00     0.045 C
HETATM   13  C3  UNL     1      21.152   4.220   8.994  1.00  0.00     0.080 C
HETATM   14  N6  UNL     1      19.971   4.891   9.381  1.00  0.00    -0.415 N
HETATM   15  C15 UNL     1      19.854   5.243  10.746  1.00  0.00     0.134 C
ATOM     16  H6  UNL     1      19.237   5.111   8.708  1.00  0.00     0.153 HD
HETATM   17  C14 UNL     1      19.742   4.095  11.699  1.00  0.00     0.160 C
BRANCH  13  18
HETATM   18  C2  UNL     1      22.381   5.091   9.205  1.00  0.00     0.050 C
BRANCH  18  19
HETATM   19  C1  UNL     1      23.357   4.425  10.150  1.00  0.00     0.166 C
BRANCH  19  20
HETATM   20  O1  UNL     1      24.524   4.056   9.464  1.00  0.00    -0.401 OA
ATOM     21  H1  UNL     1      24.328   3.877   8.552  1.00  0.00     0.209 HD
ENDBRANCH  19  20
ENDBRANCH  18  19
ENDBRANCH  13  18
ENDBRANCH   1  10
BRANCH   7  22
HETATM   22  N4  UNL     1      16.332   1.988  14.745  1.00  0.00    -0.217 N
HETATM   23  C9  UNL     1      15.529   3.162  14.753  1.00  0.00     0.141 C
HETATM   24  C10 UNL     1      14.711   3.395  15.955  1.00  0.00     0.020 C
HETATM   25  C11 UNL     1      14.847   2.415  17.056  1.00  0.00     0.003 C
HETATM   26  C12 UNL     1      15.238   1.032  16.630  1.00  0.00     0.020 C
HETATM   27  C13 UNL     1      16.586   1.159  15.910  1.00  0.00     0.141 C
ENDBRANCH   7  22
TORSDOF 5
ENDMDL