MODEL 3
REMARK VINA RESULT: -6.682582573      2.088      5.926
REMARK  6 active torsions:
REMARK  status: ('A' for Active; 'I' for Inactive)
REMARK    1  A    between atoms: O1_2  and  C2_3
REMARK    2  A    between atoms: C9_12  and  O4_13
REMARK    3  A    between atoms: C9_12  and  O5_15
REMARK    4  A    between atoms: C10_17  and  O6_18
REMARK    5  A    between atoms: O6_18  and  C11_19
REMARK    6  A    between atoms: C11_19  and  C13_21
ROOT
HETATM    1  C2  UNL     1      17.241   3.132  13.789  1.00  0.00     0.079 C
HETATM    2  C3  UNL     1      16.581   3.793  14.724  1.00  0.00     0.042 C
HETATM    3  C4  UNL     1      15.561   3.219  15.602  1.00  0.00     0.185 C
HETATM    4  O2  UNL     1      15.916   3.210  16.952  1.00  0.00    -0.344 OA
HETATM    5  C5  UNL     1      14.919   2.393  17.483  1.00  0.00     0.158 C
HETATM    6  C6  UNL     1      13.629   3.176  17.497  1.00  0.00     0.078 C
HETATM    7  C7  UNL     1      15.257   1.946  18.891  1.00  0.00     0.078 C
HETATM    8  O3  UNL     1      14.868   1.308  16.609  1.00  0.00    -0.342 OA
HETATM    9  C8  UNL     1      15.261   1.777  15.360  1.00  0.00     0.223 C
HETATM   10  C9  UNL     1      16.581   1.111  14.936  1.00  0.00     0.222 C
HETATM   11  C10 UNL     1      16.927   1.696  13.610  1.00  0.00     0.243 C
ENDROOT
BRANCH  11  12
HETATM   12  O6  UNL     1      17.844   1.008  12.870  1.00  0.00    -0.361 OA
BRANCH  12  13
HETATM   13  C11 UNL     1      17.399   0.382  11.747  1.00  0.00     0.187 C
HETATM   14  C12 UNL     1      16.197   1.190  11.234  1.00  0.00     0.048 C
BRANCH  13  15
HETATM   15  C13 UNL     1      18.372   0.355  10.638  1.00  0.00     0.151 C
HETATM   16  C14 UNL     1      19.669   1.046  10.775  1.00  0.00     0.093 C
HETATM   17  O7  UNL     1      18.107  -0.233   9.620  1.00  0.00    -0.296 OA
ENDBRANCH  13  15
ENDBRANCH  12  13
ENDBRANCH  11  12
BRANCH   1  18
HETATM   18  O1  UNL     1      18.206   3.687  12.962  1.00  0.00    -0.358 OA
HETATM   19  C1  UNL     1      19.087   4.716  13.434  1.00  0.00     0.209 C
ENDBRANCH   1  18
BRANCH  10  20
HETATM   20  O4  UNL     1      16.425  -0.256  14.911  1.00  0.00    -0.361 OA
ATOM     21  H4  UNL     1      16.968  -0.629  14.226  1.00  0.00     0.213 HD
ENDBRANCH  10  20
BRANCH  10  22
HETATM   22  O5  UNL     1      17.486   1.509  15.950  1.00  0.00    -0.361 OA
ATOM     23  H5  UNL     1      17.474   0.775  16.553  1.00  0.00     0.213 HD
ENDBRANCH  10  22
TORSDOF 6
ENDMDL