MODEL 5
REMARK VINA RESULT: -7.517716606      2.937      8.701
REMARK  6 active torsions:
REMARK  status: ('A' for Active; 'I' for Inactive)
REMARK    1  A    between atoms: N1_2  and  C2_4
REMARK    2  A    between atoms: C3_7  and  N3_8
REMARK    3  A    between atoms: C5_15  and  C6_16
REMARK    4  A    between atoms: N6_17  and  N7_19
REMARK       I    between atoms: N7_19  and  C7_21
REMARK    5  A    between atoms: C7_21  and  C8_23
REMARK    6  A    between atoms: C12_31  and  O3_32
ROOT
HETATM    1  C6  UNL     1      17.858 -29.727   6.147  1.00  0.00     0.126 C
HETATM    2  N6  UNL     1      17.911 -30.896   5.896  1.00  0.00    -0.308 N
ATOM      3  H6  UNL     1      17.844 -31.319   6.821  1.00  0.00     0.186 HD
ENDROOT
BRANCH   2   4
HETATM    4  N7  UNL     1      18.008 -31.954   5.114  1.00  0.00    -0.266 N
HETATM    5  C7  UNL     1      17.280 -33.176   5.230  1.00  0.00     0.274 C
HETATM    6  O1  UNL     1      16.441 -33.148   6.219  1.00  0.00    -0.266 OA
ATOM      7  H7  UNL     1      18.673 -31.893   4.344  1.00  0.00     0.190 HD
BRANCH   5   8
HETATM    8  C8  UNL     1      17.363 -34.371   4.437  1.00  0.00     0.089 A
HETATM    9  C9  UNL     1      16.859 -34.249   3.117  1.00  0.00     0.127 A
HETATM   10  N8  UNL     1      16.976 -35.271   2.278  1.00  0.00    -0.306 N
HETATM   11  N9  UNL     1      17.538 -36.421   2.576  1.00  0.00    -0.260 N
ATOM     12  H8  UNL     1      16.603 -35.155   1.335  1.00  0.00     0.186 HD
HETATM   13  C10 UNL     1      17.639 -37.518   1.614  1.00  0.00     0.181 C
HETATM   14  C11 UNL     1      18.019 -36.571   3.801  1.00  0.00     0.296 A
HETATM   15  O2  UNL     1      18.575 -37.654   4.159  1.00  0.00    -0.263 OA
HETATM   16  C12 UNL     1      17.949 -35.560   4.769  1.00  0.00     0.155 A
BRANCH  16  17
HETATM   17  O3  UNL     1      18.456 -35.799   6.022  1.00  0.00    -0.350 OA
HETATM   18  C13 UNL     1      17.578 -36.112   7.118  1.00  0.00     0.210 C
ENDBRANCH  16  17
ENDBRANCH   5   8
ENDBRANCH   2   4
BRANCH   1  19
HETATM   19  C5  UNL     1      17.722 -29.151   7.491  1.00  0.00     0.067 A
HETATM   20  C2  UNL     1      18.763 -28.371   7.941  1.00  0.00     0.131 A
HETATM   21  N2  UNL     1      18.616 -27.854   9.179  1.00  0.00    -0.176 N
HETATM   22  C3  UNL     1      17.513 -28.095   9.911  1.00  0.00     0.678 A
ATOM     23  H2  UNL     1      19.355 -27.268   9.567  1.00  0.00     0.186 HD
HETATM   24  N4  UNL     1      16.479 -28.863   9.480  1.00  0.00    -0.178 N
HETATM   25  C4  UNL     1      16.601 -29.388   8.253  1.00  0.00     0.147 A
ATOM     26  H4  UNL     1      15.655 -29.031  10.057  1.00  0.00     0.185 HD
HETATM   27  N5  UNL     1      15.532 -30.191   7.770  1.00  0.00    -0.081 NA
BRANCH  20  28
HETATM   28  N1  UNL     1      19.838 -28.162   7.225  1.00  0.00    -0.379 N
HETATM   29  C1  UNL     1      21.120 -28.189   7.852  1.00  0.00     0.147 C
ATOM     30  H1  UNL     1      19.761 -27.981   6.225  1.00  0.00     0.160 HD
ENDBRANCH  20  28
BRANCH  22  31
HETATM   31  N3  UNL     1      17.388 -27.595  11.094  1.00  0.00    -0.234 N
ATOM     32  H32 UNL     1      18.128 -27.828  11.756  1.00  0.00     0.174 HD
ATOM     33  H31 UNL     1      16.589 -27.004  11.325  1.00  0.00     0.174 HD
ENDBRANCH  22  31
ENDBRANCH   1  19
TORSDOF 6
ENDMDL