MODEL 5
REMARK VINA RESULT: -8.671266118      2.161      3.922
REMARK  6 active torsions:
REMARK  status: ('A' for Active; 'I' for Inactive)
REMARK    1  A    between atoms: C2_2  and  N1_3
REMARK    2  A    between atoms: C4_5  and  C5_6
REMARK    3  A    between atoms: C5_6  and  N2_7
REMARK    4  A    between atoms: C7_12  and  N4_13
REMARK    5  A    between atoms: N5_16  and  N6_17
REMARK    6  A    between atoms: C11_25  and  C12_26
REMARK       I    between atoms: C12_26  and  N9_28
ROOT
HETATM    1  N2  UNL     1      18.507 -30.783   5.492  1.00  0.00    -0.350 N
ATOM      2  H2  UNL     1      17.524 -30.982   5.302  1.00  0.00     0.166 HD
HETATM    3  C6  UNL     1      18.537 -29.789   6.212  1.00  0.00     0.145 A
HETATM    4  N3  UNL     1      17.345 -29.197   6.585  1.00  0.00    -0.173 N
ATOM      5  H3  UNL     1      16.474 -29.606   6.249  1.00  0.00     0.186 HD
HETATM    6  C7  UNL     1      17.280 -28.114   7.363  1.00  0.00     0.699 A
HETATM    7  N5  UNL     1      18.417 -27.546   7.826  1.00  0.00    -0.077 N
HETATM    8  C8  UNL     1      19.628 -28.041   7.524  1.00  0.00     0.180 A
HETATM    9  N7  UNL     1      20.834 -27.449   8.007  1.00  0.00    -0.078 NA
HETATM   10  C9  UNL     1      19.663 -29.184   6.701  1.00  0.00     0.132 A
HETATM   11  C10 UNL     1      20.968 -29.709   6.388  1.00  0.00     0.107 C
HETATM   12  N8  UNL     1      22.018 -30.109   6.159  1.00  0.00    -0.191 NA
ENDROOT
BRANCH   1  13
HETATM   13  C5  UNL     1      19.242 -31.736   4.838  1.00  0.00     0.105 C
BRANCH  13  14
HETATM   14  C4  UNL     1      18.900 -33.125   5.328  1.00  0.00     0.030 A
HETATM   15  C3  UNL     1      18.314 -34.090   4.557  1.00  0.00     0.125 A
HETATM   16  N1  UNL     1      18.179 -35.171   5.346  1.00  0.00    -0.302 N
HETATM   17  N10 UNL     1      18.652 -34.909   6.549  1.00  0.00    -0.293 N
HETATM   18  C11 UNL     1      19.106 -33.659   6.579  1.00  0.00     0.129 A
ATOM     19  H10 UNL     1      18.667 -35.561   7.332  1.00  0.00     0.187 HD
BRANCH  16  20
HETATM   20  C2  UNL     1      17.592 -36.440   4.917  1.00  0.00     0.143 C
HETATM   21  C1  UNL     1      17.768 -36.656   3.432  1.00  0.00     0.028 C
ENDBRANCH  16  20
BRANCH  18  22
HETATM   22  C12 UNL     1      19.721 -32.953   7.725  1.00  0.00     0.272 C
HETATM   23  O1  UNL     1      20.977 -32.898   7.810  1.00  0.00    -0.266 OA
HETATM   24  N9  UNL     1      18.955 -32.332   8.736  1.00  0.00    -0.355 N
HETATM   25  C13 UNL     1      19.638 -31.663   9.819  1.00  0.00     0.152 C
HETATM   26  C14 UNL     1      17.510 -32.350   8.711  1.00  0.00     0.152 C
ENDBRANCH  18  22
ENDBRANCH  13  14
ENDBRANCH   1  13
BRANCH   7  27
HETATM   27  N6  UNL     1      18.334 -26.423   8.632  1.00  0.00    -0.323 N
ATOM     28  H62 UNL     1      19.191 -26.033   9.025  1.00  0.00     0.178 HD
ATOM     29  H61 UNL     1      17.420 -26.008   8.815  1.00  0.00     0.178 HD
ENDBRANCH   7  27
BRANCH   6  30
HETATM   30  N4  UNL     1      16.147 -27.580   7.696  1.00  0.00    -0.233 N
ATOM     31  H42 UNL     1      16.030 -27.248   8.653  1.00  0.00     0.174 HD
ATOM     32  H41 UNL     1      15.381 -27.487   7.028  1.00  0.00     0.174 HD
ENDBRANCH   6  30
TORSDOF 6
ENDMDL