MODEL 1
REMARK VINA RESULT: -7.997297906      0.000      0.000
REMARK  9 active torsions:
REMARK  status: ('A' for Active; 'I' for Inactive)
REMARK    1  A    between atoms: C2_2  and  O2_4
REMARK    2  A    between atoms: O2_4  and  C3_5
REMARK    3  A    between atoms: C4_6  and  O3_7
REMARK    4  A    between atoms: C5_9  and  N1_10
REMARK    5  A    between atoms: C8_16  and  N2_17
REMARK    6  A    between atoms: C9_21  and  O4_22
REMARK    7  A    between atoms: O4_22  and  C10_23
REMARK    8  A    between atoms: C10_23  and  C11_25
REMARK    9  A    between atoms: N3_27  and  N4_29
REMARK       I    between atoms: N4_29  and  C13_31
ROOT
HETATM    1  C3  UNL     1      19.735 -32.686   8.785  1.00  0.00     0.194 C
HETATM    2  C4  UNL     1      20.745 -31.675   9.262  1.00  0.00     0.181 C
HETATM    3  C5  UNL     1      20.160 -30.296   8.924  1.00  0.00     0.220 C
HETATM    4  C6  UNL     1      19.809 -30.173   7.481  1.00  0.00     0.048 C
HETATM    5  C7  UNL     1      19.112 -28.878   7.236  1.00  0.00     0.014 C
HETATM    6  C8  UNL     1      18.908 -31.315   6.982  1.00  0.00     0.221 C
HETATM    7  C9  UNL     1      19.652 -32.575   7.274  1.00  0.00     0.195 C
ENDROOT
BRANCH   7   8
HETATM    8  O4  UNL     1      19.208 -33.737   6.721  1.00  0.00    -0.306 OA
BRANCH   8   9
HETATM    9  C10 UNL     1      19.317 -34.232   5.449  1.00  0.00     0.307 C
HETATM   10  O5  UNL     1      20.456 -34.225   4.976  1.00  0.00    -0.258 OA
BRANCH   9  11
HETATM   11  C11 UNL     1      18.211 -34.744   4.655  1.00  0.00     0.097 C
HETATM   12  C12 UNL     1      16.852 -34.225   4.942  1.00  0.00     0.076 C
HETATM   13  N3  UNL     1      18.365 -35.618   3.726  1.00  0.00    -0.296 N
ATOM     14  H3  UNL     1      19.289 -35.991   3.511  1.00  0.00     0.187 HD
BRANCH  13  15
HETATM   15  N4  UNL     1      17.240 -36.046   3.019  1.00  0.00    -0.254 N
HETATM   16  C13 UNL     1      17.238 -36.119   1.583  1.00  0.00     0.347 C
HETATM   17  N5  UNL     1      16.083 -36.557   0.881  1.00  0.00    -0.038 NA
HETATM   18  O6  UNL     1      18.266 -35.793   0.941  1.00  0.00    -0.249 OA
ATOM     19  H4  UNL     1      16.400 -36.313   3.532  1.00  0.00     0.191 HD
ENDBRANCH  13  15
ENDBRANCH   9  11
ENDBRANCH   8   9
ENDBRANCH   7   8
BRANCH   1  20
HETATM   20  O2  UNL     1      19.903 -33.964   9.277  1.00  0.00    -0.311 OA
BRANCH  20  21
HETATM   21  C2  UNL     1      19.028 -34.587  10.151  1.00  0.00     0.255 C
HETATM   22  C1  UNL     1      18.109 -33.868  11.056  1.00  0.00     0.126 C
HETATM   23  O1  UNL     1      19.080 -35.861  10.110  1.00  0.00    -0.266 OA
ENDBRANCH  20  21
ENDBRANCH   1  20
BRANCH   6  24
HETATM   24  N2  UNL     1      17.663 -31.189   7.673  1.00  0.00    -0.072 N
ATOM     25  H23 UNL     1      17.330 -32.070   8.067  1.00  0.00     0.274 HD
ATOM     26  H22 UNL     1      17.741 -30.677   8.552  1.00  0.00     0.274 HD
ATOM     27  H21 UNL     1      17.005 -30.767   7.018  1.00  0.00     0.274 HD
ENDBRANCH   6  24
BRANCH   2  28
HETATM   28  O3  UNL     1      20.895 -31.695  10.645  1.00  0.00    -0.391 OA
ATOM     29  H3  UNL     1      21.644 -32.212  10.918  1.00  0.00     0.210 HD
ENDBRANCH   2  28
BRANCH   3  30
HETATM   30  N1  UNL     1      19.104 -29.943   9.828  1.00  0.00    -0.072 N
ATOM     31  H13 UNL     1      18.227 -30.398   9.575  1.00  0.00     0.274 HD
ATOM     32  H12 UNL     1      19.241 -30.364  10.747  1.00  0.00     0.274 HD
ATOM     33  H11 UNL     1      18.995 -28.931   9.892  1.00  0.00     0.274 HD
ENDBRANCH   3  30
TORSDOF 9
ENDMDL