MODEL 4
REMARK VINA RESULT: -8.036952445      3.217      5.159
REMARK  8 active torsions:
REMARK  status: ('A' for Active; 'I' for Inactive)
REMARK    1  A    between atoms: N1_2  and  N2_3
REMARK    2  A    between atoms: N1_2  and  C2_6
REMARK    3  A    between atoms: C2_6  and  C3_7
REMARK    4  A    between atoms: C5_9  and  C6_10
REMARK    5  A    between atoms: C6_10  and  O1_11
REMARK    6  A    between atoms: C6_10  and  C7_13
REMARK    7  A    between atoms: C8_16  and  O4_17
REMARK    8  A    between atoms: C12_24  and  N3_25
ROOT
HETATM    1  C3  UNL     1      17.204 -32.411   6.293  1.00  0.00     0.044 C
HETATM    2  C4  UNL     1      17.748 -32.716   4.916  1.00  0.00     0.019 C
HETATM    3  C5  UNL     1      17.932 -34.229   5.090  1.00  0.00     0.057 C
HETATM    4  C8  UNL     1      18.726 -34.317   6.311  1.00  0.00     0.166 C
HETATM    5  C9  UNL     1      18.213 -33.130   7.161  1.00  0.00     0.153 C
HETATM    6  O5  UNL     1      19.288 -32.336   7.479  1.00  0.00    -0.224 OA
HETATM    7  O6  UNL     1      19.309 -31.880   8.692  1.00  0.00    -0.239 OA
HETATM    8  C10 UNL     1      19.397 -32.847   9.677  1.00  0.00     0.219 C
HETATM    9  C11 UNL     1      18.549 -34.059   9.415  1.00  0.00     0.077 C
HETATM   10  C12 UNL     1      17.642 -34.268  10.612  1.00  0.00     0.216 C
HETATM   11  C13 UNL     1      16.518 -33.308  10.301  1.00  0.00     0.201 C
HETATM   12  O7  UNL     1      16.718 -32.815   9.038  1.00  0.00    -0.380 OA
HETATM   13  C14 UNL     1      17.513 -33.693   8.347  1.00  0.00     0.170 C
ENDROOT
BRANCH   1  14
HETATM   14  C2  UNL     1      16.978 -30.993   6.612  1.00  0.00     0.120 C
BRANCH  14  15
HETATM   15  N1  UNL     1      15.645 -30.560   6.855  1.00  0.00    -0.242 NA
HETATM   16  C1  UNL     1      15.533 -29.230   6.204  1.00  0.00     0.135 C
BRANCH  15  17
HETATM   17  N2  UNL     1      15.547 -30.227   8.239  1.00  0.00    -0.364 NA
ATOM     18  H22 UNL     1      14.915 -30.900   8.672  1.00  0.00     0.171 HD
ATOM     19  H21 UNL     1      16.478 -30.465   8.584  1.00  0.00     0.171 HD
ENDBRANCH  15  17
ENDBRANCH  14  15
ENDBRANCH   1  14
BRANCH   4  20
HETATM   20  O4  UNL     1      20.083 -34.269   6.243  1.00  0.00    -0.392 OA
ATOM     21  H4  UNL     1      20.604 -34.917   6.703  1.00  0.00     0.210 HD
ENDBRANCH   4  20
BRANCH   3  22
HETATM   22  C6  UNL     1      18.257 -34.970   3.878  1.00  0.00     0.225 C
BRANCH  22  23
HETATM   23  O1  UNL     1      18.961 -36.145   4.316  1.00  0.00    -0.384 OA
ATOM     24  H1  UNL     1      19.807 -35.839   4.623  1.00  0.00     0.210 HD
ENDBRANCH  22  23
BRANCH  22  25
HETATM   25  C7  UNL     1      17.192 -35.470   3.025  1.00  0.00     0.203 C
HETATM   26  O2  UNL     1      16.765 -36.666   3.078  1.00  0.00    -0.646 OA
HETATM   27  O3  UNL     1      16.561 -34.675   2.081  1.00  0.00    -0.646 OA
ENDBRANCH  22  25
ENDBRANCH   3  22
BRANCH  10  28
HETATM   28  N3  UNL     1      18.359 -33.947  11.808  1.00  0.00    -0.072 N
ATOM     29  H33 UNL     1      18.498 -34.762  12.406  1.00  0.00     0.274 HD
ATOM     30  H32 UNL     1      19.339 -33.732  11.625  1.00  0.00     0.274 HD
ATOM     31  H31 UNL     1      17.880 -33.188  12.293  1.00  0.00     0.274 HD
ENDBRANCH  10  28
TORSDOF 8
ENDMDL