MODEL 5
REMARK VINA RESULT: -8.840103694      3.648      5.780
REMARK  6 active torsions:
REMARK  status: ('A' for Active; 'I' for Inactive)
REMARK    1  A    between atoms: C2_2  and  N1_3
REMARK    2  A    between atoms: C2_2  and  C3_7
REMARK    3  A    between atoms: C6_13  and  N3_14
REMARK    4  A    between atoms: N3_14  and  N4_16
REMARK    5  A    between atoms: C7_18  and  C8_19
REMARK    6  A    between atoms: C11_28  and  N7_29
ROOT
HETATM    1  N3  UNL     1      20.052 -33.583  10.020  1.00  0.00    -0.132 N
ATOM      2  H3  UNL     1      21.039 -33.842  10.021  1.00  0.00     0.205 HD
ENDROOT
BRANCH   1   3
HETATM    3  C6  UNL     1      19.286 -34.331   9.292  1.00  0.00     0.700 A
HETATM    4  N2  UNL     1      18.534 -35.312   9.793  1.00  0.00    -0.155 N
HETATM    5  C5  UNL     1      17.745 -36.081   9.035  1.00  0.00     0.261 A
ATOM      6  H2  UNL     1      18.563 -35.484  10.798  1.00  0.00     0.187 HD
HETATM    7  C4  UNL     1      17.718 -35.834   7.670  1.00  0.00     0.102 A
HETATM    8  O1  UNL     1      17.036 -37.012   9.536  1.00  0.00    -0.268 OA
HETATM    9  C3  UNL     1      18.486 -34.828   7.137  1.00  0.00     0.062 A
HETATM   10  N8  UNL     1      19.249 -34.104   7.969  1.00  0.00    -0.192 N
ATOM     11  H8  UNL     1      19.823 -33.354   7.583  1.00  0.00     0.184 HD
BRANCH   9  12
HETATM   12  C2  UNL     1      18.471 -34.548   5.682  1.00  0.00     0.229 C
HETATM   13  C1  UNL     1      17.642 -35.615   5.006  1.00  0.00     0.046 C
BRANCH  12  14
HETATM   14  N1  UNL     1      19.847 -34.563   5.216  1.00  0.00    -0.070 N
ATOM     15  H13 UNL     1      19.915 -34.932   4.268  1.00  0.00     0.275 HD
ATOM     16  H12 UNL     1      20.192 -33.618   5.044  1.00  0.00     0.275 HD
ATOM     17  H11 UNL     1      20.456 -35.071   5.858  1.00  0.00     0.275 HD
ENDBRANCH  12  14
ENDBRANCH   9  12
ENDBRANCH   1   3
BRANCH   1  18
HETATM   18  N4  UNL     1      19.747 -32.541  10.758  1.00  0.00    -0.295 N
HETATM   19  C7  UNL     1      19.191 -31.416  10.664  1.00  0.00     0.140 C
ATOM     20  H4  UNL     1      20.061 -32.692  11.717  1.00  0.00     0.186 HD
BRANCH  19  21
HETATM   21  C8  UNL     1      18.611 -30.826   9.477  1.00  0.00     0.092 A
HETATM   22  N5  UNL     1      17.283 -30.645   9.368  1.00  0.00    -0.305 N
HETATM   23  C9  UNL     1      16.713 -30.095   8.266  1.00  0.00     0.327 A
ATOM     24  H5  UNL     1      16.682 -30.931  10.142  1.00  0.00     0.171 HD
HETATM   25  O2  UNL     1      15.467 -29.963   8.247  1.00  0.00    -0.247 OA
HETATM   26  N6  UNL     1      17.457 -29.703   7.230  1.00  0.00    -0.273 N
HETATM   27  C10 UNL     1      18.760 -29.865   7.304  1.00  0.00     0.284 A
ATOM     28  H6  UNL     1      17.027 -29.288   6.402  1.00  0.00     0.173 HD
HETATM   29  O3  UNL     1      19.471 -29.494   6.318  1.00  0.00    -0.265 OA
HETATM   30  C11 UNL     1      19.424 -30.433   8.422  1.00  0.00     0.198 A
BRANCH  30  31
HETATM   31  N7  UNL     1      20.817 -30.556   8.390  1.00  0.00    -0.107 N
HETATM   32  O4  UNL     1      21.664 -29.725   8.641  1.00  0.00    -0.531 OA
HETATM   33  O5  UNL     1      21.342 -31.806   8.021  1.00  0.00    -0.531 OA
ENDBRANCH  30  31
ENDBRANCH  19  21
ENDBRANCH   1  18
TORSDOF 6
ENDMDL