MODEL 4
REMARK VINA RESULT: -8.636746012      2.259      2.795
REMARK  8 active torsions:
REMARK  status: ('A' for Active; 'I' for Inactive)
REMARK    1  A    between atoms: C3_5  and  N2_6
REMARK    2  A    between atoms: N2_6  and  N3_8
REMARK    3  A    between atoms: N3_8  and  C4_10
REMARK    4  A    between atoms: C4_10  and  N4_12
REMARK    5  A    between atoms: N4_12  and  N5_14
REMARK    6  A    between atoms: C5_16  and  C6_17
REMARK    7  A    between atoms: C6_17  and  N6_18
REMARK    8  A    between atoms: N7_24  and  O2_25
ROOT
HETATM    1  N3  UNL     1      18.643 -35.529   5.850  1.00  0.00    -0.261 N
ATOM      2  H3  UNL     1      19.518 -35.266   5.394  1.00  0.00     0.190 HD
ENDROOT
BRANCH   1   3
HETATM    3  N2  UNL     1      17.896 -36.586   5.294  1.00  0.00    -0.128 N
ATOM      4  H2  UNL     1      17.478 -37.317   5.871  1.00  0.00     0.205 HD
BRANCH   3   5
HETATM    5  C3  UNL     1      17.770 -36.572   4.000  1.00  0.00     0.726 A
HETATM    6  N1  UNL     1      18.292 -37.500   3.200  1.00  0.00    -0.190 N
HETATM    7  C2  UNL     1      18.173 -37.506   1.854  1.00  0.00     0.052 A
ATOM      8  H1  UNL     1      18.818 -38.259   3.633  1.00  0.00     0.184 HD
HETATM    9  C1  UNL     1      18.773 -38.561   0.996  1.00  0.00     0.071 C
HETATM   10  C12 UNL     1      17.456 -36.465   1.313  1.00  0.00     0.139 A
HETATM   11  C11 UNL     1      16.900 -35.486   2.106  1.00  0.00     0.314 A
HETATM   12  N8  UNL     1      17.275 -36.381  -0.089  1.00  0.00    -0.094 NA
HETATM   13  N7  UNL     1      17.066 -35.556   3.439  1.00  0.00    -0.010 N
HETATM   14  O3  UNL     1      16.235 -34.521   1.599  1.00  0.00    -0.263 OA
BRANCH  13  15
HETATM   15  O2  UNL     1      16.519 -34.588   4.255  1.00  0.00    -0.266 OA
ATOM     16  H2  UNL     1      15.717 -34.780   4.726  1.00  0.00     0.246 HD
ENDBRANCH  13  15
ENDBRANCH   3   5
ENDBRANCH   1   3
BRANCH   1  17
HETATM   17  C4  UNL     1      18.251 -34.811   7.006  1.00  0.00     0.205 C
HETATM   18  S1  UNL     1      17.832 -35.624   8.370  1.00  0.00    -0.038 SA
BRANCH  17  19
HETATM   19  N4  UNL     1      18.223 -33.404   6.976  1.00  0.00    -0.276 N
ATOM     20  H4  UNL     1      18.263 -32.883   7.852  1.00  0.00     0.189 HD
BRANCH  19  21
HETATM   21  N5  UNL     1      18.140 -32.721   5.781  1.00  0.00    -0.312 N
HETATM   22  C5  UNL     1      19.152 -32.085   5.297  1.00  0.00     0.110 C
ATOM     23  H5  UNL     1      17.259 -32.717   5.269  1.00  0.00     0.185 HD
BRANCH  22  24
HETATM   24  C6  UNL     1      20.474 -32.014   5.941  1.00  0.00     0.318 C
BRANCH  24  25
HETATM   25  N6  UNL     1      20.533 -30.876   6.840  1.00  0.00     0.097 N
HETATM   26  C7  UNL     1      21.093 -31.330   8.083  1.00  0.00     0.299 C
HETATM   27  C8  UNL     1      21.777 -30.244   8.866  1.00  0.00     0.198 C
HETATM   28  O1  UNL     1      22.628 -29.475   8.081  1.00  0.00    -0.388 OA
HETATM   29  C9  UNL     1      21.820 -28.805   7.160  1.00  0.00     0.198 C
HETATM   30  C10 UNL     1      21.279 -29.836   6.201  1.00  0.00     0.299 C
ENDBRANCH  24  25
ENDBRANCH  22  24
ENDBRANCH  19  21
ENDBRANCH  17  19
ENDBRANCH   1  17
TORSDOF 8
ENDMDL