MODEL 2
REMARK VINA RESULT: -7.959332995      2.324      3.405
REMARK  7 active torsions:
REMARK  status: ('A' for Active; 'I' for Inactive)
REMARK    1  A    between atoms: C2_2  and  O1_3
REMARK    2  A    between atoms: O1_3  and  C3_4
REMARK    3  A    between atoms: C3_4  and  C4_6
REMARK    4  A    between atoms: C5_9  and  N2_10
REMARK    5  A    between atoms: N2_10  and  N3_12
REMARK    6  A    between atoms: C7_22  and  S1_23
REMARK    7  A    between atoms: S1_23  and  N7_26
REMARK       I    between atoms: N7_26  and  C8_28
ROOT
HETATM    1  C4  UNL     1      18.121 -33.714   5.094  1.00  0.00     0.141 A
HETATM    2  N1  UNL     1      17.577 -34.295   3.959  1.00  0.00    -0.183 N
ATOM      3  H1  UNL     1      17.417 -33.711   3.139  1.00  0.00     0.184 HD
HETATM    4  C5  UNL     1      17.257 -35.581   3.899  1.00  0.00     0.698 A
HETATM    5  N4  UNL     1      17.443 -36.399   4.944  1.00  0.00    -0.173 N
ATOM      6  H4  UNL     1      17.192 -37.386   4.879  1.00  0.00     0.186 HD
HETATM    7  C6  UNL     1      17.960 -35.904   6.071  1.00  0.00     0.151 A
HETATM    8  N5  UNL     1      18.207 -36.491   7.232  1.00  0.00    -0.283 N
ATOM      9  H5  UNL     1      18.055 -37.475   7.453  1.00  0.00     0.188 HD
HETATM   10  N6  UNL     1      18.678 -35.585   8.037  1.00  0.00    -0.286 N
ATOM     11  H6  UNL     1      18.954 -35.766   9.002  1.00  0.00     0.188 HD
HETATM   12  C7  UNL     1      18.759 -34.352   7.429  1.00  0.00     0.180 A
HETATM   13  C10 UNL     1      18.296 -34.567   6.150  1.00  0.00     0.085 A
ENDROOT
BRANCH  12  14
HETATM   14  S1  UNL     1      19.279 -32.987   8.312  1.00  0.00     0.283 S
HETATM   15  O3  UNL     1      18.351 -32.370   9.311  1.00  0.00    -0.199 OA
HETATM   16  O4  UNL     1      20.241 -33.622   9.404  1.00  0.00    -0.199 OA
BRANCH  14  17
HETATM   17  N7  UNL     1      20.362 -31.930   7.518  1.00  0.00    -0.249 N
HETATM   18  C8  UNL     1      20.808 -30.683   8.029  1.00  0.00     0.227 C
HETATM   19  C9  UNL     1      21.744 -29.783   7.318  1.00  0.00     0.118 C
HETATM   20  O5  UNL     1      20.386 -30.316   9.144  1.00  0.00    -0.273 OA
ATOM     21  H7  UNL     1      20.716 -32.218   6.606  1.00  0.00     0.182 HD
ENDBRANCH  14  17
ENDBRANCH  12  14
BRANCH   1  22
HETATM   22  C3  UNL     1      18.472 -32.345   5.078  1.00  0.00     0.311 C
HETATM   23  O2  UNL     1      19.366 -31.708   4.649  1.00  0.00    -0.258 OA
BRANCH  22  24
HETATM   24  O1  UNL     1      17.535 -31.493   5.747  1.00  0.00    -0.317 OA
BRANCH  24  25
HETATM   25  C2  UNL     1      17.767 -30.111   5.931  1.00  0.00     0.175 C
HETATM   26  C1  UNL     1      16.479 -29.314   5.725  1.00  0.00     0.034 C
ENDBRANCH  24  25
ENDBRANCH  22  24
ENDBRANCH   1  22
BRANCH   4  27
HETATM   27  N2  UNL     1      16.744 -36.122   2.837  1.00  0.00    -0.138 N
ATOM     28  H2  UNL     1      16.494 -37.111   2.862  1.00  0.00     0.205 HD
BRANCH  27  29
HETATM   29  N3  UNL     1      16.523 -35.408   1.673  1.00  0.00    -0.331 N
ATOM     30  H32 UNL     1      17.136 -34.617   1.477  1.00  0.00     0.177 HD
ATOM     31  H31 UNL     1      15.777 -35.645   1.018  1.00  0.00     0.177 HD
ENDBRANCH  27  29
ENDBRANCH   4  27
TORSDOF 7
ENDMDL