MODEL 4
REMARK VINA RESULT: -8.207889882      3.787      9.333
REMARK  7 active torsions:
REMARK  status: ('A' for Active; 'I' for Inactive)
REMARK    1  A    between atoms: C2_2  and  C3_3
REMARK    2  A    between atoms: C3_3  and  N1_4
REMARK       I    between atoms: N1_4  and  C4_6
REMARK       I    between atoms: C4_6  and  N2_8
REMARK    3  A    between atoms: N2_8  and  N3_10
REMARK       I    between atoms: N3_10  and  C5_12
REMARK       I    between atoms: C5_12  and  N4_14
REMARK    4  A    between atoms: N4_14  and  N5_16
REMARK    5  A    between atoms: N5_16  and  C6_18
REMARK    6  A    between atoms: C6_18  and  C7_20
REMARK    7  A    between atoms: N8_25  and  N9_26
ROOT
HETATM    1  N5  UNL     1      17.847 -32.742   5.487  1.00  0.00    -0.283 N
ATOM      2  H5  UNL     1      17.250 -32.442   4.717  1.00  0.00     0.188 HD
ENDROOT
BRANCH   1   3
HETATM    3  N4  UNL     1      18.765 -31.860   6.047  1.00  0.00    -0.249 N
HETATM    4  C5  UNL     1      18.486 -30.496   6.139  1.00  0.00     0.353 C
HETATM    5  N3  UNL     1      19.434 -29.615   6.709  1.00  0.00    -0.246 N
HETATM    6  O2  UNL     1      17.405 -30.040   5.722  1.00  0.00    -0.244 OA
ATOM      7  H3  UNL     1      20.310 -30.022   7.040  1.00  0.00     0.192 HD
ATOM      8  H4  UNL     1      19.655 -32.215   6.397  1.00  0.00     0.192 HD
BRANCH   5   9
HETATM    9  N2  UNL     1      19.274 -28.241   6.858  1.00  0.00    -0.248 N
HETATM   10  C4  UNL     1      18.834 -27.736   8.114  1.00  0.00     0.334 C
HETATM   11  N1  UNL     1      18.624 -26.367   8.385  1.00  0.00    -0.342 N
HETATM   12  O1  UNL     1      18.613 -28.559   9.050  1.00  0.00    -0.246 OA
ATOM     13  H1  UNL     1      18.791 -25.670   7.659  1.00  0.00     0.164 HD
ATOM     14  H2  UNL     1      19.467 -27.608   6.082  1.00  0.00     0.192 HD
BRANCH  11  15
HETATM   15  C3  UNL     1      18.175 -25.957   9.683  1.00  0.00     0.124 C
BRANCH  15  16
HETATM   16  C2  UNL     1      16.690 -25.780   9.732  1.00  0.00     0.015 C
HETATM   17  C1  UNL     1      16.340 -24.429  10.341  1.00  0.00     0.006 C
ENDBRANCH  15  16
ENDBRANCH  11  15
ENDBRANCH   5   9
ENDBRANCH   1   3
BRANCH   1  18
HETATM   18  C6  UNL     1      17.749 -34.069   5.998  1.00  0.00     0.162 C
HETATM   19  S1  UNL     1      17.513 -34.300   7.610  1.00  0.00    -0.055 SA
BRANCH  18  20
HETATM   20  C7  UNL     1      17.853 -35.222   5.116  1.00  0.00     0.179 A
HETATM   21  N6  UNL     1      18.197 -36.497   5.458  1.00  0.00    -0.264 N
HETATM   22  N7  UNL     1      18.170 -37.221   4.356  1.00  0.00    -0.204 N
ATOM     23  H6  UNL     1      18.430 -36.830   6.394  1.00  0.00     0.190 HD
HETATM   24  N8  UNL     1      17.824 -36.483   3.299  1.00  0.00    -0.107 N
ATOM     25  H7  UNL     1      18.387 -38.217   4.316  1.00  0.00     0.212 HD
HETATM   26  N11 UNL     1      17.636 -35.265   3.792  1.00  0.00    -0.243 N
ATOM     27  H11 UNL     1      17.359 -34.459   3.232  1.00  0.00     0.192 HD
BRANCH  24  28
HETATM   28  N9  UNL     1      17.692 -36.901   1.977  1.00  0.00    -0.224 N
HETATM   29  C8  UNL     1      18.284 -37.956   1.417  1.00  0.00     0.138 A
HETATM   30  C9  UNL     1      17.881 -38.008   0.096  1.00  0.00     0.108 A
HETATM   31  N10 UNL     1      17.037 -36.962  -0.122  1.00  0.00    -0.359 N
HETATM   32  C10 UNL     1      16.948 -36.316   1.038  1.00  0.00     0.209 A
ATOM     33  H10 UNL     1      16.569 -36.722  -0.997  1.00  0.00     0.166 HD
ENDBRANCH  24  28
ENDBRANCH  18  20
ENDBRANCH   1  18
TORSDOF 7
ENDMDL