MODEL 5
REMARK VINA RESULT: -7.839980820      2.092      2.354
REMARK  6 active torsions:
REMARK  status: ('A' for Active; 'I' for Inactive)
REMARK    1  A    between atoms: O1_2  and  C2_3
REMARK    2  A    between atoms: C2_3  and  C3_5
REMARK    3  A    between atoms: C7_13  and  O4_14
REMARK    4  A    between atoms: C9_16  and  N3_17
REMARK    5  A    between atoms: N3_17  and  N4_18
REMARK       I    between atoms: N4_18  and  C10_20
REMARK    6  A    between atoms: C13_27  and  N6_28
ROOT
HETATM    1  C3  UNL     1      18.394 -29.249   8.024  1.00  0.00     0.093 C
HETATM    2  C4  UNL     1      19.084 -30.320   8.340  1.00  0.00     0.036 C
HETATM    3  C5  UNL     1      20.326 -30.016   9.049  1.00  0.00     0.070 C
HETATM    4  N1  UNL     1      18.871 -31.746   8.133  1.00  0.00    -0.248 N
HETATM    5  C6  UNL     1      19.818 -32.781   7.924  1.00  0.00     0.330 A
HETATM    6  O3  UNL     1      21.083 -32.904   7.854  1.00  0.00    -0.247 OA
HETATM    7  N2  UNL     1      18.786 -33.709   7.811  1.00  0.00    -0.289 N
ATOM      8  H2  UNL     1      18.740 -34.712   7.631  1.00  0.00     0.169 HD
HETATM    9  C7  UNL     1      17.810 -32.676   8.053  1.00  0.00     0.267 A
HETATM   10  C9  UNL     1      16.903 -32.560   6.868  1.00  0.00     0.279 C
HETATM   11  N5  UNL     1      15.949 -31.486   6.936  1.00  0.00    -0.330 N
ATOM     12  H5  UNL     1      14.985 -31.822   6.924  1.00  0.00     0.164 HD
HETATM   13  C12 UNL     1      16.025 -30.064   7.017  1.00  0.00     0.270 C
HETATM   14  O6  UNL     1      14.928 -29.481   6.788  1.00  0.00    -0.266 OA
HETATM   15  C13 UNL     1      17.088 -29.131   7.306  1.00  0.00     0.112 C
ENDROOT
BRANCH  10  16
HETATM   16  N3  UNL     1      17.631 -32.502   5.602  1.00  0.00    -0.106 NA
BRANCH  16  17
HETATM   17  N4  UNL     1      17.255 -33.658   4.876  1.00  0.00    -0.272 N
HETATM   18  C10 UNL     1      18.172 -34.670   4.538  1.00  0.00     0.229 C
HETATM   19  C11 UNL     1      17.720 -35.850   3.781  1.00  0.00     0.118 C
HETATM   20  O5  UNL     1      19.366 -34.562   4.881  1.00  0.00    -0.273 OA
ATOM     21  H4  UNL     1      16.282 -33.761   4.586  1.00  0.00     0.185 HD
ENDBRANCH  16  17
ENDBRANCH  10  16
BRANCH   9  22
HETATM   22  O4  UNL     1      17.119 -32.945   9.225  1.00  0.00    -0.345 OA
HETATM   23  C8  UNL     1      16.082 -33.847   9.075  1.00  0.00     0.207 C
ENDBRANCH   9  22
BRANCH  15  24
HETATM   24  N6  UNL     1      16.893 -27.933   6.859  1.00  0.00    -0.394 N
ATOM     25  H62 UNL     1      17.744 -27.399   6.683  1.00  0.00     0.156 HD
ATOM     26  H61 UNL     1      15.899 -27.725   6.757  1.00  0.00     0.156 HD
ENDBRANCH  15  24
BRANCH   1  27
HETATM   27  C2  UNL     1      18.885 -27.953   8.379  1.00  0.00     0.297 C
HETATM   28  O2  UNL     1      19.725 -27.235   7.821  1.00  0.00    -0.259 OA
BRANCH  27  29
HETATM   29  O1  UNL     1      18.356 -27.347   9.553  1.00  0.00    -0.322 OA
HETATM   30  C1  UNL     1      18.059 -25.966   9.599  1.00  0.00     0.213 C
ENDBRANCH  27  29
ENDBRANCH   1  27
TORSDOF 6
ENDMDL