MODEL 1
REMARK VINA RESULT: -8.759730862      0.000      0.000
REMARK  6 active torsions:
REMARK  status: ('A' for Active; 'I' for Inactive)
REMARK    1  A    between atoms: S1_2  and  C2_5
REMARK    2  A    between atoms: C2_5  and  C3_6
REMARK    3  A    between atoms: C4_11  and  N3_12
REMARK    4  A    between atoms: N4_15  and  C5_16
REMARK    5  A    between atoms: C6_19  and  N6_20
REMARK    6  A    between atoms: C12_28  and  N8_29
ROOT
HETATM    1  C5  UNL     1      18.943 -33.249   6.596  1.00  0.00     0.708 A
HETATM    2  N5  UNL     1      18.126 -32.256   7.004  1.00  0.00    -0.175 N
ATOM      3  H5  UNL     1      17.224 -32.512   7.405  1.00  0.00     0.186 HD
HETATM    4  C6  UNL     1      18.429 -30.955   6.913  1.00  0.00     0.122 A
HETATM    5  C11 UNL     1      19.651 -30.581   6.372  1.00  0.00     0.097 A
HETATM    6  C12 UNL     1      20.508 -31.574   5.945  1.00  0.00     0.118 A
HETATM    7  N9  UNL     1      20.134 -32.858   6.070  1.00  0.00    -0.176 N
ATOM      8  H9  UNL     1      20.780 -33.581   5.751  1.00  0.00     0.186 HD
ENDROOT
BRANCH   1   9
HETATM    9  N4  UNL     1      18.590 -34.612   6.705  1.00  0.00     0.037 N
HETATM   10  C3  UNL     1      18.294 -35.437   5.699  1.00  0.00     0.152 A
HETATM   11  N1  UNL     1      18.008 -36.664   6.198  1.00  0.00    -0.272 N
HETATM   12  N2  UNL     1      18.128 -36.600   7.500  1.00  0.00    -0.130 N
ATOM     13  H1  UNL     1      17.747 -37.489   5.657  1.00  0.00     0.189 HD
HETATM   14  C4  UNL     1      18.489 -35.329   7.830  1.00  0.00     0.713 A
ATOM     15  H2  UNL     1      17.977 -37.368   8.154  1.00  0.00     0.205 HD
BRANCH  10  16
HETATM   16  C2  UNL     1      18.261 -35.141   4.245  1.00  0.00     0.219 C
BRANCH  16  17
HETATM   17  S1  UNL     1      17.598 -36.574   3.430  1.00  0.00     0.147 S
HETATM   18  C1  UNL     1      17.462 -36.316   1.678  1.00  0.00     0.161 C
HETATM   19  O1  UNL     1      18.492 -37.754   3.666  1.00  0.00    -0.228 OA
HETATM   20  O2  UNL     1      16.245 -36.888   3.995  1.00  0.00    -0.228 OA
ENDBRANCH  16  17
ENDBRANCH  10  16
BRANCH  14  21
HETATM   21  N3  UNL     1      18.681 -34.959   9.048  1.00  0.00    -0.232 N
ATOM     22  H32 UNL     1      19.378 -35.287   9.717  1.00  0.00     0.174 HD
ATOM     23  H31 UNL     1      18.111 -34.245   9.500  1.00  0.00     0.174 HD
ENDBRANCH  14  21
ENDBRANCH   1   9
BRANCH   4  24
HETATM   24  N6  UNL     1      17.556 -29.925   7.347  1.00  0.00    -0.364 N
HETATM   25  C7  UNL     1      16.113 -30.082   7.342  1.00  0.00     0.143 C
HETATM   26  C8  UNL     1      15.536 -28.945   6.559  1.00  0.00     0.133 C
HETATM   27  N7  UNL     1      15.959 -27.670   7.034  1.00  0.00    -0.418 N
HETATM   28  C9  UNL     1      16.948 -27.678   8.058  1.00  0.00     0.133 C
ATOM     29  H7  UNL     1      15.575 -26.801   6.662  1.00  0.00     0.153 HD
HETATM   30  C10 UNL     1      18.068 -28.655   7.821  1.00  0.00     0.143 C
ENDBRANCH   4  24
BRANCH   6  31
HETATM   31  N8  UNL     1      21.668 -31.253   5.430  1.00  0.00    -0.385 N
ATOM     32  H82 UNL     1      21.955 -30.278   5.342  1.00  0.00     0.157 HD
ATOM     33  H81 UNL     1      22.299 -31.987   5.108  1.00  0.00     0.157 HD
ENDBRANCH   6  31
TORSDOF 6
ENDMDL