MODEL 3
REMARK VINA RESULT: -8.525299774      3.518      7.521
REMARK  9 active torsions:
REMARK  status: ('A' for Active; 'I' for Inactive)
REMARK    1  A    between atoms: C2_3  and  C10_11
REMARK    2  A    between atoms: C3_4  and  C4_5
REMARK       I    between atoms: C10_11  and  N2_13
REMARK    3  A    between atoms: N2_13  and  N3_15
REMARK    4  A    between atoms: N3_15  and  C11_17
REMARK    5  A    between atoms: C11_17  and  N4_19
REMARK    6  A    between atoms: N4_19  and  C12_21
REMARK    7  A    between atoms: C15_24  and  C16_25
REMARK    8  A    between atoms: C16_25  and  N5_26
REMARK    9  A    between atoms: N5_26  and  C17_27
ROOT
HETATM    1  N1  UNL     1       6.043  24.630-102.413  1.00  0.00    -0.191 NA
HETATM    2  C1  UNL     1       6.728  23.796-102.888  1.00  0.00     0.105 C
HETATM    3  C2  UNL     1       7.566  22.806-103.494  1.00  0.00     0.114 C
HETATM    4  C3  UNL     1       7.228  21.541-103.492  1.00  0.00     0.039 C
ENDROOT
BRANCH   3   5
HETATM    5  C10 UNL     1       8.808  23.267-104.121  1.00  0.00     0.280 C
HETATM    6  O1  UNL     1       8.929  23.265-105.364  1.00  0.00    -0.265 OA
HETATM    7  N2  UNL     1       9.876  23.720-103.313  1.00  0.00    -0.263 N
ATOM      8  H2  UNL     1       9.800  23.729-102.296  1.00  0.00     0.190 HD
BRANCH   7   9
HETATM    9  N3  UNL     1      11.035  24.155-103.949  1.00  0.00    -0.273 N
ATOM     10  H3  UNL     1      11.224  25.152-104.056  1.00  0.00     0.189 HD
BRANCH   9  11
HETATM   11  C11 UNL     1      11.967  23.174-104.457  1.00  0.00     0.191 C
HETATM   12  S1  UNL     1      12.650  23.510-105.874  1.00  0.00    -0.039 SA
BRANCH  11  13
HETATM   13  N4  UNL     1      12.206  22.034-103.719  1.00  0.00    -0.326 N
ATOM     14  H4  UNL     1      12.800  22.137-102.896  1.00  0.00     0.169 HD
BRANCH  13  15
HETATM   15  C12 UNL     1      11.712  20.736-103.988  1.00  0.00     0.076 A
HETATM   16  C13 UNL     1      10.654  20.000-103.555  1.00  0.00     0.039 A
HETATM   17  C14 UNL     1      10.501  18.752-104.022  1.00  0.00     0.024 A
HETATM   18  C15 UNL     1      11.419  18.287-104.909  1.00  0.00     0.035 A
HETATM   19  S2  UNL     1      12.481  19.601-105.077  1.00  0.00    -0.070 SA
BRANCH  18  20
HETATM   20  C16 UNL     1      11.504  16.935-105.590  1.00  0.00     0.203 C
BRANCH  20  21
HETATM   21  N5  UNL     1      12.710  16.337-105.430  1.00  0.00    -0.398 NA
BRANCH  21  22
HETATM   22  C17 UNL     1      13.821  15.960-105.639  1.00  0.00     0.191 A
HETATM   23  N6  UNL     1      14.827  16.901-105.683  1.00  0.00    -0.327 N
HETATM   24  C18 UNL     1      16.101  16.587-105.904  1.00  0.00     0.183 A
ATOM     25  H6  UNL     1      14.584  17.882-105.540  1.00  0.00     0.169 HD
HETATM   26  N7  UNL     1      16.475  15.315-106.098  1.00  0.00    -0.351 N
HETATM   27  C19 UNL     1      15.560  14.340-106.070  1.00  0.00     0.048 A
ATOM     28  H7  UNL     1      17.455  15.090-106.267  1.00  0.00     0.166 HD
HETATM   29  C20 UNL     1      15.986  13.024-106.270  1.00  0.00     0.030 A
HETATM   30  C24 UNL     1      14.243  14.645-105.844  1.00  0.00     0.049 A
HETATM   31  C21 UNL     1      15.047  12.028-106.236  1.00  0.00     0.002 A
HETATM   32  C22 UNL     1      13.729  12.330-106.009  1.00  0.00     0.001 A
HETATM   33  C23 UNL     1      13.292  13.617-105.811  1.00  0.00     0.018 A
ENDBRANCH  21  22
ENDBRANCH  20  21
ENDBRANCH  18  20
ENDBRANCH  13  15
ENDBRANCH  11  13
ENDBRANCH   9  11
ENDBRANCH   7   9
ENDBRANCH   3   5
BRANCH   4  34
HETATM   34  C4  UNL     1       6.028  21.036-102.901  1.00  0.00    -0.035 A
HETATM   35  C5  UNL     1       5.885  20.808-101.553  1.00  0.00     0.011 A
HETATM   36  C6  UNL     1       4.654  20.336-101.076  1.00  0.00     0.001 A
HETATM   37  C7  UNL     1       3.582  20.089-101.898  1.00  0.00     0.000 A
HETATM   38  C8  UNL     1       3.723  20.317-103.261  1.00  0.00     0.001 A
HETATM   39  C9  UNL     1       4.937  20.785-103.742  1.00  0.00     0.011 A
ENDBRANCH   4  34
TORSDOF 9
ENDMDL