MODEL 3
REMARK VINA RESULT: -9.739253113      3.862      8.062
REMARK  6 active torsions:
REMARK  status: ('A' for Active; 'I' for Inactive)
REMARK    1  A    between atoms: C6_7  and  N2_8
REMARK    2  A    between atoms: N2_8  and  C7_10
REMARK    3  A    between atoms: C11_14  and  S1_15
REMARK    4  A    between atoms: S1_15  and  N3_18
REMARK    5  A    between atoms: N3_18  and  C12_20
REMARK    6  A    between atoms: C17_25  and  C18_26
ROOT
HETATM    1  N1  UNL     1       4.789  20.061-101.281  1.00  0.00    -0.191 NA
HETATM    2  C1  UNL     1       5.780  20.563-101.605  1.00  0.00     0.099 C
HETATM    3  C2  UNL     1       7.008  21.165-102.012  1.00  0.00     0.046 A
HETATM    4  C3  UNL     1       8.209  20.467-101.907  1.00  0.00     0.024 A
HETATM    5  C4  UNL     1       9.400  21.020-102.291  1.00  0.00     0.019 A
HETATM    6  C5  UNL     1       9.455  22.288-102.795  1.00  0.00     0.035 A
HETATM    7  C6  UNL     1      10.645  22.864-103.189  1.00  0.00     0.120 A
HETATM    8  N5  UNL     1      10.596  24.107-103.669  1.00  0.00    -0.318 N
ATOM      9  H5  UNL     1      11.466  24.551-103.964  1.00  0.00     0.170 HD
HETATM   10  C20 UNL     1       9.445  24.804-103.782  1.00  0.00     0.177 A
HETATM   11  S2  UNL     1       9.446  26.328-104.380  1.00  0.00    -0.040 SA
HETATM   12  N6  UNL     1       8.267  24.235-103.393  1.00  0.00    -0.332 N
ATOM     13  H6  UNL     1       7.391  24.752-103.474  1.00  0.00     0.168 HD
HETATM   14  C21 UNL     1       8.277  22.991-102.906  1.00  0.00     0.049 A
HETATM   15  C22 UNL     1       7.062  22.442-102.521  1.00  0.00     0.053 A
ENDROOT
BRANCH   7  16
HETATM   16  N2  UNL     1      11.754  22.185-103.078  1.00  0.00    -0.342 N
ATOM     17  H2  UNL     1      12.089  21.855-102.173  1.00  0.00     0.167 HD
BRANCH  16  18
HETATM   18  C7  UNL     1      12.483  21.923-104.296  1.00  0.00     0.035 A
HETATM   19  C8  UNL     1      12.567  22.893-105.272  1.00  0.00     0.029 A
HETATM   20  C9  UNL     1      13.263  22.641-106.434  1.00  0.00     0.004 A
HETATM   21  C10 UNL     1      13.876  21.411-106.611  1.00  0.00     0.025 A
HETATM   22  C11 UNL     1      13.815  20.417-105.660  1.00  0.00     0.082 A
HETATM   23  C19 UNL     1      13.100  20.705-104.491  1.00  0.00     0.054 A
BRANCH  22  24
HETATM   24  S1  UNL     1      14.612  18.891-105.893  1.00  0.00     0.263 S
HETATM   25  O1  UNL     1      15.465  18.906-107.147  1.00  0.00    -0.200 OA
HETATM   26  O2  UNL     1      15.483  18.615-104.688  1.00  0.00    -0.200 OA
BRANCH  24  27
HETATM   27  N3  UNL     1      13.465  17.615-105.997  1.00  0.00    -0.280 N
ATOM     28  H3  UNL     1      13.830  16.662-105.994  1.00  0.00     0.179 HD
BRANCH  27  29
HETATM   29  C12 UNL     1      12.067  17.764-106.087  1.00  0.00     0.058 A
HETATM   30  C13 UNL     1      11.278  17.673-104.964  1.00  0.00     0.031 A
HETATM   31  C14 UNL     1       9.915  17.852-105.074  1.00  0.00     0.002 A
HETATM   32  C15 UNL     1       9.292  18.124-106.276  1.00  0.00     0.001 A
HETATM   33  C16 UNL     1      10.121  18.206-107.371  1.00  0.00     0.019 A
HETATM   34  C17 UNL     1      11.497  18.032-107.305  1.00  0.00     0.056 A
BRANCH  34  35
HETATM   35  C18 UNL     1      12.294  18.127-108.543  1.00  0.00     0.267 C
HETATM   36  N4  UNL     1      12.849  16.985-109.158  1.00  0.00    -0.057 NA
HETATM   37  O3  UNL     1      12.483  19.229-109.061  1.00  0.00    -0.271 OA
ENDBRANCH  34  35
ENDBRANCH  27  29
ENDBRANCH  24  27
ENDBRANCH  22  24
ENDBRANCH  16  18
ENDBRANCH   7  16
TORSDOF 6
ENDMDL