MODEL 2
REMARK VINA RESULT: -9.151393530      4.877      7.168
REMARK  7 active torsions:
REMARK  status: ('A' for Active; 'I' for Inactive)
REMARK    1  A    between atoms: C1_2  and  C2_4
REMARK    2  A    between atoms: C5_7  and  N2_8
REMARK       I    between atoms: N2_8  and  C6_10
REMARK    3  A    between atoms: C6_10  and  C7_12
REMARK    4  A    between atoms: C8_16  and  C9_17
REMARK    5  A    between atoms: C12_23  and  C13_24
REMARK    6  A    between atoms: C16_27  and  C17_28
REMARK    7  A    between atoms: C18_29  and  C19_30
ROOT
HETATM    1  C2  UNL     1      15.125  16.452-106.351  1.00  0.00     0.040 A
HETATM    2  C3  UNL     1      16.227  16.008-107.124  1.00  0.00     0.020 A
HETATM    3  C4  UNL     1      16.591  16.635-108.276  1.00  0.00     0.030 A
HETATM    4  C5  UNL     1      15.867  17.732-108.703  1.00  0.00     0.035 A
HETATM    5  C11 UNL     1      14.811  18.148-107.945  1.00  0.00     0.043 A
HETATM    6  C12 UNL     1      14.411  17.524-106.753  1.00  0.00    -0.008 A
ENDROOT
BRANCH   4   7
HETATM    7  N2  UNL     1      16.253  18.320-109.923  1.00  0.00    -0.322 N
HETATM    8  C6  UNL     1      16.810  19.621-109.963  1.00  0.00     0.266 C
HETATM    9  O2  UNL     1      17.016  20.349-108.969  1.00  0.00    -0.267 OA
ATOM     10  H2  UNL     1      16.128  17.800-110.792  1.00  0.00     0.169 HD
BRANCH   8  11
HETATM   11  C7  UNL     1      17.171  20.141-111.311  1.00  0.00     0.116 A
HETATM   12  S1  UNL     1      18.704  20.556-111.921  1.00  0.00    -0.007 SA
HETATM   13  N3  UNL     1      18.251  21.039-113.455  1.00  0.00    -0.320 N
HETATM   14  C8  UNL     1      16.919  20.880-113.486  1.00  0.00     0.130 A
ATOM     15  H3  UNL     1      18.855  21.379-114.203  1.00  0.00     0.174 HD
HETATM   16  C10 UNL     1      16.342  20.404-112.352  1.00  0.00     0.102 A
HETATM   17  N5  UNL     1      14.903  20.180-112.231  1.00  0.00    -0.098 NA
BRANCH  14  18
HETATM   18  C9  UNL     1      16.195  21.269-114.714  1.00  0.00     0.283 C
HETATM   19  N4  UNL     1      15.106  22.169-114.703  1.00  0.00    -0.056 NA
HETATM   20  O3  UNL     1      16.582  20.765-115.807  1.00  0.00    -0.269 OA
ENDBRANCH  14  18
ENDBRANCH   8  11
ENDBRANCH   4   7
BRANCH   6  21
HETATM   21  C13 UNL     1      13.311  18.084-106.009  1.00  0.00    -0.025 A
HETATM   22  C14 UNL     1      12.059  17.472-105.995  1.00  0.00     0.014 A
HETATM   23  C15 UNL     1      11.049  18.065-105.295  1.00  0.00     0.021 A
HETATM   24  C16 UNL     1      11.273  19.255-104.612  1.00  0.00     0.018 A
HETATM   25  C25 UNL     1      12.503  19.873-104.615  1.00  0.00     0.021 A
HETATM   26  C26 UNL     1      13.533  19.282-105.320  1.00  0.00     0.014 A
BRANCH  24  27
HETATM   27  C17 UNL     1      10.222  19.904-103.887  1.00  0.00    -0.061 C
HETATM   28  C18 UNL     1       9.341  20.465-103.297  1.00  0.00    -0.061 C
BRANCH  28  29
HETATM   29  C19 UNL     1       8.279  21.141-102.620  1.00  0.00     0.018 A
HETATM   30  C20 UNL     1       7.537  20.512-101.622  1.00  0.00     0.020 A
HETATM   31  C21 UNL     1       6.519  21.195-100.993  1.00  0.00     0.001 A
HETATM   32  C22 UNL     1       6.188  22.504-101.310  1.00  0.00     0.000 A
HETATM   33  C23 UNL     1       6.915  23.123-102.289  1.00  0.00     0.001 A
HETATM   34  C24 UNL     1       7.956  22.439-102.936  1.00  0.00     0.020 A
ENDBRANCH  28  29
ENDBRANCH  24  27
ENDBRANCH   6  21
BRANCH   1  35
HETATM   35  C1  UNL     1      14.849  15.689-105.171  1.00  0.00     0.265 C
HETATM   36  N1  UNL     1      13.913  14.645-105.112  1.00  0.00    -0.057 NA
HETATM   37  O1  UNL     1      15.476  15.937-104.109  1.00  0.00    -0.271 OA
ENDBRANCH   1  35
TORSDOF 7
ENDMDL