MODEL 2
REMARK VINA RESULT: -9.699531074      1.130      1.319
REMARK  8 active torsions:
REMARK  status: ('A' for Active; 'I' for Inactive)
REMARK    1  A    between atoms: C4_7  and  N3_8
REMARK    2  A    between atoms: C5_11  and  N4_12
REMARK       I    between atoms: N4_12  and  C6_14
REMARK    3  A    between atoms: C6_14  and  C7_16
REMARK    4  A    between atoms: C10_19  and  C11_20
REMARK    5  A    between atoms: C12_21  and  C13_22
REMARK    6  A    between atoms: C20_29  and  O2_30
REMARK    7  A    between atoms: O2_30  and  C21_31
REMARK    8  A    between atoms: C24_34  and  C25_35
ROOT
HETATM    1  N1  UNL     1      20.161  15.445-107.859  1.00  0.00    -0.191 NA
HETATM    2  C1  UNL     1      19.216  15.147-107.291  1.00  0.00     0.101 C
HETATM    3  C2  UNL     1      18.029  14.750-106.568  1.00  0.00     0.062 A
HETATM    4  C3  UNL     1      17.849  13.484-106.090  1.00  0.00     0.112 A
HETATM    5  N2  UNL     1      16.754  13.123-105.426  1.00  0.00    -0.349 N
ATOM      6  H2  UNL     1      16.671  12.163-105.093  1.00  0.00     0.167 HD
HETATM    7  C4  UNL     1      15.759  13.984-105.183  1.00  0.00     0.126 A
HETATM    8  C5  UNL     1      15.892  15.297-105.652  1.00  0.00     0.080 A
HETATM    9  C27 UNL     1      17.002  15.681-106.331  1.00  0.00     0.057 A
ENDROOT
BRANCH   8  10
HETATM   10  N4  UNL     1      14.817  16.176-105.372  1.00  0.00    -0.320 N
HETATM   11  C6  UNL     1      13.716  16.513-106.143  1.00  0.00     0.259 C
HETATM   12  O1  UNL     1      13.605  15.961-107.268  1.00  0.00    -0.267 OA
ATOM     13  H4  UNL     1      14.860  16.633-104.461  1.00  0.00     0.169 HD
BRANCH  11  14
HETATM   14  C7  UNL     1      12.674  17.455-105.784  1.00  0.00     0.066 A
HETATM   15  C8  UNL     1      11.537  16.862-105.193  1.00  0.00     0.021 A
HETATM   16  C9  UNL     1      10.612  17.624-104.564  1.00  0.00     0.022 A
HETATM   17  C10 UNL     1      10.710  18.996-104.456  1.00  0.00     0.020 A
HETATM   18  C19 UNL     1      11.811  19.560-105.035  1.00  0.00     0.059 A
HETATM   19  C20 UNL     1      12.795  18.795-105.706  1.00  0.00     0.095 A
BRANCH  17  20
HETATM   20  C11 UNL     1       9.736  19.811-103.784  1.00  0.00    -0.061 C
HETATM   21  C12 UNL     1       8.906  20.491-103.233  1.00  0.00    -0.061 C
BRANCH  21  22
HETATM   22  C13 UNL     1       7.893  21.309-102.586  1.00  0.00     0.018 A
HETATM   23  C14 UNL     1       7.757  22.598-102.994  1.00  0.00     0.020 A
HETATM   24  C15 UNL     1       6.797  23.388-102.388  1.00  0.00     0.001 A
HETATM   25  C16 UNL     1       5.979  22.908-101.386  1.00  0.00     0.000 A
HETATM   26  C17 UNL     1       6.129  21.600-100.983  1.00  0.00     0.001 A
HETATM   27  C18 UNL     1       7.084  20.822-101.590  1.00  0.00     0.020 A
ENDBRANCH  21  22
ENDBRANCH  17  20
BRANCH  19  28
HETATM   28  O2  UNL     1      13.847  19.548-106.256  1.00  0.00    -0.293 OA
BRANCH  28  29
HETATM   29  C21 UNL     1      14.131  19.471-107.623  1.00  0.00     0.147 A
HETATM   30  C22 UNL     1      15.234  19.030-108.228  1.00  0.00     0.057 A
HETATM   31  C23 UNL     1      15.388  19.008-109.615  1.00  0.00     0.022 A
HETATM   32  C24 UNL     1      14.343  19.466-110.373  1.00  0.00     0.044 A
HETATM   33  C26 UNL     1      13.202  19.923-109.741  1.00  0.00     0.106 A
HETATM   34  N6  UNL     1      13.114  19.919-108.428  1.00  0.00    -0.346 N
ATOM     35  H6  UNL     1      12.257  20.262-107.993  1.00  0.00     0.167 HD
BRANCH  32  36
HETATM   36  C25 UNL     1      14.408  19.482-111.829  1.00  0.00     0.266 C
HETATM   37  N5  UNL     1      13.273  19.845-112.598  1.00  0.00    -0.057 NA
HETATM   38  O3  UNL     1      15.452  19.183-112.453  1.00  0.00    -0.271 OA
ENDBRANCH  32  36
ENDBRANCH  28  29
ENDBRANCH  19  28
ENDBRANCH  11  14
ENDBRANCH   8  10
BRANCH   7  39
HETATM   39  N3  UNL     1      14.726  13.584-104.537  1.00  0.00    -0.384 N
ATOM     40  H32 UNL     1      14.620  13.720-103.532  1.00  0.00     0.157 HD
ATOM     41  H31 UNL     1      13.976  13.110-105.040  1.00  0.00     0.157 HD
ENDBRANCH   7  39
TORSDOF 8
ENDMDL