MODEL 5
REMARK VINA RESULT: -10.619937747      1.514      2.110
REMARK  6 active torsions:
REMARK  status: ('A' for Active; 'I' for Inactive)
REMARK       I    between atoms: C2_2  and  N1_4
REMARK    1  A    between atoms: N2_6  and  C3_8
REMARK    2  A    between atoms: C7_16  and  N5_17
REMARK    3  A    between atoms: N5_17  and  S1_19
REMARK    4  A    between atoms: S1_19  and  C8_22
REMARK    5  A    between atoms: C11_25  and  N6_26
REMARK       I    between atoms: N6_26  and  C12_28
REMARK       I    between atoms: C12_28  and  N7_30
REMARK    6  A    between atoms: N7_30  and  C13_32
ROOT
HETATM    1  N5  UNL     1      14.063  18.640-106.707  1.00  0.00    -0.266 N
ATOM      2  H5  UNL     1      13.085  18.438-106.912  1.00  0.00     0.180 HD
ENDROOT
BRANCH   1   3
HETATM    3  C7  UNL     1      14.924  17.935-107.348  1.00  0.00     0.115 A
HETATM    4  C6  UNL     1      15.129  17.984-108.707  1.00  0.00     0.051 A
HETATM    5  C5  UNL     1      16.083  17.182-109.304  1.00  0.00     0.037 A
HETATM    6  C4  UNL     1      16.850  16.314-108.557  1.00  0.00     0.079 A
HETATM    7  N4  UNL     1      17.827  15.437-108.854  1.00  0.00    -0.297 N
HETATM    8  C21 UNL     1      16.628  16.282-107.194  1.00  0.00     0.109 A
HETATM    9  N3  UNL     1      18.247  14.838-107.752  1.00  0.00    -0.282 N
ATOM     10  H4  UNL     1      18.190  15.261-109.791  1.00  0.00     0.187 HD
HETATM   11  C3  UNL     1      17.536  15.331-106.724  1.00  0.00     0.164 A
ATOM     12  H3  UNL     1      18.978  14.130-107.693  1.00  0.00     0.188 HD
HETATM   13  N8  UNL     1      15.707  17.060-106.636  1.00  0.00    -0.337 N
ATOM     14  H8  UNL     1      15.575  17.003-105.626  1.00  0.00     0.167 HD
BRANCH  11  15
HETATM   15  N2  UNL     1      17.645  14.980-105.360  1.00  0.00    -0.280 N
HETATM   16  N1  UNL     1      16.830  14.151-104.864  1.00  0.00    -0.269 N
HETATM   17  C2  UNL     1      16.956  13.812-103.494  1.00  0.00     0.232 C
ATOM     18  H1  UNL     1      16.098  13.735-105.438  1.00  0.00     0.190 HD
HETATM   19  C1  UNL     1      16.633  14.822-102.461  1.00  0.00     0.119 C
HETATM   20  O1  UNL     1      17.344  12.641-103.201  1.00  0.00    -0.272 OA
ATOM     21  H2  UNL     1      18.376  15.394-104.779  1.00  0.00     0.188 HD
ENDBRANCH  11  15
ENDBRANCH   1   3
BRANCH   1  22
HETATM   22  S1  UNL     1      14.336  19.858-105.573  1.00  0.00     0.264 S
HETATM   23  O2  UNL     1      15.499  19.605-104.650  1.00  0.00    -0.200 OA
HETATM   24  O3  UNL     1      14.667  21.188-106.252  1.00  0.00    -0.200 OA
BRANCH  22  25
HETATM   25  C8  UNL     1      12.874  20.079-104.613  1.00  0.00     0.080 A
HETATM   26  C9  UNL     1      11.917  19.107-104.645  1.00  0.00     0.027 A
HETATM   27  C10 UNL     1      10.752  19.269-103.890  1.00  0.00     0.031 A
HETATM   28  C11 UNL     1      10.520  20.358-103.115  1.00  0.00     0.036 A
HETATM   29  C19 UNL     1      11.532  21.355-103.101  1.00  0.00     0.031 A
HETATM   30  C20 UNL     1      12.679  21.217-103.831  1.00  0.00     0.027 A
BRANCH  28  31
HETATM   31  N6  UNL     1       9.375  20.546-102.330  1.00  0.00    -0.309 N
HETATM   32  C12 UNL     1       8.097  20.895-102.809  1.00  0.00     0.325 C
HETATM   33  O4  UNL     1       7.875  21.066-104.042  1.00  0.00    -0.247 OA
HETATM   34  N7  UNL     1       7.068  21.046-101.847  1.00  0.00    -0.309 N
ATOM     35  H7  UNL     1       7.310  20.886-100.870  1.00  0.00     0.170 HD
ATOM     36  H6  UNL     1       9.475  20.418-101.323  1.00  0.00     0.170 HD
BRANCH  34  37
HETATM   37  C13 UNL     1       5.746  21.398-102.136  1.00  0.00     0.036 A
HETATM   38  C14 UNL     1       4.759  20.407-102.134  1.00  0.00     0.029 A
HETATM   39  C15 UNL     1       3.447  20.693-102.382  1.00  0.00     0.002 A
HETATM   40  C16 UNL     1       3.029  21.973-102.647  1.00  0.00     0.000 A
HETATM   41  C17 UNL     1       3.990  22.950-102.651  1.00  0.00     0.002 A
HETATM   42  C18 UNL     1       5.337  22.674-102.398  1.00  0.00     0.029 A
ENDBRANCH  34  37
ENDBRANCH  28  31
ENDBRANCH  22  25
ENDBRANCH   1  22
TORSDOF 6
ENDMDL