MODEL 4
REMARK VINA RESULT: -10.257314407      1.668      2.315
REMARK  8 active torsions:
REMARK  status: ('A' for Active; 'I' for Inactive)
REMARK    1  A    between atoms: O1_1  and  C1_3
REMARK    2  A    between atoms: C1_3  and  N1_4
REMARK    3  A    between atoms: C1_3  and  C9_12
REMARK    4  A    between atoms: N1_4  and  C2_5
REMARK    5  A    between atoms: C2_5  and  C3_6
REMARK    6  A    between atoms: C11_14  and  C12_15
REMARK    7  A    between atoms: C17_24  and  N4_25
REMARK    8  A    between atoms: N4_25  and  C18_27
ROOT
HETATM    1  C12 UNL     1      13.392  18.413-106.244  1.00  0.00    -0.019 A
HETATM    2  C13 UNL     1      14.240  19.062-107.103  1.00  0.00     0.014 A
HETATM    3  C14 UNL     1      15.365  18.431-107.634  1.00  0.00     0.031 A
HETATM    4  C15 UNL     1      15.665  17.134-107.319  1.00  0.00     0.047 A
HETATM    5  N2  UNL     1      16.746  16.502-107.801  1.00  0.00    -0.352 N
ATOM      6  H2  UNL     1      17.366  17.005-108.436  1.00  0.00     0.166 HD
HETATM    7  C16 UNL     1      17.050  15.207-107.474  1.00  0.00     0.182 A
HETATM    8  N3  UNL     1      16.205  14.568-106.628  1.00  0.00    -0.338 N
ATOM      9  H3  UNL     1      16.414  13.603-106.373  1.00  0.00     0.168 HD
HETATM   10  C17 UNL     1      15.128  15.129-106.120  1.00  0.00     0.119 A
HETATM   11  C25 UNL     1      14.818  16.451-106.451  1.00  0.00     0.035 A
HETATM   12  C26 UNL     1      13.707  17.087-105.931  1.00  0.00     0.030 A
ENDROOT
BRANCH   1  13
HETATM   13  C11 UNL     1      12.214  19.024-105.626  1.00  0.00     0.046 A
HETATM   14  C10 UNL     1      10.914  18.747-105.968  1.00  0.00     0.054 A
HETATM   15  C9  UNL     1       9.870  19.336-105.331  1.00  0.00     0.114 A
HETATM   16  N8  UNL     1      10.151  20.219-104.334  1.00  0.00    -0.293 N
HETATM   17  N7  UNL     1      11.390  20.516-103.976  1.00  0.00    -0.265 N
ATOM     18  H8  UNL     1       9.377  20.668-103.845  1.00  0.00     0.187 HD
HETATM   19  C27 UNL     1      12.431  19.952-104.587  1.00  0.00     0.271 A
ATOM     20  H7  UNL     1      11.550  21.185-103.223  1.00  0.00     0.190 HD
HETATM   21  O2  UNL     1      13.593  20.223-104.267  1.00  0.00    -0.266 OA
BRANCH  15  22
HETATM   22  C1  UNL     1       8.433  19.145-105.673  1.00  0.00     0.242 C
BRANCH  22  23
HETATM   23  O1  UNL     1       8.266  18.016-106.310  1.00  0.00    -0.334 OA
ATOM     24  H1  UNL     1       7.809  17.246-105.991  1.00  0.00     0.220 HD
ENDBRANCH  22  23
BRANCH  22  25
HETATM   25  N1  UNL     1       7.490  20.016-105.346  1.00  0.00    -0.390 NA
BRANCH  25  26
HETATM   26  C2  UNL     1       6.505  20.924-105.008  1.00  0.00     0.197 C
BRANCH  26  27
HETATM   27  C3  UNL     1       5.695  20.739-103.810  1.00  0.00    -0.007 A
HETATM   28  C4  UNL     1       6.237  20.896-102.543  1.00  0.00     0.014 A
HETATM   29  C5  UNL     1       5.481  20.697-101.385  1.00  0.00     0.001 A
HETATM   30  C6  UNL     1       4.160  20.335-101.472  1.00  0.00     0.000 A
HETATM   31  C7  UNL     1       3.607  20.175-102.715  1.00  0.00     0.001 A
HETATM   32  C8  UNL     1       4.351  20.371-103.855  1.00  0.00     0.014 A
ENDBRANCH  26  27
ENDBRANCH  25  26
ENDBRANCH  22  25
ENDBRANCH  15  22
ENDBRANCH   1  13
BRANCH  10  33
HETATM   33  N4  UNL     1      14.289  14.549-105.309  1.00  0.00    -0.342 N
ATOM     34  H4  UNL     1      13.367  14.231-105.607  1.00  0.00     0.167 HD
BRANCH  33  35
HETATM   35  C18 UNL     1      14.761  14.391-103.964  1.00  0.00     0.034 A
HETATM   36  C19 UNL     1      15.835  15.127-103.466  1.00  0.00     0.032 A
HETATM   37  C20 UNL     1      16.262  14.958-102.167  1.00  0.00     0.034 A
HETATM   38  C21 UNL     1      15.650  14.064-101.319  1.00  0.00     0.059 A
HETATM   39  N5  UNL     1      15.839  13.692-100.029  1.00  0.00    -0.300 N
HETATM   40  C23 UNL     1      14.594  13.329-101.781  1.00  0.00     0.011 A
HETATM   41  N6  UNL     1      14.946  12.778 -99.722  1.00  0.00    -0.311 N
ATOM     42  H5  UNL     1      16.554  14.060 -99.401  1.00  0.00     0.187 HD
HETATM   43  C22 UNL     1      14.143  12.510-100.769  1.00  0.00     0.120 A
ATOM     44  H6  UNL     1      14.871  12.329 -98.809  1.00  0.00     0.186 HD
HETATM   45  C24 UNL     1      14.164  13.500-103.096  1.00  0.00     0.044 A
ENDBRANCH  33  35
ENDBRANCH  10  33
TORSDOF 8
ENDMDL