MODEL 5
REMARK VINA RESULT: -8.772484006      3.764      5.170
REMARK  7 active torsions:
REMARK  status: ('A' for Active; 'I' for Inactive)
REMARK    1  A    between atoms: C3_4  and  N2_5
REMARK       I    between atoms: N2_5  and  C4_7
REMARK       I    between atoms: C4_7  and  N3_9
REMARK    2  A    between atoms: N3_9  and  N4_11
REMARK    3  A    between atoms: C5_13  and  C6_14
REMARK    4  A    between atoms: C18_28  and  N6_29
REMARK    5  A    between atoms: N6_29  and  C19_30
REMARK    6  A    between atoms: C22_33  and  S1_34
REMARK    7  A    between atoms: S1_34  and  N7_35
ROOT
HETATM    1  N1  UNL     1      10.939  16.833-105.209  1.00  0.00    -0.191 NA
HETATM    2  C1  UNL     1      11.528  17.356-106.058  1.00  0.00     0.107 C
HETATM    3  C2  UNL     1      12.288  18.000-107.115  1.00  0.00     0.130 A
HETATM    4  C3  UNL     1      11.626  18.957-107.881  1.00  0.00     0.134 A
HETATM    5  N5  UNL     1      12.336  19.545-108.851  1.00  0.00    -0.340 N
ATOM      6  H5  UNL     1      11.883  20.251-109.432  1.00  0.00     0.167 HD
HETATM    7  C12 UNL     1      13.643  19.237-109.094  1.00  0.00     0.047 A
HETATM    8  C13 UNL     1      14.280  19.886-110.117  1.00  0.00     0.030 A
HETATM    9  C14 UNL     1      15.599  19.595-110.400  1.00  0.00     0.002 A
HETATM   10  C15 UNL     1      16.278  18.659-109.666  1.00  0.00     0.001 A
HETATM   11  C16 UNL     1      15.621  18.012-108.636  1.00  0.00     0.017 A
HETATM   12  C17 UNL     1      14.300  18.302-108.351  1.00  0.00     0.033 A
HETATM   13  C18 UNL     1      13.621  17.639-107.312  1.00  0.00     0.144 A
ENDROOT
BRANCH   4  14
HETATM   14  N2  UNL     1      10.268  19.212-107.595  1.00  0.00    -0.292 N
HETATM   15  C4  UNL     1       9.796  20.082-106.620  1.00  0.00     0.340 C
HETATM   16  O1  UNL     1      10.482  20.779-105.812  1.00  0.00    -0.245 OA
HETATM   17  N3  UNL     1       8.374  20.262-106.454  1.00  0.00    -0.252 N
ATOM     18  H3  UNL     1       7.716  19.755-107.046  1.00  0.00     0.191 HD
ATOM     19  H2  UNL     1       9.573  18.716-108.153  1.00  0.00     0.172 HD
BRANCH  17  20
HETATM   20  N4  UNL     1       7.913  21.133-105.480  1.00  0.00    -0.307 N
HETATM   21  C5  UNL     1       7.320  20.689-104.440  1.00  0.00     0.118 C
ATOM     22  H4  UNL     1       8.050  22.137-105.595  1.00  0.00     0.186 HD
BRANCH  21  23
HETATM   23  C6  UNL     1       6.858  21.649-103.453  1.00  0.00    -0.019 A
HETATM   24  C7  UNL     1       6.606  21.298-102.149  1.00  0.00     0.013 A
HETATM   25  C8  UNL     1       6.173  22.221-101.234  1.00  0.00     0.001 A
HETATM   26  C9  UNL     1       5.980  23.540-101.606  1.00  0.00     0.000 A
HETATM   27  C10 UNL     1       6.233  23.893-102.917  1.00  0.00     0.001 A
HETATM   28  C11 UNL     1       6.665  22.964-103.818  1.00  0.00     0.013 A
ENDBRANCH  21  23
ENDBRANCH  17  20
ENDBRANCH   4  14
BRANCH  13  29
HETATM   29  N6  UNL     1      14.156  16.829-106.670  1.00  0.00    -0.403 NA
BRANCH  29  30
HETATM   30  C19 UNL     1      14.764  15.898-105.934  1.00  0.00     0.107 A
HETATM   31  C20 UNL     1      15.599  16.194-104.842  1.00  0.00     0.046 A
HETATM   32  C21 UNL     1      16.215  15.228-104.095  1.00  0.00     0.028 A
HETATM   33  C22 UNL     1      16.039  13.897-104.387  1.00  0.00     0.079 A
HETATM   34  C23 UNL     1      15.225  13.565-105.451  1.00  0.00     0.028 A
HETATM   35  C24 UNL     1      14.605  14.521-106.206  1.00  0.00     0.046 A
BRANCH  33  36
HETATM   36  S1  UNL     1      16.800  12.627-103.468  1.00  0.00     0.256 S
HETATM   37  O2  UNL     1      16.710  11.324-104.213  1.00  0.00    -0.201 OA
HETATM   38  O3  UNL     1      16.126  12.473-102.133  1.00  0.00    -0.201 OA
BRANCH  36  39
HETATM   39  N7  UNL     1      18.455  13.002-103.186  1.00  0.00    -0.324 N
ATOM     40  H72 UNL     1      18.935  12.836-102.301  1.00  0.00     0.169 HD
ATOM     41  H71 UNL     1      18.874  13.407-104.023  1.00  0.00     0.169 HD
ENDBRANCH  36  39
ENDBRANCH  33  36
ENDBRANCH  29  30
ENDBRANCH  13  29
TORSDOF 7
ENDMDL