MODEL 5
REMARK VINA RESULT: -9.263605835      2.954     10.375
REMARK  9 active torsions:
REMARK  status: ('A' for Active; 'I' for Inactive)
REMARK    1  A    between atoms: C2_2  and  C3_3
REMARK    2  A    between atoms: C3_3  and  N2_7
REMARK    3  A    between atoms: N2_7  and  C4_9
REMARK    4  A    between atoms: C7_14  and  N4_15
REMARK    5  A    between atoms: N4_15  and  C8_17
REMARK    6  A    between atoms: C15_26  and  N6_27
REMARK    7  A    between atoms: N6_27  and  C16_28
REMARK    8  A    between atoms: C16_28  and  C17_29
REMARK    9  A    between atoms: C19_32  and  C20_33
ROOT
HETATM    1  C8  UNL     1      13.513  18.784-105.562  1.00  0.00     0.686 A
HETATM    2  N5  UNL     1      12.628  18.130-106.330  1.00  0.00    -0.191 N
ATOM      3  H5  UNL     1      12.975  17.492-107.046  1.00  0.00     0.184 HD
HETATM    4  C9  UNL     1      11.304  18.286-106.190  1.00  0.00     0.064 A
HETATM    5  C10 UNL     1      10.433  17.599-106.998  1.00  0.00     0.031 A
HETATM    6  C11 UNL     1       9.078  17.748-106.869  1.00  0.00     0.002 A
HETATM    7  C12 UNL     1       8.598  18.603-105.913  1.00  0.00     0.001 A
HETATM    8  C13 UNL     1       9.480  19.307-105.086  1.00  0.00     0.018 A
HETATM    9  C14 UNL     1      10.823  19.134-105.242  1.00  0.00     0.050 A
HETATM   10  C15 UNL     1      11.718  19.831-104.425  1.00  0.00     0.200 A
HETATM   11  N8  UNL     1      13.062  19.617-104.629  1.00  0.00    -0.163 N
ATOM     12  H8  UNL     1      13.734  20.114-104.045  1.00  0.00     0.187 HD
ENDROOT
BRANCH   1  13
HETATM   13  N4  UNL     1      14.891  18.562-105.779  1.00  0.00    -0.176 N
ATOM     14  H4  UNL     1      15.506  19.376-105.812  1.00  0.00     0.186 HD
BRANCH  13  15
HETATM   15  C7  UNL     1      15.421  17.402-105.936  1.00  0.00     0.138 A
HETATM   16  C6  UNL     1      16.022  17.043-107.120  1.00  0.00     0.067 A
HETATM   17  C5  UNL     1      16.593  15.776-107.280  1.00  0.00     0.110 A
HETATM   18  N3  UNL     1      16.552  14.903-106.262  1.00  0.00    -0.202 N
HETATM   19  C4  UNL     1      15.964  15.256-105.107  1.00  0.00     0.684 A
ATOM     20  H3  UNL     1      16.965  13.976-106.365  1.00  0.00     0.183 HD
HETATM   21  N9  UNL     1      15.412  16.484-104.958  1.00  0.00    -0.176 N
ATOM     22  H9  UNL     1      14.974  16.720-104.068  1.00  0.00     0.186 HD
BRANCH  19  23
HETATM   23  N2  UNL     1      15.897  14.455-104.090  1.00  0.00    -0.181 N
ATOM     24  H2  UNL     1      15.158  13.752-104.102  1.00  0.00     0.185 HD
BRANCH  23  25
HETATM   25  C3  UNL     1      16.744  14.467-102.981  1.00  0.00     0.090 C
HETATM   26  N1  UNL     1      17.997  14.179-103.110  1.00  0.00    -0.388 N
ATOM     27  H12 UNL     1      18.616  14.188-102.299  1.00  0.00     0.157 HD
ATOM     28  H11 UNL     1      18.359  13.941-104.034  1.00  0.00     0.157 HD
BRANCH  25  29
HETATM   29  C2  UNL     1      16.223  14.810-101.645  1.00  0.00     0.072 C
HETATM   30  C1  UNL     1      15.227  13.809-101.159  1.00  0.00     0.013 C
ENDBRANCH  25  29
ENDBRANCH  23  25
ENDBRANCH  19  23
ENDBRANCH  13  15
ENDBRANCH   1  13
BRANCH  10  31
HETATM   31  N6  UNL     1      11.376  20.592-103.564  1.00  0.00    -0.425 NA
BRANCH  31  32
HETATM   32  C16 UNL     1      11.061  21.586-102.738  1.00  0.00     0.259 C
BRANCH  32  33
HETATM   33  C17 UNL     1       9.622  22.096-102.864  1.00  0.00    -0.020 A
HETATM   34  C18 UNL     1       9.394  23.314-103.439  1.00  0.00     0.060 A
HETATM   35  S1  UNL     1       7.697  23.457-103.357  1.00  0.00    -0.101 SA
HETATM   36  C19 UNL     1       7.327  21.974-102.601  1.00  0.00     0.015 A
HETATM   37  C25 UNL     1       8.568  21.401-102.432  1.00  0.00     0.030 A
BRANCH  36  38
HETATM   38  C20 UNL     1       6.025  21.417-102.210  1.00  0.00    -0.017 A
HETATM   39  C21 UNL     1       5.712  21.338-100.877  1.00  0.00     0.030 A
HETATM   40  C22 UNL     1       4.471  20.805-100.488  1.00  0.00     0.088 A
HETATM   41  N7  UNL     1       3.597  20.374-101.420  1.00  0.00    -0.375 N
HETATM   42  C23 UNL     1       3.878  20.438-102.723  1.00  0.00     0.088 A
ATOM     43  H7  UNL     1       2.701  19.990-101.123  1.00  0.00     0.164 HD
HETATM   44  C24 UNL     1       5.110  20.968-103.122  1.00  0.00     0.030 A
ENDBRANCH  36  38
ENDBRANCH  32  33
ENDBRANCH  31  32
ENDBRANCH  10  31
TORSDOF 9
ENDMDL