MODEL 2
REMARK VINA RESULT: -9.424123163      4.262      8.029
REMARK  4 active torsions:
REMARK  status: ('A' for Active; 'I' for Inactive)
REMARK       I    between atoms: C1_2  and  N2_4
REMARK    1  A    between atoms: N2_4  and  C2_6
REMARK    2  A    between atoms: C6_12  and  C7_13
REMARK       I    between atoms: C7_13  and  N4_15
REMARK    3  A    between atoms: N4_15  and  C8_17
REMARK    4  A    between atoms: C12_23  and  C13_24
ROOT
HETATM    1  C8  UNL     1      11.169  18.385-105.552  1.00  0.00     0.050 A
HETATM    2  C9  UNL     1      11.177  17.022-105.422  1.00  0.00     0.047 A
HETATM    3  C10 UNL     1      12.377  16.316-105.312  1.00  0.00     0.090 A
HETATM    4  N5  UNL     1      13.565  16.953-105.330  1.00  0.00    -0.374 N
ATOM      5  H5  UNL     1      14.430  16.420-105.250  1.00  0.00     0.164 HD
HETATM    6  C11 UNL     1      13.608  18.286-105.454  1.00  0.00     0.103 A
HETATM    7  C12 UNL     1      12.430  18.993-105.564  1.00  0.00     0.034 A
ENDROOT
BRANCH   1   8
HETATM    8  N4  UNL     1       9.985  19.152-105.703  1.00  0.00    -0.322 N
HETATM    9  C7  UNL     1       9.194  19.745-104.730  1.00  0.00     0.256 C
HETATM   10  O2  UNL     1       9.460  19.670-103.516  1.00  0.00    -0.267 OA
ATOM     11  H4  UNL     1       9.670  19.286-106.663  1.00  0.00     0.169 HD
BRANCH   9  12
HETATM   12  C6  UNL     1       8.006  20.493-105.082  1.00  0.00     0.034 A
HETATM   13  C5  UNL     1       7.884  21.239-106.225  1.00  0.00     0.019 A
HETATM   14  C4  UNL     1       6.728  21.950-106.522  1.00  0.00     0.033 A
HETATM   15  C3  UNL     1       5.658  21.921-105.659  1.00  0.00     0.076 A
HETATM   16  N3  UNL     1       4.428  22.502-105.687  1.00  0.00    -0.189 N
HETATM   17  C25 UNL     1       5.768  21.172-104.504  1.00  0.00     0.077 A
HETATM   18  C2  UNL     1       3.790  22.127-104.584  1.00  0.00     0.687 A
ATOM     19  H3  UNL     1       4.063  23.111-106.419  1.00  0.00     0.184 HD
HETATM   20  N10 UNL     1       4.589  21.322-103.858  1.00  0.00    -0.189 N
ATOM     21  H10 UNL     1       4.345  20.895-102.964  1.00  0.00     0.184 HD
HETATM   22  C24 UNL     1       6.926  20.472-104.226  1.00  0.00     0.049 A
BRANCH  18  23
HETATM   23  N2  UNL     1       2.578  22.475-104.247  1.00  0.00    -0.143 N
HETATM   24  C1  UNL     1       2.203  22.689-102.902  1.00  0.00     0.346 C
HETATM   25  N1  UNL     1       1.625  23.908-102.504  1.00  0.00    -0.039 NA
HETATM   26  O1  UNL     1       2.393  21.777-102.069  1.00  0.00    -0.250 OA
ATOM     27  H2  UNL     1       1.878  22.598-104.979  1.00  0.00     0.188 HD
ENDBRANCH  18  23
ENDBRANCH   9  12
ENDBRANCH   1   8
BRANCH   7  28
HETATM   28  C13 UNL     1      12.462  20.458-105.546  1.00  0.00     0.061 A
HETATM   29  N6  UNL     1      12.167  21.072-104.372  1.00  0.00    -0.364 N
HETATM   30  C14 UNL     1      12.229  22.392-104.268  1.00  0.00     0.090 A
ATOM     31  H6  UNL     1      11.897  20.512-103.562  1.00  0.00     0.165 HD
HETATM   32  C15 UNL     1      12.588  23.188-105.333  1.00  0.00     0.049 A
HETATM   33  C16 UNL     1      12.887  22.595-106.528  1.00  0.00     0.064 A
HETATM   34  N7  UNL     1      13.262  23.081-107.727  1.00  0.00    -0.299 N
HETATM   35  C23 UNL     1      12.821  21.194-106.643  1.00  0.00     0.049 A
HETATM   36  N8  UNL     1      13.416  22.107-108.535  1.00  0.00    -0.299 N
ATOM     37  H7  UNL     1      13.399  24.066-107.952  1.00  0.00     0.187 HD
HETATM   38  C17 UNL     1      13.156  20.887-107.935  1.00  0.00     0.073 A
ATOM     39  H8  UNL     1      13.698  22.214-109.510  1.00  0.00     0.187 HD
HETATM   40  C18 UNL     1      13.248  19.645-108.651  1.00  0.00    -0.004 A
HETATM   41  C19 UNL     1      14.483  19.325-109.233  1.00  0.00     0.030 A
HETATM   42  C22 UNL     1      12.216  18.782-108.932  1.00  0.00     0.030 A
HETATM   43  C20 UNL     1      14.680  18.240-110.026  1.00  0.00     0.088 A
HETATM   44  N9  UNL     1      13.648  17.421-110.275  1.00  0.00    -0.375 N
HETATM   45  C21 UNL     1      12.418  17.678-109.738  1.00  0.00     0.088 A
ATOM     46  H9  UNL     1      13.782  16.603-110.870  1.00  0.00     0.164 HD
ENDBRANCH   7  28
TORSDOF 4
ENDMDL