MODEL 2
REMARK VINA RESULT: -8.799866478      3.638      8.278
REMARK  8 active torsions:
REMARK  status: ('A' for Active; 'I' for Inactive)
REMARK    1  A    between atoms: N1_1  and  C1_4
REMARK    2  A    between atoms: C2_7  and  N3_8
REMARK    3  A    between atoms: N3_8  and  C3_10
REMARK    4  A    between atoms: C12_21  and  C13_22
REMARK    5  A    between atoms: C16_25  and  C17_26
REMARK    6  A    between atoms: C20_32  and  N6_33
REMARK    7  A    between atoms: N6_33  and  C21_35
REMARK    8  A    between atoms: C21_35  and  C22_36
ROOT
HETATM    1  C1  UNL     1       8.786  21.580-104.960  1.00  0.00     0.134 A
HETATM    2  N2  UNL     1       9.355  21.101-106.070  1.00  0.00    -0.326 N
ATOM      3  H2  UNL     1       9.022  21.500-106.947  1.00  0.00     0.169 HD
HETATM    4  C2  UNL     1      10.313  20.159-106.179  1.00  0.00     0.125 A
HETATM    5  C12 UNL     1      10.914  19.481-105.165  1.00  0.00     0.061 A
HETATM    6  S1  UNL     1      10.304  19.967-103.612  1.00  0.00    -0.064 SA
HETATM    7  C20 UNL     1       9.104  21.164-103.684  1.00  0.00     0.115 A
ENDROOT
BRANCH   4   8
HETATM    8  N3  UNL     1      10.752  19.906-107.519  1.00  0.00    -0.341 N
ATOM      9  H3  UNL     1      10.113  19.407-108.139  1.00  0.00     0.167 HD
BRANCH   8  10
HETATM   10  C3  UNL     1      11.873  20.254-107.991  1.00  0.00     0.047 A
HETATM   11  C4  UNL     1      12.365  21.524-107.848  1.00  0.00     0.047 A
HETATM   12  C5  UNL     1      13.591  21.882-108.388  1.00  0.00     0.090 A
HETATM   13  N4  UNL     1      14.317  20.962-109.068  1.00  0.00    -0.365 N
HETATM   14  C6  UNL     1      13.858  19.698-109.227  1.00  0.00     0.044 A
ATOM     15  H4  UNL     1      15.220  21.224-109.465  1.00  0.00     0.165 HD
HETATM   16  C7  UNL     1      14.585  18.761-109.917  1.00  0.00     0.030 A
HETATM   17  C11 UNL     1      12.620  19.327-108.685  1.00  0.00     0.017 A
HETATM   18  C8  UNL     1      14.171  17.462-110.115  1.00  0.00     0.002 A
HETATM   19  C9  UNL     1      12.936  17.099-109.572  1.00  0.00     0.001 A
HETATM   20  C10 UNL     1      12.202  18.032-108.881  1.00  0.00     0.016 A
ENDBRANCH   8  10
ENDBRANCH   4   8
BRANCH   5  21
HETATM   21  C13 UNL     1      11.963  18.476-105.241  1.00  0.00    -0.015 A
HETATM   22  C14 UNL     1      11.502  17.154-105.321  1.00  0.00     0.014 A
HETATM   23  C15 UNL     1      12.325  16.063-105.437  1.00  0.00     0.017 A
HETATM   24  C16 UNL     1      13.669  16.301-105.477  1.00  0.00     0.029 A
HETATM   25  C18 UNL     1      14.164  17.579-105.403  1.00  0.00     0.017 A
HETATM   26  C19 UNL     1      13.296  18.633-105.288  1.00  0.00     0.014 A
BRANCH  24  27
HETATM   27  C17 UNL     1      14.597  15.186-105.599  1.00  0.00     0.264 C
HETATM   28  N5  UNL     1      14.250  14.005-106.306  1.00  0.00    -0.057 NA
HETATM   29  O1  UNL     1      15.732  15.249-105.073  1.00  0.00    -0.271 OA
ENDBRANCH  24  27
ENDBRANCH   5  21
BRANCH   1  30
HETATM   30  N1  UNL     1       7.855  22.510-105.045  1.00  0.00    -0.383 N
ATOM     31  H12 UNL     1       6.891  22.176-105.044  1.00  0.00     0.157 HD
ATOM     32  H11 UNL     1       8.121  23.493-105.108  1.00  0.00     0.157 HD
ENDBRANCH   1  30
BRANCH   7  33
HETATM   33  N6  UNL     1       8.503  21.682-102.661  1.00  0.00    -0.377 N
ATOM     34  H6  UNL     1       8.587  22.690-102.527  1.00  0.00     0.160 HD
BRANCH  33  35
HETATM   35  C21 UNL     1       7.734  20.957-101.712  1.00  0.00     0.160 C
BRANCH  35  36
HETATM   36  C22 UNL     1       6.277  21.287-101.773  1.00  0.00    -0.025 A
HETATM   37  C23 UNL     1       5.360  20.316-101.426  1.00  0.00     0.011 A
HETATM   38  C24 UNL     1       4.007  20.577-101.467  1.00  0.00     0.018 A
HETATM   39  C25 UNL     1       3.573  21.822-101.860  1.00  0.00     0.087 A
HETATM   40  N7  UNL     1       4.488  22.765-102.196  1.00  0.00    -0.375 N
HETATM   41  C26 UNL     1       5.805  22.512-102.157  1.00  0.00     0.096 A
ATOM     42  H7  UNL     1       4.166  23.688-102.487  1.00  0.00     0.164 HD
ENDBRANCH  35  36
ENDBRANCH  33  35
ENDBRANCH   7  33
TORSDOF 8
ENDMDL