MODEL 5
REMARK VINA RESULT: -7.566279245      3.194      7.178
REMARK  2 active torsions:
REMARK  status: ('A' for Active; 'I' for Inactive)
REMARK       I    between atoms: C1_2  and  N1_3
REMARK       I    between atoms: C1_2  and  N3_12
REMARK    1  A    between atoms: N1_3  and  C2_5
REMARK    2  A    between atoms: N3_12  and  C5_14
ROOT
HETATM    1  O1  UNL     1     -10.156   1.004   9.220  1.00  0.00    -0.247 OA
HETATM    2  C1  UNL     1     -11.209   1.578   9.598  1.00  0.00     0.322 C
HETATM    3  N1  UNL     1     -11.600   1.507  10.953  1.00  0.00    -0.289 N
ATOM      4  H1  UNL     1     -11.730   0.589  11.377  1.00  0.00     0.172 HD
HETATM    5  N3  UNL     1     -11.967   2.277   8.648  1.00  0.00    -0.338 N
ATOM      6  H3  UNL     1     -12.821   2.740   8.959  1.00  0.00     0.164 HD
ENDROOT
BRANCH   3   7
HETATM    7  C2  UNL     1     -11.804   2.574  11.691  1.00  0.00     0.153 A
HETATM    8  N2  UNL     1     -12.190   2.668  12.960  1.00  0.00    -0.344 N
HETATM    9  C3  UNL     1     -12.326   3.854  13.486  1.00  0.00     0.121 A
ATOM     10  H2  UNL     1     -12.376   1.830  13.511  1.00  0.00     0.167 HD
HETATM   11  C4  UNL     1     -12.061   4.940  12.693  1.00  0.00     0.093 A
HETATM   12 CL1  UNL     1     -12.155   6.652  13.121  1.00  0.00    -0.075 Cl
HETATM   13  S1  UNL     1     -11.626   4.201  11.216  1.00  0.00    -0.040 SA
ENDBRANCH   3   7
BRANCH   5  14
HETATM   14  C5  UNL     1     -11.600   2.377   7.233  1.00  0.00     0.086 C
HETATM   15  C6  UNL     1     -11.255   1.051   6.669  1.00  0.00     0.025 C
HETATM   16  C7  UNL     1      -9.971   0.925   5.945  1.00  0.00     0.002 C
HETATM   17  C8  UNL     1      -9.824   1.690   4.685  1.00  0.00     0.000 C
HETATM   18  C9  UNL     1     -11.044   2.343   4.151  1.00  0.00     0.000 C
HETATM   19  C10 UNL     1     -11.393   3.669   4.703  1.00  0.00     0.000 C
HETATM   20  C11 UNL     1     -10.552   4.187   5.814  1.00  0.00     0.002 C
HETATM   21  C12 UNL     1     -10.587   3.446   7.093  1.00  0.00     0.025 C
ENDBRANCH   5  14
TORSDOF 2
ENDMDL