MODEL 4
REMARK VINA RESULT: -7.993198680      1.059      1.538
REMARK  3 active torsions:
REMARK  status: ('A' for Active; 'I' for Inactive)
REMARK    1  A    between atoms: O1_1  and  C1_3
REMARK    2  A    between atoms: C5_7  and  C6_8
REMARK    3  A    between atoms: C6_8  and  O2_9
ROOT
HETATM    1  C1  UNL     1     -12.504   4.102  14.749  1.00  0.00     0.083 A
HETATM    2  C2  UNL     1     -12.565   5.479  14.788  1.00  0.00     0.038 A
HETATM    3  C3  UNL     1     -12.327   6.210  13.624  1.00  0.00     0.003 A
HETATM    4  C4  UNL     1     -12.034   5.547  12.455  1.00  0.00     0.012 A
HETATM    5  C5  UNL     1     -11.975   4.161  12.431  1.00  0.00    -0.004 A
HETATM    6  C13 UNL     1     -12.211   3.429  13.581  1.00  0.00     0.053 A
HETATM    7 BR1  UNL     1     -12.208   1.500  13.584  1.00  0.00    -0.047 Br
ENDROOT
BRANCH   5   8
HETATM    8  C6  UNL     1     -11.607   3.488  11.170  1.00  0.00     0.086 C
HETATM    9  C7  UNL     1     -10.148   3.240  11.100  1.00  0.00     0.043 C
HETATM   10  C8  UNL     1      -9.878   1.996  10.306  1.00  0.00     0.003 C
HETATM   11  C9  UNL     1      -9.911   2.163   8.828  1.00  0.00     0.000 C
HETATM   12  C10 UNL     1     -10.367   3.514   8.386  1.00  0.00     0.000 C
HETATM   13  C11 UNL     1     -11.842   3.667   8.692  1.00  0.00     0.003 C
HETATM   14  C12 UNL     1     -12.051   4.395  10.010  1.00  0.00     0.043 C
BRANCH   8  15
HETATM   15  O2  UNL     1     -12.308   2.281  11.039  1.00  0.00    -0.385 OA
ATOM     16  H2  UNL     1     -11.808   1.664  10.518  1.00  0.00     0.211 HD
ENDBRANCH   8  15
ENDBRANCH   5   8
BRANCH   1  17
HETATM   17  O1  UNL     1     -12.737   3.346  15.892  1.00  0.00    -0.359 OA
ATOM     18  H1  UNL     1     -12.087   3.297  16.583  1.00  0.00     0.217 HD
ENDBRANCH   1  17
TORSDOF 3
ENDMDL