MODEL 4
REMARK VINA RESULT: -9.007032481      1.142      2.172
REMARK  1 active torsions:
REMARK  status: ('A' for Active; 'I' for Inactive)
REMARK    1  A    between atoms: C3_4  and  C4_5
ROOT
HETATM    1  F1  UNL     1      -9.859   4.024  10.071  1.00  0.00    -0.244 F
HETATM    2  C1  UNL     1     -11.194   4.204  10.230  1.00  0.00     0.208 C
HETATM    3  C2  UNL     1     -12.044   3.730   9.099  1.00  0.00     0.049 C
HETATM    4  C3  UNL     1     -11.821   2.390   8.543  1.00  0.00     0.015 C
HETATM    5  C14 UNL     1     -11.081   1.389   9.382  1.00  0.00     0.126 C
HETATM    6  N1  UNL     1     -11.766   1.179  10.654  1.00  0.00    -0.374 N
ATOM      7  H1  UNL     1     -12.157   0.257  10.853  1.00  0.00     0.161 HD
HETATM    8  C15 UNL     1     -11.914   2.218  11.641  1.00  0.00     0.126 A
HETATM    9  N2  UNL     1     -12.331   2.019  12.917  1.00  0.00    -0.286 N
ATOM     10  H2  UNL     1     -12.589   1.123  13.331  1.00  0.00     0.188 HD
HETATM   11  N3  UNL     1     -12.345   3.200  13.536  1.00  0.00    -0.310 N
ATOM     12  H3  UNL     1     -12.619   3.343  14.508  1.00  0.00     0.186 HD
HETATM   13  C16 UNL     1     -11.946   4.181  12.696  1.00  0.00     0.121 A
HETATM   14  C17 UNL     1     -11.675   3.573  11.513  1.00  0.00     0.037 A
ENDROOT
BRANCH   4  15
HETATM   15  C4  UNL     1     -11.353   2.393   7.099  1.00  0.00    -0.034 C
HETATM   16  C5  UNL     1     -10.440   1.273   6.748  1.00  0.00     0.014 C
HETATM   17  C6  UNL     1     -10.003   1.462   5.312  1.00  0.00    -0.013 C
HETATM   18  C7  UNL     1     -11.160   1.343   4.362  1.00  0.00     0.009 C
HETATM   19  C11 UNL     1      -9.340   2.788   5.069  1.00  0.00     0.009 C
HETATM   20  C8  UNL     1     -12.161   2.418   4.734  1.00  0.00    -0.013 C
HETATM   21  C9  UNL     1     -11.579   3.776   4.531  1.00  0.00     0.009 C
HETATM   22  C13 UNL     1     -12.567   2.258   6.187  1.00  0.00     0.014 C
HETATM   23  C10 UNL     1     -10.330   3.887   5.370  1.00  0.00    -0.013 C
HETATM   24  C12 UNL     1     -10.717   3.738   6.825  1.00  0.00     0.014 C
ENDBRANCH   4  15
TORSDOF 1
ENDMDL