MODEL 1
REMARK VINA RESULT: -8.049708798      0.000      0.000
REMARK  3 active torsions:
REMARK  status: ('A' for Active; 'I' for Inactive)
REMARK    1  A    between atoms: C5_5  and  N1_6
REMARK    2  A    between atoms: C7_10  and  C8_11
REMARK    3  A    between atoms: C9_12  and  C10_13
ROOT
HETATM    1  N1  UNL     1     -11.667   2.314   9.153  1.00  0.00    -0.268 N
HETATM    2  N2  UNL     1     -11.622   1.118   9.743  1.00  0.00    -0.306 N
ATOM      3  H2  UNL     1     -11.493   0.224   9.269  1.00  0.00     0.186 HD
HETATM    4  C6  UNL     1     -11.776   1.290  11.069  1.00  0.00     0.132 A
HETATM    5  C7  UNL     1     -11.925   2.634  11.355  1.00  0.00     0.079 A
HETATM    6  C14 UNL     1     -11.850   3.257  10.105  1.00  0.00     0.136 A
HETATM    7  N3  UNL     1     -11.949   4.538   9.951  1.00  0.00    -0.383 N
ATOM      8  H31 UNL     1     -12.087   5.249  10.670  1.00  0.00     0.157 HD
ATOM      9  H32 UNL     1     -11.894   4.992   9.039  1.00  0.00     0.157 HD
ENDROOT
BRANCH   1  10
HETATM   10  C5  UNL     1     -11.548   2.607   7.759  1.00  0.00     0.144 C
HETATM   11  C4  UNL     1     -12.426   1.740   6.884  1.00  0.00     0.030 C
HETATM   12  C3  UNL     1     -12.399   2.331   5.495  1.00  0.00     0.006 C
HETATM   13  C2  UNL     1     -10.996   2.413   4.942  1.00  0.00    -0.016 C
HETATM   14  C1  UNL     1     -11.021   3.262   3.688  1.00  0.00     0.010 C
HETATM   15  C16 UNL     1     -10.033   3.062   5.904  1.00  0.00     0.043 C
HETATM   16  C15 UNL     1     -10.115   2.396   7.270  1.00  0.00     0.195 C
HETATM   17  F1  UNL     1      -9.920   1.033   7.175  1.00  0.00    -0.247 F
ENDBRANCH   1  10
BRANCH   5  18
HETATM   18  C8  UNL     1     -12.114   3.280  12.623  1.00  0.00    -0.061 C
HETATM   19  C9  UNL     1     -12.293   3.814  13.692  1.00  0.00    -0.092 C
BRANCH  19  20
HETATM   20  C10 UNL     1     -12.531   4.450  14.988  1.00  0.00     0.013 C
HETATM   21  C11 UNL     1     -13.499   3.588  15.769  1.00  0.00     0.028 C
HETATM   22  C12 UNL     1     -11.247   4.528  15.804  1.00  0.00     0.028 C
HETATM   23  C13 UNL     1     -13.056   5.827  14.750  1.00  0.00     0.028 C
ENDBRANCH  19  20
ENDBRANCH   5  18
TORSDOF 3
ENDMDL