MODEL 1
REMARK VINA RESULT: -9.426283101      0.000      0.000
REMARK  4 active torsions:
REMARK  status: ('A' for Active; 'I' for Inactive)
REMARK    1  A    between atoms: O1_1  and  C1_3
REMARK    2  A    between atoms: C4_6  and  C5_7
REMARK    3  A    between atoms: C5_7  and  N1_9
REMARK    4  A    between atoms: N1_9  and  C6_11
ROOT
HETATM    1  C5  UNL     1     -12.027   1.644   9.080  1.00  0.00     0.107 C
HETATM    2  S1  UNL     1     -13.598   1.261   8.870  1.00  0.00    -0.060 SA
ENDROOT
BRANCH   1   3
HETATM    3  C4  UNL     1     -11.167   1.844   7.935  1.00  0.00     0.005 A
HETATM    4  C3  UNL     1     -10.937   3.122   7.473  1.00  0.00     0.017 A
HETATM    5  C2  UNL     1     -10.130   3.339   6.390  1.00  0.00     0.040 A
HETATM    6  C1  UNL     1      -9.547   2.262   5.758  1.00  0.00     0.104 A
HETATM    7  C16 UNL     1      -9.777   0.992   6.219  1.00  0.00     0.150 A
HETATM    8  C15 UNL     1     -10.580   0.746   7.302  1.00  0.00     0.059 A
HETATM    9  F1  UNL     1      -9.209  -0.093   5.610  1.00  0.00    -0.203 F
BRANCH   6  10
HETATM   10  O1  UNL     1      -8.733   2.502   4.663  1.00  0.00    -0.358 OA
ATOM     11  H1  UNL     1      -7.796   2.385   4.762  1.00  0.00     0.217 HD
ENDBRANCH   6  10
ENDBRANCH   1   3
BRANCH   1  12
HETATM   12  N1  UNL     1     -11.540   1.772  10.398  1.00  0.00    -0.376 N
ATOM     13  H1  UNL     1     -10.709   1.246  10.670  1.00  0.00     0.161 HD
BRANCH  12  14
HETATM   14  C6  UNL     1     -12.175   2.617  11.370  1.00  0.00     0.083 C
HETATM   15  C7  UNL     1     -11.663   4.020  11.423  1.00  0.00     0.030 C
HETATM   16  C8  UNL     1     -11.563   4.329  12.901  1.00  0.00    -0.008 C
HETATM   17  C9  UNL     1     -12.198   5.627  13.276  1.00  0.00     0.005 C
HETATM   18  C13 UNL     1     -12.407   3.246  13.587  1.00  0.00    -0.008 C
HETATM   19  C10 UNL     1     -12.739   5.543  14.664  1.00  0.00     0.000 C
HETATM   20  C11 UNL     1     -11.977   4.591  15.554  1.00  0.00     0.000 C
HETATM   21  C12 UNL     1     -11.931   3.194  15.011  1.00  0.00     0.005 C
HETATM   22  C14 UNL     1     -12.043   2.062  12.771  1.00  0.00     0.030 C
ENDBRANCH  12  14
ENDBRANCH   1  12
TORSDOF 4
ENDMDL