MODEL 4
REMARK VINA RESULT: -8.114992355      1.515      2.068
REMARK  5 active torsions:
REMARK  status: ('A' for Active; 'I' for Inactive)
REMARK    1  A    between atoms: C2_2  and  N1_5
REMARK    2  A    between atoms: N1_5  and  C4_7
REMARK    3  A    between atoms: C4_7  and  N2_9
REMARK    4  A    between atoms: N2_9  and  N3_11
REMARK    5  A    between atoms: C8_16  and  C9_17
ROOT
HETATM    1  N3  UNL     1     -10.702   2.978  10.130  1.00  0.00    -0.307 N
ATOM      2  H3  UNL     1     -10.231   3.706   9.595  1.00  0.00     0.186 HD
HETATM    3  C5  UNL     1     -11.342   3.322  11.200  1.00  0.00     0.004 C
HETATM    4  C6  UNL     1     -11.333   4.757  11.555  1.00  0.00     0.054 C
HETATM    5  C7  UNL     1     -12.246   4.970  12.739  1.00  0.00     0.011 C
HETATM    6  C8  UNL     1     -11.873   3.970  13.792  1.00  0.00    -0.006 C
HETATM    7  C13 UNL     1     -12.346   2.613  13.363  1.00  0.00     0.011 C
HETATM    8  C14 UNL     1     -12.013   2.266  11.960  1.00  0.00     0.054 C
ENDROOT
BRANCH   1   9
HETATM    9  N2  UNL     1     -10.622   1.663   9.670  1.00  0.00    -0.276 N
ATOM     10  H2  UNL     1     -10.114   0.953  10.197  1.00  0.00     0.189 HD
BRANCH   9  11
HETATM   11  C4  UNL     1     -11.263   1.344   8.456  1.00  0.00     0.189 C
HETATM   12  S1  UNL     1     -12.874   1.135   8.450  1.00  0.00    -0.039 SA
BRANCH  11  13
HETATM   13  N1  UNL     1     -10.530   1.206   7.263  1.00  0.00    -0.331 N
ATOM     14  H1  UNL     1      -9.897   0.416   7.143  1.00  0.00     0.165 HD
BRANCH  13  15
HETATM   15  C2  UNL     1     -10.672   2.178   6.217  1.00  0.00     0.170 C
HETATM   16  C1  UNL     1      -9.626   1.900   5.135  1.00  0.00     0.076 C
HETATM   17  C3  UNL     1     -10.422   3.554   6.823  1.00  0.00     0.076 C
HETATM   18  F1  UNL     1     -11.941   2.094   5.721  1.00  0.00    -0.220 F
ENDBRANCH  13  15
ENDBRANCH  11  13
ENDBRANCH   9  11
ENDBRANCH   1   9
BRANCH   6  19
HETATM   19  C9  UNL     1     -12.442   4.320  15.142  1.00  0.00    -0.048 C
HETATM   20  C10 UNL     1     -11.396   4.534  16.185  1.00  0.00     0.015 C
HETATM   21  C11 UNL     1     -13.425   3.222  15.526  1.00  0.00     0.015 C
HETATM   22  C12 UNL     1     -13.245   5.597  15.014  1.00  0.00     0.015 C
ENDBRANCH   6  19
TORSDOF 5
ENDMDL