MODEL 3
REMARK VINA RESULT: -5.947458529      5.078      7.056
REMARK  5 active torsions:
REMARK  status: ('A' for Active; 'I' for Inactive)
REMARK    1  A    between atoms: C2_2  and  N1_3
REMARK    2  A    between atoms: C2_2  and  C3_7
REMARK    3  A    between atoms: C6_12  and  C7_13
REMARK    4  A    between atoms: C7_13  and  C8_14
REMARK    5  A    between atoms: C8_14  and  C9_15
ROOT
HETATM    1  C3  UNL     1     -11.708   2.307   5.719  1.00  0.00     0.032 A
HETATM    2  S1  UNL     1     -11.501   2.643   4.067  1.00  0.00    -0.084 SA
HETATM    3  C4  UNL     1     -10.611   4.091   4.186  1.00  0.00     0.053 A
HETATM    4 BR1  UNL     1      -9.915   5.219   2.784  1.00  0.00    -0.043 Br
HETATM    5  C5  UNL     1     -10.497   4.276   5.533  1.00  0.00     0.048 A
HETATM    6  C6  UNL     1     -11.070   3.344   6.334  1.00  0.00     0.034 A
ENDROOT
BRANCH   1   7
HETATM    7  C2  UNL     1     -12.427   1.133   6.296  1.00  0.00     0.220 C
HETATM    8  C1  UNL     1     -13.612   1.633   7.077  1.00  0.00     0.045 C
BRANCH   7   9
HETATM    9  N1  UNL     1     -11.546   0.309   7.077  1.00  0.00    -0.071 N
ATOM     10  H13 UNL     1     -11.138   0.840   7.847  1.00  0.00     0.275 HD
ATOM     11  H12 UNL     1     -12.073  -0.381   7.612  1.00  0.00     0.275 HD
ATOM     12  H11 UNL     1     -10.820  -0.140   6.519  1.00  0.00     0.275 HD
ENDBRANCH   7   9
ENDBRANCH   1   7
BRANCH   6  13
HETATM   13  C7  UNL     1     -11.038   3.405   7.804  1.00  0.00    -0.065 C
BRANCH  13  14
HETATM   14  C8  UNL     1     -11.030   3.444   9.006  1.00  0.00    -0.092 C
BRANCH  14  15
HETATM   15  C9  UNL     1     -11.017   3.464  10.466  1.00  0.00     0.013 C
HETATM   16  C10 UNL     1      -9.572   3.317  10.889  1.00  0.00     0.028 C
HETATM   17  C11 UNL     1     -11.770   2.286  11.051  1.00  0.00     0.028 C
HETATM   18  C12 UNL     1     -11.547   4.738  11.050  1.00  0.00     0.028 C
ENDBRANCH  14  15
ENDBRANCH  13  14
ENDBRANCH   6  13
TORSDOF 5
ENDMDL