MODEL 5
REMARK VINA RESULT: -7.962064780      3.788      6.404
REMARK  2 active torsions:
REMARK  status: ('A' for Active; 'I' for Inactive)
REMARK       I    between atoms: C1_2  and  N1_3
REMARK    1  A    between atoms: C1_2  and  C5_12
REMARK    2  A    between atoms: N1_3  and  C2_5
ROOT
HETATM    1  O1  UNL     1      -9.981   0.511   9.088  1.00  0.00    -0.273 OA
HETATM    2  C1  UNL     1     -10.365   1.698   8.982  1.00  0.00     0.228 C
HETATM    3  N1  UNL     1      -9.858   2.650   9.901  1.00  0.00    -0.292 N
ATOM      4  H1  UNL     1      -8.871   2.902   9.863  1.00  0.00     0.172 HD
ENDROOT
BRANCH   2   5
HETATM    5  C5  UNL     1     -11.321   2.038   7.904  1.00  0.00     0.078 C
HETATM    6  C6  UNL     1     -10.615   2.976   6.955  1.00  0.00     0.015 C
HETATM    7  C7  UNL     1     -11.403   3.275   5.718  1.00  0.00     0.010 C
HETATM    8  C8  UNL     1     -12.176   2.125   5.178  1.00  0.00    -0.040 C
HETATM    9  C9  UNL     1     -12.079   2.105   3.683  1.00  0.00     0.009 C
HETATM   10  C12 UNL     1     -13.667   2.254   5.403  1.00  0.00     0.009 C
HETATM   11  C13 UNL     1     -11.664   0.823   5.742  1.00  0.00     0.010 C
HETATM   12  C10 UNL     1     -13.285   1.331   3.196  1.00  0.00     0.001 C
HETATM   13  C11 UNL     1     -14.214   1.255   4.387  1.00  0.00     0.001 C
HETATM   14  C14 UNL     1     -11.834   0.807   7.245  1.00  0.00     0.015 C
ENDBRANCH   2   5
BRANCH   3  15
HETATM   15  C2  UNL     1     -10.627   3.214  10.799  1.00  0.00     0.232 A
HETATM   16  N2  UNL     1     -11.427   2.549  11.646  1.00  0.00    -0.328 N
HETATM   17  C3  UNL     1     -12.071   3.438  12.425  1.00  0.00     0.142 A
ATOM     18  H2  UNL     1     -11.529   1.535  11.693  1.00  0.00     0.168 HD
HETATM   19  C4  UNL     1     -11.642   4.673  12.028  1.00  0.00     0.164 A
HETATM   20 CL1  UNL     1     -12.171   6.209  12.721  1.00  0.00    -0.055 Cl
HETATM   21  O2  UNL     1     -10.784   4.489  11.058  1.00  0.00    -0.265 OA
ENDBRANCH   3  15
TORSDOF 2
ENDMDL