MODEL 3
REMARK VINA RESULT: -5.469461092      2.719      4.931
REMARK  3 active torsions:
REMARK  status: ('A' for Active; 'I' for Inactive)
REMARK    1  A    between atoms: C2_2  and  N1_3
REMARK    2  A    between atoms: C7_11  and  O1_12
REMARK    3  A    between atoms: C13_19  and  C15_21
ROOT
HETATM    1  N1  UNL     1     -11.148   3.012   6.700  1.00  0.00    -0.360 N
HETATM    2  C3  UNL     1     -10.786   3.840   5.556  1.00  0.00     0.086 C
HETATM    3  N2  UNL     1     -10.098   4.879   5.707  1.00  0.00    -0.388 N
ATOM      4  H21 UNL     1      -9.846   5.459   4.907  1.00  0.00     0.157 HD
ATOM      5  H22 UNL     1      -9.831   5.101   6.666  1.00  0.00     0.157 HD
HETATM    6  C4  UNL     1     -11.172   3.520   4.170  1.00  0.00     0.040 C
HETATM    7  C5  UNL     1     -12.142   4.658   3.768  1.00  0.00     0.029 C
HETATM    8  C6  UNL     1     -10.040   3.634   3.199  1.00  0.00     0.053 C
HETATM    9  C7  UNL     1      -9.262   2.419   2.903  1.00  0.00     0.119 C
HETATM   10  C8  UNL     1      -9.889   1.356   2.091  1.00  0.00     0.035 C
HETATM   11  C9  UNL     1     -11.342   1.564   1.775  1.00  0.00     0.030 C
HETATM   12  C10 UNL     1     -12.059   1.433   3.095  1.00  0.00    -0.023 C
HETATM   13  C11 UNL     1     -11.958   2.296   4.095  1.00  0.00    -0.066 C
HETATM   14  C12 UNL     1     -12.794   1.896   5.240  1.00  0.00     0.067 C
HETATM   15  C13 UNL     1     -12.009   1.901   6.552  1.00  0.00     0.046 C
HETATM   16  C14 UNL     1     -13.192   2.163   7.596  1.00  0.00     0.040 C
ENDROOT
BRANCH   1  17
HETATM   17  C2  UNL     1     -10.529   3.382   7.944  1.00  0.00     0.120 C
HETATM   18  C1  UNL     1     -11.434   3.971   8.971  1.00  0.00     0.026 C
ENDBRANCH   1  17
BRANCH  15  19
HETATM   19  C15 UNL     1     -11.628   0.517   6.840  1.00  0.00     0.145 C
HETATM   20 CL1  UNL     1      -9.944   0.077   6.889  1.00  0.00    -0.128 Cl
ENDBRANCH  15  19
BRANCH   9  21
HETATM   21  O1  UNL     1      -8.130   2.851   2.156  1.00  0.00    -0.396 OA
ATOM     22  H1  UNL     1      -7.676   2.061   1.887  1.00  0.00     0.210 HD
ENDBRANCH   9  21
TORSDOF 3
ENDMDL