MODEL 4
REMARK VINA RESULT: -6.458670488      1.481      3.213
REMARK  1 active torsions:
REMARK  status: ('A' for Active; 'I' for Inactive)
REMARK       I    between atoms: C3_5  and  N2_6
REMARK       I    between atoms: C3_5  and  N4_10
REMARK    1  A    between atoms: N4_10  and  C5_12
ROOT
HETATM    1  C1  UNL     1     -10.853   8.473   3.217  1.00  0.00     0.037 C
HETATM    2  C2  UNL     1     -10.311   7.496   2.775  1.00  0.00     0.015 C
HETATM    3  N1  UNL     1      -9.670   6.387   2.251  1.00  0.00    -0.149 N
ATOM      4  H1  UNL     1      -9.395   6.436   1.270  1.00  0.00     0.195 HD
HETATM    5  C3  UNL     1      -9.392   5.312   2.871  1.00  0.00     0.695 C
HETATM    6  N2  UNL     1      -8.715   4.317   2.066  1.00  0.00    -0.126 N
ATOM      7  H2  UNL     1      -9.216   3.861   1.304  1.00  0.00     0.197 HD
HETATM    8  C4  UNL     1      -7.371   3.971   2.321  1.00  0.00     0.196 C
HETATM    9  N3  UNL     1      -6.269   3.693   2.545  1.00  0.00    -0.171 NA
HETATM   10  N4  UNL     1      -9.639   4.969   4.203  1.00  0.00    -0.220 N
ATOM     11  H4  UNL     1      -8.939   5.257   4.887  1.00  0.00     0.178 HD
ENDROOT
BRANCH  10  12
HETATM   12  C5  UNL     1     -10.786   4.246   4.716  1.00  0.00     0.100 C
HETATM   13  C6  UNL     1     -10.828   4.406   6.184  1.00  0.00     0.026 C
HETATM   14  C7  UNL     1     -10.244   3.351   7.027  1.00  0.00     0.002 C
HETATM   15  C8  UNL     1     -11.216   2.832   8.085  1.00  0.00     0.000 C
HETATM   16  C9  UNL     1     -11.441   1.360   7.988  1.00  0.00     0.000 C
HETATM   17  C10 UNL     1     -12.821   0.965   7.582  1.00  0.00     0.000 C
HETATM   18  C11 UNL     1     -13.286   1.601   6.298  1.00  0.00     0.001 C
HETATM   19  C12 UNL     1     -12.423   1.209   5.148  1.00  0.00     0.009 C
HETATM   20  C13 UNL     1     -12.265   2.273   4.085  1.00  0.00    -0.046 C
HETATM   21  C14 UNL     1     -13.394   3.253   4.040  1.00  0.00     0.015 C
HETATM   22  C15 UNL     1     -12.383   1.500   2.750  1.00  0.00     0.015 C
HETATM   23  C16 UNL     1     -10.897   2.911   4.111  1.00  0.00     0.034 C
ENDBRANCH  10  12
TORSDOF 1
ENDMDL