MODEL 3
REMARK VINA RESULT: -6.510858358      2.595      2.981
REMARK  5 active torsions:
REMARK  status: ('A' for Active; 'I' for Inactive)
REMARK    1  A    between atoms: C2_2  and  C3_3
REMARK    2  A    between atoms: C3_3  and  C4_4
REMARK    3  A    between atoms: C6_11  and  C7_12
REMARK       I    between atoms: C7_12  and  N2_14
REMARK    4  A    between atoms: N2_14  and  C8_16
REMARK    5  A    between atoms: C13_21  and  C14_22
REMARK       I    between atoms: C14_22  and  N3_24
ROOT
HETATM    1  C7  UNL     1       7.487  10.382  -6.413  1.00  0.00     0.226 C
HETATM    2  O3  UNL     1       8.181   9.343  -6.206  1.00  0.00    -0.273 OA
HETATM    3  N2  UNL     1       6.823  10.919  -5.294  1.00  0.00    -0.355 N
ATOM      4  H2  UNL     1       6.258  11.758  -5.430  1.00  0.00     0.162 HD
ENDROOT
BRANCH   3   5
HETATM    5  C8  UNL     1       6.891  10.357  -3.967  1.00  0.00     0.097 C
HETATM    6  C9  UNL     1       5.581   9.657  -3.601  1.00  0.00     0.026 C
HETATM    7  C10 UNL     1       5.717   8.951  -2.297  1.00  0.00     0.002 C
HETATM    8  C11 UNL     1       6.301   9.814  -1.206  1.00  0.00     0.001 C
HETATM    9  C12 UNL     1       7.553  10.535  -1.664  1.00  0.00     0.016 C
HETATM   10  C13 UNL     1       7.133  11.377  -2.877  1.00  0.00     0.101 C
BRANCH  10  11
HETATM   11  C14 UNL     1       8.148  12.387  -3.242  1.00  0.00     0.227 C
HETATM   12  O4  UNL     1       9.044  12.149  -4.108  1.00  0.00    -0.273 OA
HETATM   13  N3  UNL     1       8.140  13.648  -2.631  1.00  0.00    -0.338 N
HETATM   14  C15 UNL     1       9.111  14.717  -2.945  1.00  0.00     0.127 C
HETATM   15  C18 UNL     1       7.237  14.198  -1.631  1.00  0.00     0.159 C
HETATM   16  C16 UNL     1       8.429  15.989  -2.558  1.00  0.00     0.023 C
HETATM   17  C17 UNL     1       7.017  15.598  -2.252  1.00  0.00     0.038 C
HETATM   18 BR1  UNL     1       8.134  14.523   0.060  1.00  0.00    -0.068 Br
ENDBRANCH  10  11
ENDBRANCH   3   5
BRANCH   1  19
HETATM   19  C6  UNL     1       7.383  10.983  -7.734  1.00  0.00     0.150 C
HETATM   20  C3  UNL     1       7.065  10.159  -8.922  1.00  0.00     0.225 C
HETATM   21  N1  UNL     1       8.476   9.813  -9.000  1.00  0.00    -0.054 N
HETATM   22  C5  UNL     1       8.776  11.076  -8.364  1.00  0.00     0.251 C
ATOM     23  H12 UNL     1       8.820   8.936  -8.608  1.00  0.00     0.278 HD
ATOM     24  H11 UNL     1       8.903   9.563  -9.892  1.00  0.00     0.278 HD
BRANCH  20  25
HETATM   25  C2  UNL     1       6.676  11.035 -10.110  1.00  0.00     0.047 C
HETATM   26  C1  UNL     1       6.635  10.242 -11.387  1.00  0.00     0.008 C
ENDBRANCH  20  25
BRANCH  20  27
HETATM   27  C4  UNL     1       6.164   9.003  -8.776  1.00  0.00     0.211 C
HETATM   28  O1  UNL     1       4.932   9.104  -8.576  1.00  0.00    -0.646 OA
HETATM   29  O2  UNL     1       6.702   7.730  -8.860  1.00  0.00    -0.646 OA
ENDBRANCH  20  27
ENDBRANCH   1  19
TORSDOF 5
ENDMDL