MODEL 5
REMARK VINA RESULT: -6.288036994      2.307      3.080
REMARK  9 active torsions:
REMARK  status: ('A' for Active; 'I' for Inactive)
REMARK    1  A    between atoms: N1_2  and  C4_5
REMARK    2  A    between atoms: N2_8  and  C7_9
REMARK    3  A    between atoms: C7_9  and  O1_10
REMARK    4  A    between atoms: C7_9  and  C8_12
REMARK    5  A    between atoms: C8_12  and  C9_13
REMARK    6  A    between atoms: C9_13  and  C10_14
REMARK    7  A    between atoms: C11_15  and  C12_16
REMARK    8  A    between atoms: C18_23  and  C19_24
REMARK    9  A    between atoms: C19_24  and  O2_25
ROOT
HETATM    1  C7  UNL     1       6.382  10.731  -5.308  1.00  0.00     0.358 C
ENDROOT
BRANCH   1   2
HETATM    2  N2  UNL     1       6.532  10.060  -6.599  1.00  0.00     0.123 N
HETATM    3  C6  UNL     1       5.185   9.922  -7.135  1.00  0.00     0.278 C
HETATM    4  C5  UNL     1       5.163   9.212  -8.456  1.00  0.00     0.064 C
HETATM    5  C4  UNL     1       6.104   9.825  -9.463  1.00  0.00     0.193 C
HETATM    6  C20 UNL     1       6.761  11.021  -8.856  1.00  0.00     0.071 C
HETATM    7  C18 UNL     1       7.403  10.744  -7.505  1.00  0.00     0.251 C
BRANCH   5   8
HETATM    8  N1  UNL     1       5.404  10.261 -10.654  1.00  0.00    -0.074 N
HETATM    9  C1  UNL     1       6.218  10.128 -11.835  1.00  0.00     0.272 C
HETATM   10  C2  UNL     1       4.192   9.502 -10.777  1.00  0.00     0.272 C
HETATM   11  C3  UNL     1       5.040  11.672 -10.545  1.00  0.00     0.272 C
ENDBRANCH   5   8
BRANCH   7  12
HETATM   12  C19 UNL     1       8.617   9.870  -7.800  1.00  0.00     0.200 C
BRANCH  12  13
HETATM   13  O2  UNL     1       9.287  10.364  -8.937  1.00  0.00    -0.399 OA
ATOM     14  H2  UNL     1      10.149  10.676  -8.687  1.00  0.00     0.209 HD
ENDBRANCH  12  13
ENDBRANCH   7  12
ENDBRANCH   1   2
BRANCH   1  15
HETATM   15  O1  UNL     1       7.607  10.482  -4.648  1.00  0.00    -0.368 OA
ATOM     16  H1  UNL     1       8.262  10.602  -5.325  1.00  0.00     0.212 HD
ENDBRANCH   1  15
BRANCH   1  17
HETATM   17  C8  UNL     1       5.269  10.090  -4.561  1.00  0.00     0.086 C
BRANCH  17  18
HETATM   18  C9  UNL     1       4.317  11.004  -3.871  1.00  0.00     0.028 C
HETATM   19  C13 UNL     1       5.180  11.967  -3.040  1.00  0.00     0.023 C
HETATM   20  C14 UNL     1       4.361  12.883  -2.192  1.00  0.00     0.002 C
HETATM   21  C15 UNL     1       3.410  13.687  -3.051  1.00  0.00     0.000 C
HETATM   22  C16 UNL     1       2.589  12.733  -3.852  1.00  0.00     0.002 C
HETATM   23  C17 UNL     1       3.458  11.846  -4.745  1.00  0.00     0.023 C
BRANCH  18  24
HETATM   24  C10 UNL     1       3.472  10.232  -2.933  1.00  0.00    -0.096 C
HETATM   25  C11 UNL     1       2.794   9.589  -2.177  1.00  0.00    -0.095 C
BRANCH  25  26
HETATM   26  C12 UNL     1       1.960   8.783  -1.257  1.00  0.00     0.178 C
HETATM   27 BR1  UNL     1       1.574   7.128  -2.164  1.00  0.00    -0.083 Br
ENDBRANCH  25  26
ENDBRANCH  18  24
ENDBRANCH  17  18
ENDBRANCH   1  17
TORSDOF 9
ENDMDL