MODEL 2
REMARK VINA RESULT: -5.867526381      3.301      7.040
REMARK  6 active torsions:
REMARK  status: ('A' for Active; 'I' for Inactive)
REMARK    1  A    between atoms: C4_5  and  C5_6
REMARK    2  A    between atoms: C5_6  and  C6_7
REMARK    3  A    between atoms: C6_7  and  N2_9
REMARK    4  A    between atoms: C11_13  and  C13_15
REMARK    5  A    between atoms: C15_19  and  C16_20
REMARK       I    between atoms: N4_23  and  C19_24
REMARK       I    between atoms: C19_24  and  N6_28
REMARK    6  A    between atoms: N6_28  and  N7_30
ROOT
HETATM    1  C1  UNL     1       2.004  12.592  -2.646  1.00  0.00     0.221 C
HETATM    2  N1  UNL     1       2.738  11.967  -3.288  1.00  0.00    -0.464 NA
HETATM    3  C2  UNL     1       3.644  11.202  -4.047  1.00  0.00     0.181 C
HETATM    4  C3  UNL     1       3.902   9.848  -3.412  1.00  0.00     0.067 C
HETATM    5  C4  UNL     1       5.383   9.757  -3.162  1.00  0.00     0.107 C
HETATM    6  N4  UNL     1       5.901  10.762  -4.105  1.00  0.00    -0.209 N
HETATM    7  C19 UNL     1       7.035  10.688  -4.948  1.00  0.00     0.693 C
HETATM    8  N5  UNL     1       8.198  10.868  -4.443  1.00  0.00    -0.233 N
ATOM      9  H51 UNL     1       9.016  10.815  -5.050  1.00  0.00     0.174 HD
ATOM     10  H52 UNL     1       8.270  11.059  -3.444  1.00  0.00     0.174 HD
HETATM   11  N6  UNL     1       6.934  10.421  -6.338  1.00  0.00    -0.072 N
ATOM     12  H6  UNL     1       7.643  10.797  -6.968  1.00  0.00     0.212 HD
HETATM   13  C20 UNL     1       4.996  11.881  -4.002  1.00  0.00     0.181 C
ENDROOT
BRANCH   5  14
HETATM   14  C5  UNL     1       5.801  10.101  -1.755  1.00  0.00     0.059 C
BRANCH  14  15
HETATM   15  C6  UNL     1       6.913   9.278  -1.209  1.00  0.00     0.189 C
HETATM   16  C7  UNL     1       7.875  10.153  -0.481  1.00  0.00     0.040 C
BRANCH  15  17
HETATM   17  N2  UNL     1       6.434   8.158  -0.400  1.00  0.00    -0.052 N
HETATM   18  C8  UNL     1       7.645   7.626   0.246  1.00  0.00     0.274 C
HETATM   19  C9  UNL     1       5.562   8.681   0.603  1.00  0.00     0.240 C
HETATM   20  C10 UNL     1       5.001   7.524   1.407  1.00  0.00     0.046 C
HETATM   21  C11 UNL     1       3.906   6.945   0.524  1.00  0.00     0.039 C
HETATM   22  C12 UNL     1       2.687   7.814   0.758  1.00  0.00     0.025 C
HETATM   23  C14 UNL     1       4.270   7.041  -0.930  1.00  0.00     0.065 C
HETATM   24  C15 UNL     1       5.743   7.198  -1.184  1.00  0.00     0.269 C
BRANCH  21  25
HETATM   25  C13 UNL     1       3.522   5.567   0.919  1.00  0.00     0.239 C
HETATM   26  N3  UNL     1       3.662   5.117   2.257  1.00  0.00    -0.061 NA
HETATM   27  O1  UNL     1       3.062   4.756   0.081  1.00  0.00    -0.276 OA
ENDBRANCH  21  25
BRANCH  24  28
HETATM   28  C16 UNL     1       6.431   5.900  -1.183  1.00  0.00    -0.073 C
HETATM   29  C17 UNL     1       7.008   4.819  -1.204  1.00  0.00    -0.109 C
HETATM   30  C18 UNL     1       7.674   3.520  -1.239  1.00  0.00     0.112 C
ENDBRANCH  24  28
ENDBRANCH  15  17
ENDBRANCH  14  15
ENDBRANCH   5  14
BRANCH  11  31
HETATM   31  N7  UNL     1       5.882   9.654  -6.870  1.00  0.00    -0.024 N
HETATM   32  O2  UNL     1       5.756   8.446  -6.635  1.00  0.00    -0.516 OA
HETATM   33  O3  UNL     1       4.974  10.276  -7.674  1.00  0.00    -0.516 OA
ENDBRANCH  11  31
TORSDOF 6
ENDMDL