MODEL 5
REMARK VINA RESULT: -7.133638849      1.479      2.263
REMARK  5 active torsions:
REMARK  status: ('A' for Active; 'I' for Inactive)
REMARK    1  A    between atoms: C2_2  and  C3_3
REMARK    2  A    between atoms: C2_2  and  C4_5
REMARK    3  A    between atoms: C4_5  and  N1_6
REMARK    4  A    between atoms: C4_5  and  C16_20
REMARK       I    between atoms: N1_6  and  C5_8
REMARK    5  A    between atoms: C5_8  and  C6_10
REMARK       I    between atoms: C16_20  and  N2_22
REMARK       I    between atoms: N3_25  and  C19_26
ROOT
HETATM    1  C4  UNL     1       5.882  10.179  -2.920  1.00  0.00     0.181 C
ENDROOT
BRANCH   1   2
HETATM    2  C2  UNL     1       4.967  11.277  -2.455  1.00  0.00     0.027 C
HETATM    3  C1  UNL     1       3.843  10.662  -1.647  1.00  0.00     0.014 C
BRANCH   2   4
HETATM    4  C3  UNL     1       4.536  12.266  -3.470  1.00  0.00     0.121 C
HETATM    5 CL1  UNL     1       3.088  11.867  -4.380  1.00  0.00    -0.130 Cl
ENDBRANCH   2   4
ENDBRANCH   1   2
BRANCH   1   6
HETATM    6  N1  UNL     1       6.220  10.362  -4.331  1.00  0.00    -0.347 N
HETATM    7  C5  UNL     1       5.754   9.478  -5.341  1.00  0.00     0.227 C
HETATM    8  O1  UNL     1       5.031   8.520  -4.967  1.00  0.00    -0.273 OA
ATOM      9  H1  UNL     1       6.810  11.150  -4.598  1.00  0.00     0.163 HD
BRANCH   7  10
HETATM   10  C6  UNL     1       6.069   9.626  -6.762  1.00  0.00     0.042 C
HETATM   11  C7  UNL     1       7.234  10.612  -6.922  1.00  0.00     0.024 C
HETATM   12  C8  UNL     1       7.547  10.822  -8.375  1.00  0.00    -0.013 C
HETATM   13  C9  UNL     1       7.907   9.523  -9.059  1.00  0.00     0.009 C
HETATM   14  C13 UNL     1       6.345  11.441  -9.037  1.00  0.00     0.009 C
HETATM   15  C10 UNL     1       6.755   8.570  -8.857  1.00  0.00    -0.013 C
HETATM   16  C11 UNL     1       5.549   9.142  -9.558  1.00  0.00     0.009 C
HETATM   17  C15 UNL     1       6.526   8.330  -7.399  1.00  0.00     0.024 C
HETATM   18  C12 UNL     1       5.202  10.478  -8.947  1.00  0.00    -0.013 C
HETATM   19  C14 UNL     1       4.904  10.232  -7.481  1.00  0.00     0.024 C
ENDBRANCH   7  10
ENDBRANCH   1   6
BRANCH   1  20
HETATM   20  C16 UNL     1       7.133  10.226  -2.127  1.00  0.00     0.243 C
HETATM   21  O2  UNL     1       7.162   9.471  -1.072  1.00  0.00    -0.271 OA
HETATM   22  N2  UNL     1       8.253  11.019  -2.443  1.00  0.00    -0.347 N
HETATM   23  C17 UNL     1       8.264  11.906  -3.544  1.00  0.00     0.145 C
HETATM   24  C21 UNL     1       9.431  10.898  -1.595  1.00  0.00     0.145 C
HETATM   25  C18 UNL     1       9.063  13.170  -3.311  1.00  0.00     0.145 C
HETATM   26  N3  UNL     1      10.011  13.089  -2.253  1.00  0.00    -0.353 N
HETATM   27  C19 UNL     1      11.232  13.796  -2.340  1.00  0.00     0.184 C
HETATM   28  C20 UNL     1       9.741  12.289  -1.082  1.00  0.00     0.145 C
HETATM   29  N4  UNL     1      12.288  13.365  -2.936  1.00  0.00    -0.374 N
HETATM   30  N5  UNL     1      11.303  15.079  -1.727  1.00  0.00    -0.064 NA
ATOM     31  H42 UNL     1      12.237  12.446  -3.375  1.00  0.00     0.158 HD
ATOM     32  H41 UNL     1      13.169  13.875  -2.999  1.00  0.00     0.158 HD
ENDBRANCH   1  20
TORSDOF 5
ENDMDL