MODEL 4
REMARK VINA RESULT: -6.191886930      1.233      3.461
REMARK  7 active torsions:
REMARK  status: ('A' for Active; 'I' for Inactive)
REMARK       I    between atoms: C2_2  and  N1_4
REMARK    1  A    between atoms: N1_4  and  C3_6
REMARK    2  A    between atoms: C3_6  and  C4_7
REMARK    3  A    between atoms: C3_6  and  C7_12
REMARK    4  A    between atoms: C4_7  and  C5_8
REMARK    5  A    between atoms: C5_8  and  C6_9
REMARK       I    between atoms: C7_12  and  N2_14
REMARK    6  A    between atoms: N3_19  and  C12_21
REMARK    7  A    between atoms: C12_21  and  C13_25
ROOT
HETATM    1  C7  UNL     1       6.144  10.742  -3.826  1.00  0.00     0.270 C
HETATM    2  O4  UNL     1       7.064  11.569  -3.521  1.00  0.00    -0.266 OA
HETATM    3  N2  UNL     1       6.283  10.104  -5.079  1.00  0.00    -0.345 N
HETATM    4  C8  UNL     1       5.383   9.133  -5.627  1.00  0.00     0.136 C
HETATM    5  C9  UNL     1       5.528   8.861  -7.091  1.00  0.00     0.046 C
HETATM    6  C10 UNL     1       6.542   7.758  -7.284  1.00  0.00     0.018 C
HETATM    7  C11 UNL     1       5.894  10.086  -7.871  1.00  0.00     0.009 C
HETATM    8  N3  UNL     1       5.279  10.223  -8.964  1.00  0.00    -0.351 N
ATOM      9  H3  UNL     1       4.613   9.479  -9.170  1.00  0.00     0.166 HD
HETATM   10  C16 UNL     1       6.907  10.951  -7.276  1.00  0.00     0.121 C
HETATM   11 BR1  UNL     1       8.421  11.122  -8.453  1.00  0.00    -0.083 Br
HETATM   12  C17 UNL     1       7.426  10.433  -5.957  1.00  0.00     0.147 C
ENDROOT
BRANCH   1  13
HETATM   13  C3  UNL     1       5.085  10.576  -2.853  1.00  0.00     0.103 C
BRANCH  13  14
HETATM   14  N1  UNL     1       4.237  11.749  -2.712  1.00  0.00    -0.323 N
HETATM   15  C2  UNL     1       3.064  11.914  -3.465  1.00  0.00     0.218 C
HETATM   16  C1  UNL     1       2.214  13.133  -3.293  1.00  0.00     0.117 C
HETATM   17  O1  UNL     1       2.657  11.076  -4.308  1.00  0.00    -0.274 OA
ATOM     18  H1  UNL     1       4.503  12.475  -2.046  1.00  0.00     0.169 HD
ENDBRANCH  13  14
BRANCH  13  19
HETATM   19  C4  UNL     1       5.320  10.000  -1.526  1.00  0.00     0.042 C
BRANCH  19  20
HETATM   20  C5  UNL     1       6.112   8.802  -1.307  1.00  0.00     0.087 C
BRANCH  20  21
HETATM   21  C6  UNL     1       5.578   7.475  -1.283  1.00  0.00     0.198 C
HETATM   22  O2  UNL     1       6.218   6.409  -1.244  1.00  0.00    -0.645 OA
HETATM   23  O3  UNL     1       4.172   7.269  -1.302  1.00  0.00    -0.645 OA
ENDBRANCH  20  21
ENDBRANCH  19  20
ENDBRANCH  13  19
ENDBRANCH   1  13
BRANCH   8  24
HETATM   24  C12 UNL     1       5.355  11.208  -9.928  1.00  0.00     0.078 C
HETATM   25  N4  UNL     1       5.269  12.470  -9.769  1.00  0.00    -0.389 N
ATOM     26  H42 UNL     1       5.152  12.791  -8.808  1.00  0.00     0.157 HD
ATOM     27  H41 UNL     1       5.325  13.197 -10.482  1.00  0.00     0.157 HD
BRANCH  24  28
HETATM   28  C13 UNL     1       5.529  10.732 -11.354  1.00  0.00     0.045 C
HETATM   29  C14 UNL     1       6.869  10.111 -11.539  1.00  0.00     0.017 C
HETATM   30  C15 UNL     1       5.368  11.896 -12.299  1.00  0.00     0.017 C
ENDBRANCH  24  28
ENDBRANCH   8  24
TORSDOF 7
ENDMDL