MODEL 1
REMARK VINA RESULT: -8.127786745      0.000      0.000
REMARK  6 active torsions:
REMARK  status: ('A' for Active; 'I' for Inactive)
REMARK    1  A    between atoms: C2_2  and  C3_3
REMARK    2  A    between atoms: C3_3  and  N1_4
REMARK    3  A    between atoms: C3_3  and  C8_12
REMARK       I    between atoms: N1_4  and  C4_6
REMARK    4  A    between atoms: C4_6  and  C5_8
REMARK       I    between atoms: C8_12  and  N2_14
REMARK    5  A    between atoms: N2_14  and  C9_16
REMARK    6  A    between atoms: C16_23  and  C17_24
ROOT
HETATM    1  C8  UNL     1       6.050   9.698  -5.818  1.00  0.00     0.240 C
HETATM    2  O2  UNL     1       5.389   8.651  -5.637  1.00  0.00    -0.271 OA
HETATM    3  N2  UNL     1       5.952  10.720  -4.845  1.00  0.00    -0.354 N
ATOM      4  H2  UNL     1       6.484  11.581  -4.963  1.00  0.00     0.162 HD
ENDROOT
BRANCH   3   5
HETATM    5  C9  UNL     1       5.116  10.558  -3.695  1.00  0.00     0.092 C
HETATM    6  C10 UNL     1       3.651  10.449  -4.055  1.00  0.00     0.010 C
HETATM    7  C11 UNL     1       2.932   9.908  -2.839  1.00  0.00     0.011 C
HETATM    8  C19 UNL     1       3.033  11.762  -4.445  1.00  0.00     0.025 C
HETATM    9  C12 UNL     1       3.131  10.843  -1.667  1.00  0.00    -0.013 C
HETATM   10  C13 UNL     1       4.576  11.122  -1.390  1.00  0.00     0.011 C
HETATM   11  C18 UNL     1       2.472  12.155  -2.040  1.00  0.00     0.023 C
HETATM   12  C14 UNL     1       5.264  11.641  -2.653  1.00  0.00     0.010 C
HETATM   13  C15 UNL     1       4.623  12.932  -3.029  1.00  0.00     0.025 C
HETATM   14  C16 UNL     1       3.139  12.729  -3.267  1.00  0.00     0.040 C
BRANCH  14  15
HETATM   15  C17 UNL     1       2.453  13.971  -3.641  1.00  0.00     0.239 C
HETATM   16  N3  UNL     1       3.043  15.254  -3.533  1.00  0.00    -0.061 NA
HETATM   17  O3  UNL     1       1.266  13.898  -4.086  1.00  0.00    -0.276 OA
ENDBRANCH  14  15
ENDBRANCH   3   5
BRANCH   1  18
HETATM   18  C3  UNL     1       6.896   9.830  -7.030  1.00  0.00     0.176 C
BRANCH  18  19
HETATM   19  C2  UNL     1       8.115  10.660  -6.685  1.00  0.00     0.030 C
HETATM   20  C1  UNL     1       8.751  11.252  -7.924  1.00  0.00     0.007 C
ENDBRANCH  18  19
BRANCH  18  21
HETATM   21  N1  UNL     1       6.200  10.320  -8.172  1.00  0.00    -0.346 N
HETATM   22  C4  UNL     1       6.262   9.705  -9.448  1.00  0.00     0.237 C
HETATM   23  O1  UNL     1       6.966   8.656  -9.644  1.00  0.00    -0.272 OA
ATOM     24  H1  UNL     1       5.627  11.158  -8.066  1.00  0.00     0.163 HD
BRANCH  22  25
HETATM   25  C5  UNL     1       5.526  10.232 -10.611  1.00  0.00     0.091 C
HETATM   26  C6  UNL     1       4.282   9.352 -10.797  1.00  0.00     0.037 C
HETATM   27  C7  UNL     1       5.058  11.660 -10.390  1.00  0.00     0.037 C
HETATM   28 BR1  UNL     1       6.579  10.173 -12.202  1.00  0.00    -0.076 Br
ENDBRANCH  22  25
ENDBRANCH  18  21
ENDBRANCH   1  18
TORSDOF 6
ENDMDL