MODEL 2
REMARK VINA RESULT: -8.525464259      1.108      1.816
REMARK  7 active torsions:
REMARK  status: ('A' for Active; 'I' for Inactive)
REMARK    1  A    between atoms: C3_3  and  C4_4
REMARK    2  A    between atoms: C3_3  and  N2_19
REMARK    3  A    between atoms: C4_4  and  N1_5
REMARK    4  A    between atoms: N1_5  and  C5_8
REMARK    5  A    between atoms: C16_21  and  O1_22
REMARK    6  A    between atoms: C16_21  and  C17_24
REMARK    7  A    between atoms: C17_24  and  C18_25
ROOT
HETATM    1  C1  UNL     1       8.987  11.227  -7.980  1.00  0.00     0.014 C
HETATM    2  C2  UNL     1       7.848  10.850  -8.036  1.00  0.00    -0.090 C
HETATM    3  C3  UNL     1       6.427  10.396  -8.130  1.00  0.00     0.191 C
ENDROOT
BRANCH   3   4
HETATM    4  C4  UNL     1       6.293   9.177  -7.271  1.00  0.00     0.271 C
BRANCH   4   5
HETATM    5  N1  UNL     1       5.057   9.195  -6.515  1.00  0.00    -0.063 N
ATOM      6  H12 UNL     1       4.311   9.624  -7.062  1.00  0.00     0.278 HD
ATOM      7  H11 UNL     1       4.682   8.252  -6.421  1.00  0.00     0.278 HD
BRANCH   5   8
HETATM    8  C5  UNL     1       5.162   9.821  -5.240  1.00  0.00     0.128 C
HETATM    9  C6  UNL     1       4.791   8.749  -4.207  1.00  0.00     0.043 C
HETATM   10  C7  UNL     1       4.889   9.268  -2.812  1.00  0.00    -0.010 C
HETATM   11  C8  UNL     1       3.995  10.463  -2.576  1.00  0.00     0.009 C
HETATM   12  C12 UNL     1       6.320   9.707  -2.559  1.00  0.00     0.026 C
HETATM   13  C9  UNL     1       4.322  11.477  -3.651  1.00  0.00    -0.010 C
HETATM   14  C10 UNL     1       5.733  11.952  -3.378  1.00  0.00     0.026 C
HETATM   15  C14 UNL     1       4.162  10.938  -5.042  1.00  0.00     0.043 C
HETATM   16  C11 UNL     1       6.663  10.786  -3.559  1.00  0.00     0.021 C
HETATM   17 BR1  UNL     1       8.481  11.354  -3.267  1.00  0.00    -0.085 Br
HETATM   18  C13 UNL     1       6.553  10.265  -4.976  1.00  0.00     0.060 C
ENDBRANCH   5   8
ENDBRANCH   4   5
ENDBRANCH   3   4
BRANCH   3  19
HETATM   19  N2  UNL     1       6.076  10.165  -9.514  1.00  0.00    -0.332 N
HETATM   20  C15 UNL     1       6.987  10.370 -10.624  1.00  0.00     0.165 C
HETATM   21  C16 UNL     1       6.017  10.495 -11.776  1.00  0.00     0.082 C
HETATM   22  C20 UNL     1       5.038   9.417 -11.458  1.00  0.00     0.142 C
HETATM   23  C21 UNL     1       4.821   9.695  -9.986  1.00  0.00     0.223 C
HETATM   24  O2  UNL     1       3.735   9.518  -9.409  1.00  0.00    -0.273 OA
BRANCH  21  25
HETATM   25  O1  UNL     1       5.338  11.712 -11.576  1.00  0.00    -0.388 OA
ATOM     26  H1  UNL     1       4.616  11.513 -10.991  1.00  0.00     0.210 HD
ENDBRANCH  21  25
BRANCH  21  27
HETATM   27  C17 UNL     1       6.617  10.538 -13.106  1.00  0.00     0.040 C
BRANCH  27  28
HETATM   28  C18 UNL     1       6.205  11.565 -14.082  1.00  0.00    -0.002 C
HETATM   29  C19 UNL     1       7.000  11.654 -15.349  1.00  0.00     0.005 C
ENDBRANCH  27  28
ENDBRANCH  21  27
ENDBRANCH   3  19
TORSDOF 7
ENDMDL