MODEL 2
REMARK VINA RESULT: -7.123597490      4.597      7.558
REMARK  6 active torsions:
REMARK  status: ('A' for Active; 'I' for Inactive)
REMARK    1  A    between atoms: C2_2  and  C4_10
REMARK    2  A    between atoms: N1_3  and  N2_5
REMARK    3  A    between atoms: N2_5  and  C3_7
REMARK    4  A    between atoms: C4_10  and  N4_11
REMARK    5  A    between atoms: N4_11  and  C5_13
REMARK       I    between atoms: N5_17  and  C9_18
REMARK    6  A    between atoms: C9_18  and  C10_20
ROOT
HETATM    1  C4  UNL     1       5.653  10.504  -4.955  1.00  0.00     0.054 C
HETATM    2  C12 UNL     1       6.769  11.093  -4.635  1.00  0.00    -0.051 C
HETATM    3  C13 UNL     1       8.023  11.209  -5.410  1.00  0.00     0.036 C
HETATM    4  C14 UNL     1       9.212  10.581  -4.665  1.00  0.00     0.004 C
HETATM    5  C15 UNL     1       9.309  11.180  -3.273  1.00  0.00     0.001 C
HETATM    6  C16 UNL     1       8.028  10.947  -2.550  1.00  0.00     0.004 C
HETATM    7  C17 UNL     1       6.917  11.739  -3.254  1.00  0.00     0.036 C
ENDROOT
BRANCH   1   8
HETATM    8  C2  UNL     1       5.415   9.812  -6.182  1.00  0.00     0.048 C
HETATM    9  C1  UNL     1       6.087   8.468  -6.376  1.00  0.00     0.072 C
HETATM   10  N1  UNL     1       4.721  10.197  -7.183  1.00  0.00    -0.301 N
ATOM     11  H1  UNL     1       4.231  11.090  -7.143  1.00  0.00     0.186 HD
BRANCH  10  12
HETATM   12  N2  UNL     1       4.626   9.414  -8.321  1.00  0.00    -0.278 N
ATOM     13  H2  UNL     1       4.571   8.404  -8.193  1.00  0.00     0.189 HD
BRANCH  12  14
HETATM   14  C3  UNL     1       4.600   9.900  -9.632  1.00  0.00     0.199 C
HETATM   15  N3  UNL     1       3.983   9.160 -10.661  1.00  0.00    -0.068 NA
HETATM   16  S1  UNL     1       5.287  11.330  -9.979  1.00  0.00    -0.043 SA
ENDBRANCH  12  14
ENDBRANCH  10  12
ENDBRANCH   1   8
BRANCH   1  17
HETATM   17  N4  UNL     1       4.579  10.569  -3.994  1.00  0.00    -0.382 N
ATOM     18  H4  UNL     1       4.180  11.488  -3.803  1.00  0.00     0.160 HD
BRANCH  17  19
HETATM   19  C5  UNL     1       4.031   9.460  -3.289  1.00  0.00     0.100 C
HETATM   20  C6  UNL     1       2.637   9.809  -2.814  1.00  0.00     0.028 C
HETATM   21  C7  UNL     1       2.280   9.179  -1.511  1.00  0.00     0.022 C
HETATM   22  C8  UNL     1       2.746   7.718  -1.583  1.00  0.00     0.126 C
HETATM   23  N5  UNL     1       4.180   7.768  -1.553  1.00  0.00    -0.350 N
HETATM   24  C9  UNL     1       4.928   6.752  -0.950  1.00  0.00     0.229 C
HETATM   25  C11 UNL     1       4.862   8.898  -2.164  1.00  0.00     0.150 C
HETATM   26  O1  UNL     1       6.207   6.810  -0.931  1.00  0.00    -0.273 OA
BRANCH  24  27
HETATM   27  C10 UNL     1       4.314   5.566  -0.305  1.00  0.00     0.188 C
HETATM   28 BR1  UNL     1       3.855   5.981   1.546  1.00  0.00    -0.087 Br
ENDBRANCH  24  27
ENDBRANCH  17  19
ENDBRANCH   1  17
TORSDOF 6
ENDMDL