MODEL 2
REMARK VINA RESULT: -8.479087304      1.143      1.336
REMARK  5 active torsions:
REMARK  status: ('A' for Active; 'I' for Inactive)
REMARK    1  A    between atoms: C9_9  and  C10_10
REMARK    2  A    between atoms: C10_10  and  N1_11
REMARK       I    between atoms: N1_11  and  C11_13
REMARK       I    between atoms: C11_13  and  N2_15
REMARK    3  A    between atoms: N2_15  and  C12_17
REMARK    4  A    between atoms: C12_17  and  C13_19
REMARK       I    between atoms: C13_19  and  N3_21
REMARK    5  A    between atoms: C19_27  and  C20_28
REMARK       I    between atoms: C20_28  and  N4_30
ROOT
HETATM    1  C1  UNL     1       2.211   8.931  -2.367  1.00  0.00     0.015 C
HETATM    2  C2  UNL     1       2.850  10.067  -2.174  1.00  0.00    -0.080 C
HETATM    3  C3  UNL     1       2.136  11.288  -1.636  1.00  0.00     0.034 C
HETATM    4  C4  UNL     1       3.113  11.844  -0.647  1.00  0.00     0.005 C
HETATM    5  C5  UNL     1       4.450  11.248  -1.026  1.00  0.00     0.015 C
HETATM    6  C6  UNL     1       4.226  10.527  -2.357  1.00  0.00    -0.010 C
HETATM    7  C7  UNL     1       4.383  11.474  -3.509  1.00  0.00     0.001 C
HETATM    8  C8  UNL     1       4.441  10.688  -4.829  1.00  0.00     0.020 C
HETATM    9  C9  UNL     1       5.546   9.711  -4.868  1.00  0.00    -0.006 C
HETATM   10  C16 UNL     1       5.410   8.734  -3.691  1.00  0.00     0.020 C
HETATM   11  C17 UNL     1       5.285   9.483  -2.431  1.00  0.00     0.001 C
HETATM   12  C18 UNL     1       6.615  10.243  -2.250  1.00  0.00     0.025 C
HETATM   13  C19 UNL     1       6.788  11.226  -3.362  1.00  0.00     0.043 C
HETATM   14  C22 UNL     1       5.677  12.240  -3.448  1.00  0.00     0.025 C
HETATM   15  C23 UNL     1       6.846  10.492  -4.671  1.00  0.00     0.034 C
ENDROOT
BRANCH   9  16
HETATM   16  C10 UNL     1       5.634   8.851  -6.069  1.00  0.00     0.075 C
BRANCH  16  17
HETATM   17  N1  UNL     1       4.999   9.157  -7.279  1.00  0.00    -0.322 N
HETATM   18  C11 UNL     1       5.346  10.066  -8.280  1.00  0.00     0.322 C
HETATM   19  O1  UNL     1       6.319  10.824  -8.230  1.00  0.00    -0.247 OA
HETATM   20  N2  UNL     1       4.556  10.184  -9.495  1.00  0.00    -0.304 N
ATOM     21  H2  UNL     1       3.733   9.594  -9.615  1.00  0.00     0.167 HD
ATOM     22  H1  UNL     1       4.143   8.632  -7.457  1.00  0.00     0.169 HD
BRANCH  20  23
HETATM   23  C12 UNL     1       4.911  11.118 -10.530  1.00  0.00     0.366 C
HETATM   24  F1  UNL     1       5.339  12.305  -9.938  1.00  0.00    -0.216 F
BRANCH  23  25
HETATM   25  C13 UNL     1       5.939  10.590 -11.447  1.00  0.00     0.273 C
HETATM   26  O2  UNL     1       6.647   9.628 -11.078  1.00  0.00    -0.268 OA
HETATM   27  N3  UNL     1       6.141  11.145 -12.731  1.00  0.00    -0.357 N
HETATM   28  C14 UNL     1       5.337  12.256 -13.183  1.00  0.00     0.152 C
HETATM   29  C15 UNL     1       7.156  10.608 -13.611  1.00  0.00     0.152 C
ENDBRANCH  23  25
ENDBRANCH  20  23
ENDBRANCH  16  17
ENDBRANCH   9  16
BRANCH  13  30
HETATM   30  C20 UNL     1       8.057  11.968  -3.155  1.00  0.00     0.226 C
HETATM   31  O3  UNL     1       8.771  12.283  -4.144  1.00  0.00    -0.273 OA
HETATM   32  N4  UNL     1       8.449  12.315  -1.850  1.00  0.00    -0.365 N
HETATM   33  C21 UNL     1       9.672  13.040  -1.553  1.00  0.00     0.149 C
ATOM     34  H4  UNL     1       7.845  12.044  -1.073  1.00  0.00     0.161 HD
ENDBRANCH  13  30
TORSDOF 5
ENDMDL