MODEL 5
REMARK VINA RESULT: -7.362814389      3.736      7.669
REMARK  7 active torsions:
REMARK  status: ('A' for Active; 'I' for Inactive)
REMARK    1  A    between atoms: C2_2  and  N1_4
REMARK       I    between atoms: N1_4  and  C4_6
REMARK    2  A    between atoms: C4_6  and  C5_8
REMARK    3  A    between atoms: C5_8  and  C6_9
REMARK       I    between atoms: C6_9  and  N2_11
REMARK    4  A    between atoms: N2_11  and  C7_13
REMARK    5  A    between atoms: C14_20  and  C15_21
REMARK    6  A    between atoms: C20_28  and  C21_29
REMARK    7  A    between atoms: C22_30  and  C23_31
ROOT
HETATM    1  C6  UNL     1       5.065  10.666  -4.764  1.00  0.00     0.236 C
HETATM    2  O2  UNL     1       3.986  11.046  -5.292  1.00  0.00    -0.272 OA
HETATM    3  N2  UNL     1       6.086  10.092  -5.596  1.00  0.00    -0.355 N
ATOM      4  H2  UNL     1       6.967   9.780  -5.187  1.00  0.00     0.162 HD
ENDROOT
BRANCH   1   5
HETATM    5  C5  UNL     1       5.205  10.842  -3.320  1.00  0.00     0.122 C
HETATM    6  C18 UNL     1       5.582  12.233  -2.898  1.00  0.00     0.030 C
HETATM    7  C19 UNL     1       6.311  12.081  -1.579  1.00  0.00     0.019 C
HETATM    8  C20 UNL     1       6.800  10.653  -1.529  1.00  0.00     0.067 C
HETATM    9  C24 UNL     1       6.330  10.018  -2.799  1.00  0.00     0.046 C
BRANCH   5  10
HETATM   10  C4  UNL     1       3.892  10.452  -2.703  1.00  0.00     0.236 C
HETATM   11  N1  UNL     1       3.496   9.097  -2.653  1.00  0.00    -0.356 N
ATOM     12  H1  UNL     1       4.106   8.376  -3.038  1.00  0.00     0.162 HD
HETATM   13  O1  UNL     1       3.167  11.341  -2.241  1.00  0.00    -0.272 OA
BRANCH  11  14
HETATM   14  C2  UNL     1       2.233   8.727  -2.059  1.00  0.00     0.076 C
HETATM   15  C1  UNL     1       1.693   7.474  -2.759  1.00  0.00     0.032 C
HETATM   16  C3  UNL     1       2.512   8.414  -0.592  1.00  0.00     0.032 C
ENDBRANCH  11  14
ENDBRANCH   5  10
BRANCH   8  17
HETATM   17  C21 UNL     1       8.268  10.685  -1.511  1.00  0.00    -0.099 C
HETATM   18  C22 UNL     1       9.476  10.690  -1.495  1.00  0.00    -0.075 C
BRANCH  18  19
HETATM   19  C23 UNL     1      10.947  10.670  -1.474  1.00  0.00     0.315 C
HETATM   20  F1  UNL     1      11.378   9.924  -2.549  1.00  0.00    -0.242 F
ENDBRANCH  18  19
ENDBRANCH   8  17
ENDBRANCH   1   5
BRANCH   3  21
HETATM   21  C7  UNL     1       5.860   9.962  -6.993  1.00  0.00     0.092 C
HETATM   22  C8  UNL     1       6.542   8.772  -7.622  1.00  0.00     0.010 C
HETATM   23  C9  UNL     1       8.012   8.960  -7.823  1.00  0.00     0.011 C
HETATM   24  C17 UNL     1       5.914   8.588  -8.990  1.00  0.00     0.025 C
HETATM   25  C10 UNL     1       8.259  10.144  -8.731  1.00  0.00    -0.013 C
HETATM   26  C11 UNL     1       7.700  11.358  -7.992  1.00  0.00     0.011 C
HETATM   27  C16 UNL     1       7.577  10.029 -10.054  1.00  0.00     0.023 C
HETATM   28  C12 UNL     1       6.232  11.197  -7.782  1.00  0.00     0.010 C
HETATM   29  C13 UNL     1       5.575  11.064  -9.140  1.00  0.00     0.025 C
HETATM   30  C14 UNL     1       6.096   9.811  -9.831  1.00  0.00     0.040 C
BRANCH  30  31
HETATM   31  C15 UNL     1       5.355   9.681 -11.096  1.00  0.00     0.239 C
HETATM   32  N3  UNL     1       5.896  10.200 -12.290  1.00  0.00    -0.061 NA
HETATM   33  O3  UNL     1       4.252   9.113 -11.107  1.00  0.00    -0.276 OA
ENDBRANCH  30  31
ENDBRANCH   3  21
TORSDOF 7
ENDMDL