MODEL 2
REMARK VINA RESULT: -6.509610699      0.339      1.129
REMARK  4 active torsions:
REMARK  status: ('A' for Active; 'I' for Inactive)
REMARK    1  A    between atoms: C2_2  and  N1_3
REMARK    2  A    between atoms: C2_2  and  C9_17
REMARK       I    between atoms: N1_3  and  C3_5
REMARK       I    between atoms: C3_5  and  N2_7
REMARK    3  A    between atoms: N2_7  and  N3_9
REMARK       I    between atoms: N3_9  and  C4_11
REMARK    4  A    between atoms: C4_11  and  C5_13
ROOT
HETATM    1  N1  UNL     1     -17.818   9.295  32.083  1.00  0.00    -0.329 N
ATOM      2  H1  UNL     1     -18.586   9.021  31.470  1.00  0.00     0.165 HD
HETATM    3  C3  UNL     1     -18.068  10.276  33.085  1.00  0.00     0.335 C
HETATM    4  O1  UNL     1     -17.231  10.724  33.903  1.00  0.00    -0.246 OA
HETATM    5  N2  UNL     1     -19.386  10.749  33.089  1.00  0.00    -0.249 N
ATOM      6  H2  UNL     1     -20.058  10.352  32.432  1.00  0.00     0.192 HD
ENDROOT
BRANCH   5   7
HETATM    7  N3  UNL     1     -19.802  11.735  33.955  1.00  0.00    -0.265 N
HETATM    8  C4  UNL     1     -20.873  11.549  34.844  1.00  0.00     0.243 C
HETATM    9  O2  UNL     1     -21.465  10.430  34.882  1.00  0.00    -0.271 OA
ATOM     10  H3  UNL     1     -19.315  12.631  33.952  1.00  0.00     0.190 HD
BRANCH   8  11
HETATM   11  C5  UNL     1     -21.295  12.674  35.713  1.00  0.00     0.032 C
HETATM   12  C6  UNL     1     -22.751  12.974  35.489  1.00  0.00     0.025 C
HETATM   13  C7  UNL     1     -20.921  12.543  37.141  1.00  0.00     0.025 C
HETATM   14  C8  UNL     1     -20.501  13.872  35.127  1.00  0.00     0.025 C
ENDBRANCH   8  11
ENDBRANCH   5   7
BRANCH   1  15
HETATM   15  C2  UNL     1     -16.559   8.682  31.897  1.00  0.00     0.171 C
HETATM   16  C1  UNL     1     -16.570   7.231  31.632  1.00  0.00     0.042 C
BRANCH  15  17
HETATM   17  C9  UNL     1     -15.819   9.537  30.943  1.00  0.00     0.253 C
HETATM   18  N4  UNL     1     -14.953  10.611  31.369  1.00  0.00    -0.060 NA
HETATM   19  O3  UNL     1     -15.947   9.309  29.699  1.00  0.00    -0.275 OA
ENDBRANCH  15  17
ENDBRANCH   1  15
TORSDOF 4
ENDMDL