MODEL 3
REMARK VINA RESULT: -6.302444984      2.207      2.818
REMARK  3 active torsions:
REMARK  status: ('A' for Active; 'I' for Inactive)
REMARK       I    between atoms: C1_2  and  N2_4
REMARK    1  A    between atoms: N2_4  and  N3_6
REMARK       I    between atoms: N3_6  and  C2_8
REMARK    2  A    between atoms: C2_8  and  C3_10
REMARK       I    between atoms: C3_10  and  N4_12
REMARK    3  A    between atoms: N4_12  and  C4_14
ROOT
HETATM    1  C3  UNL     1     -15.585  11.779  31.717  1.00  0.00     0.311 C
HETATM    2  O3  UNL     1     -16.048  12.744  31.083  1.00  0.00    -0.262 OA
HETATM    3  N4  UNL     1     -15.059  11.982  33.003  1.00  0.00    -0.348 N
ATOM      4  H4  UNL     1     -14.683  11.174  33.501  1.00  0.00     0.163 HD
ENDROOT
BRANCH   1   5
HETATM    5  C2  UNL     1     -15.581  10.442  31.139  1.00  0.00     0.327 C
HETATM    6  N3  UNL     1     -16.734   9.627  31.138  1.00  0.00    -0.258 N
ATOM      7  H3  UNL     1     -17.603   9.969  31.548  1.00  0.00     0.190 HD
HETATM    8  O2  UNL     1     -14.514   9.981  30.616  1.00  0.00    -0.261 OA
BRANCH   6   9
HETATM    9  N2  UNL     1     -16.682   8.357  30.575  1.00  0.00    -0.251 N
HETATM   10  C1  UNL     1     -16.744   7.176  31.360  1.00  0.00     0.347 C
HETATM   11  N1  UNL     1     -16.684   5.921  30.694  1.00  0.00    -0.038 NA
HETATM   12  O1  UNL     1     -16.850   7.226  32.601  1.00  0.00    -0.249 OA
ATOM     13  H2  UNL     1     -16.596   8.271  29.562  1.00  0.00     0.191 HD
ENDBRANCH   6   9
ENDBRANCH   1   5
BRANCH   3  14
HETATM   14  C4  UNL     1     -15.018  13.271  33.668  1.00  0.00     0.084 C
HETATM   15  C5  UNL     1     -16.101  13.314  34.679  1.00  0.00     0.025 C
HETATM   16  C6  UNL     1     -15.583  13.402  36.089  1.00  0.00     0.002 C
HETATM   17  C7  UNL     1     -14.755  14.669  36.163  1.00  0.00     0.000 C
HETATM   18  C8  UNL     1     -13.584  14.640  35.227  1.00  0.00     0.002 C
HETATM   19  C9  UNL     1     -13.648  13.572  34.187  1.00  0.00     0.025 C
ENDBRANCH   3  14
TORSDOF 3
ENDMDL