MODEL 4
REMARK VINA RESULT: -5.299080834      2.362      3.029
REMARK  4 active torsions:
REMARK  status: ('A' for Active; 'I' for Inactive)
REMARK    1  A    between atoms: N1_2  and  C2_4
REMARK    2  A    between atoms: C2_4  and  N2_6
REMARK    3  A    between atoms: C5_9  and  N3_10
REMARK    4  A    between atoms: C5_9  and  N4_14
REMARK       I    between atoms: N4_14  and  C6_16
ROOT
HETATM    1  N2  UNL     1     -18.577  12.829  34.366  1.00  0.00    -0.358 N
HETATM    2  C3  UNL     1     -18.032  13.362  33.165  1.00  0.00     0.129 C
HETATM    3  C4  UNL     1     -17.915  12.299  32.091  1.00  0.00     0.081 C
HETATM    4  C5  UNL     1     -17.547  10.972  32.684  1.00  0.00     0.201 C
HETATM    5  C7  UNL     1     -16.990  11.053  34.062  1.00  0.00     0.081 C
HETATM    6  C8  UNL     1     -17.650  11.908  35.056  1.00  0.00     0.129 C
ENDROOT
BRANCH   4   7
HETATM    7  N3  UNL     1     -18.801  10.207  32.808  1.00  0.00    -0.052 N
ATOM      8  H33 UNL     1     -18.826   9.602  33.629  1.00  0.00     0.277 HD
ATOM      9  H32 UNL     1     -19.605  10.786  33.052  1.00  0.00     0.277 HD
ATOM     10  H31 UNL     1     -18.920   9.700  31.930  1.00  0.00     0.277 HD
ENDBRANCH   4   7
BRANCH   4  11
HETATM   11  N4  UNL     1     -16.679  10.218  31.837  1.00  0.00    -0.312 N
HETATM   12  C6  UNL     1     -15.509  10.803  31.311  1.00  0.00     0.330 C
HETATM   13  N5  UNL     1     -14.664  10.003  30.457  1.00  0.00    -0.040 NA
HETATM   14  O1  UNL     1     -15.112  11.978  31.511  1.00  0.00    -0.251 OA
ATOM     15  H4  UNL     1     -16.907   9.250  31.612  1.00  0.00     0.166 HD
ENDBRANCH   4  11
BRANCH   1  16
HETATM   16  C2  UNL     1     -19.848  13.056  34.908  1.00  0.00     0.169 C
HETATM   17  S1  UNL     1     -20.273  14.696  35.018  1.00  0.00    -0.041 SA
BRANCH  16  18
HETATM   18  N1  UNL     1     -20.834  12.201  35.371  1.00  0.00    -0.371 N
HETATM   19  C1  UNL     1     -21.734  11.447  34.576  1.00  0.00     0.148 C
ATOM     20  H1  UNL     1     -20.921  12.105  36.383  1.00  0.00     0.161 HD
ENDBRANCH  16  18
ENDBRANCH   1  16
TORSDOF 4
ENDMDL