MODEL 3
REMARK VINA RESULT: -6.208632973      3.080      4.634
REMARK  4 active torsions:
REMARK  status: ('A' for Active; 'I' for Inactive)
REMARK       I    between atoms: C3_3  and  N1_5
REMARK    1  A    between atoms: N1_5  and  N2_7
REMARK    2  A    between atoms: N2_7  and  C4_9
REMARK    3  A    between atoms: C4_9  and  N3_11
REMARK    4  A    between atoms: N3_11  and  C5_13
ROOT
HETATM    1  C1  UNL     1     -16.726   6.281  31.383  1.00  0.00     0.023 C
HETATM    2  C2  UNL     1     -16.820   7.446  31.555  1.00  0.00    -0.015 C
HETATM    3  C3  UNL     1     -16.907   8.924  31.767  1.00  0.00     0.314 C
HETATM    4  O1  UNL     1     -15.992   9.638  31.486  1.00  0.00    -0.256 OA
HETATM    5  N1  UNL     1     -18.167   9.301  32.320  1.00  0.00    -0.257 N
ATOM      6  H1  UNL     1     -18.885   8.605  32.524  1.00  0.00     0.191 HD
ENDROOT
BRANCH   5   7
HETATM    7  N2  UNL     1     -18.384  10.664  32.575  1.00  0.00    -0.273 N
ATOM      8  H2  UNL     1     -18.763  11.280  31.857  1.00  0.00     0.189 HD
BRANCH   7   9
HETATM    9  C4  UNL     1     -18.058  11.155  33.862  1.00  0.00     0.186 C
HETATM   10  S1  UNL     1     -16.833  12.229  33.952  1.00  0.00    -0.040 SA
BRANCH   9  11
HETATM   11  N3  UNL     1     -18.772  10.756  35.015  1.00  0.00    -0.361 N
ATOM     12  H3  UNL     1     -18.217  10.472  35.823  1.00  0.00     0.162 HD
BRANCH  11  13
HETATM   13  C5  UNL     1     -20.185  10.710  35.162  1.00  0.00     0.088 C
HETATM   14  C6  UNL     1     -20.659  10.246  36.531  1.00  0.00     0.051 C
HETATM   15  C7  UNL     1     -22.083  10.768  36.784  1.00  0.00     0.169 C
HETATM   16  O2  UNL     1     -22.769  10.725  35.598  1.00  0.00    -0.391 OA
HETATM   17  C8  UNL     1     -22.375  11.628  34.639  1.00  0.00     0.169 C
HETATM   18  C9  UNL     1     -20.899  12.016  34.808  1.00  0.00     0.051 C
ENDBRANCH  11  13
ENDBRANCH   9  11
ENDBRANCH   7   9
ENDBRANCH   5   7
TORSDOF 4
ENDMDL