MODEL 1
REMARK VINA RESULT: -6.288276604      0.000      0.000
REMARK  3 active torsions:
REMARK  status: ('A' for Active; 'I' for Inactive)
REMARK    1  A    between atoms: C1_2  and  C2_4
REMARK       I    between atoms: C2_4  and  N2_6
REMARK    2  A    between atoms: N2_6  and  N3_8
REMARK       I    between atoms: N3_8  and  C3_10
REMARK       I    between atoms: C3_10  and  N4_12
REMARK    3  A    between atoms: N4_12  and  C4_14
ROOT
HETATM    1  N3  UNL     1     -18.050  11.946  32.265  1.00  0.00    -0.249 N
ATOM      2  H3  UNL     1     -18.288  12.609  31.527  1.00  0.00     0.192 HD
HETATM    3  C3  UNL     1     -18.526  12.148  33.577  1.00  0.00     0.335 C
HETATM    4  O3  UNL     1     -18.232  11.333  34.475  1.00  0.00    -0.246 OA
HETATM    5  N4  UNL     1     -19.329  13.265  33.871  1.00  0.00    -0.337 N
ATOM      6  H4  UNL     1     -19.558  13.918  33.121  1.00  0.00     0.164 HD
ENDROOT
BRANCH   1   7
HETATM    7  N2  UNL     1     -17.253  10.836  31.976  1.00  0.00    -0.258 N
HETATM    8  C2  UNL     1     -16.126  11.006  31.149  1.00  0.00     0.325 C
HETATM    9  O2  UNL     1     -15.855  12.150  30.681  1.00  0.00    -0.261 OA
ATOM     10  H2  UNL     1     -17.483   9.918  32.356  1.00  0.00     0.190 HD
BRANCH   8  11
HETATM   11  C1  UNL     1     -15.295   9.847  30.848  1.00  0.00     0.324 C
HETATM   12  N1  UNL     1     -15.709   8.519  31.161  1.00  0.00    -0.053 NA
HETATM   13  O1  UNL     1     -14.185  10.025  30.298  1.00  0.00    -0.266 OA
ENDBRANCH   8  11
ENDBRANCH   1   7
BRANCH   5  14
HETATM   14  C4  UNL     1     -19.853  13.527  35.221  1.00  0.00     0.086 C
HETATM   15  C5  UNL     1     -19.890  14.989  35.406  1.00  0.00     0.025 C
HETATM   16  C6  UNL     1     -21.204  15.652  35.068  1.00  0.00     0.002 C
HETATM   17  C7  UNL     1     -22.221  14.963  35.979  1.00  0.00     0.000 C
HETATM   18  C8  UNL     1     -22.366  13.569  35.449  1.00  0.00     0.002 C
HETATM   19  C9  UNL     1     -21.117  12.783  35.390  1.00  0.00     0.025 C
ENDBRANCH   5  14
TORSDOF 3
ENDMDL