MODEL 1
REMARK VINA RESULT: -5.570579313      0.000      0.000
REMARK  5 active torsions:
REMARK  status: ('A' for Active; 'I' for Inactive)
REMARK    1  A    between atoms: C1_2  and  N2_4
REMARK    2  A    between atoms: N2_4  and  N3_6
REMARK    3  A    between atoms: N3_6  and  C2_8
REMARK    4  A    between atoms: C2_8  and  N4_10
REMARK    5  A    between atoms: N4_10  and  C3_12
ROOT
HETATM    1  C2  UNL     1     -18.702  10.958  32.914  1.00  0.00     0.186 C
HETATM    2  S2  UNL     1     -19.713  11.101  34.200  1.00  0.00    -0.040 SA
ENDROOT
BRANCH   1   3
HETATM    3  N3  UNL     1     -18.339   9.636  32.538  1.00  0.00    -0.274 N
ATOM      4  H3  UNL     1     -19.035   9.048  32.080  1.00  0.00     0.189 HD
BRANCH   3   5
HETATM    5  N2  UNL     1     -17.073   9.116  32.771  1.00  0.00    -0.276 N
ATOM      6  H2  UNL     1     -16.680   9.162  33.711  1.00  0.00     0.189 HD
BRANCH   5   7
HETATM    7  C1  UNL     1     -16.314   8.524  31.734  1.00  0.00     0.199 C
HETATM    8  N1  UNL     1     -15.310   9.258  31.052  1.00  0.00    -0.068 NA
HETATM    9  S1  UNL     1     -16.594   6.959  31.304  1.00  0.00    -0.043 SA
ENDBRANCH   5   7
ENDBRANCH   3   5
ENDBRANCH   1   3
BRANCH   1  10
HETATM   10  N4  UNL     1     -18.231  12.091  32.227  1.00  0.00    -0.359 N
ATOM     11  H4  UNL     1     -18.593  12.233  31.284  1.00  0.00     0.162 HD
BRANCH  10  12
HETATM   12  C3  UNL     1     -17.309  13.056  32.701  1.00  0.00     0.107 C
HETATM   13  C4  UNL     1     -17.749  13.908  33.843  1.00  0.00     0.029 C
HETATM   14  C5  UNL     1     -16.656  14.973  34.027  1.00  0.00     0.028 C
HETATM   15  C6  UNL     1     -15.403  14.227  34.423  1.00  0.00     0.167 C
HETATM   16  O1  UNL     1     -15.042  13.417  33.345  1.00  0.00    -0.389 OA
HETATM   17  C7  UNL     1     -15.968  12.438  33.089  1.00  0.00     0.192 C
ENDBRANCH  10  12
ENDBRANCH   1  10
TORSDOF 5
ENDMDL