MODEL 2
REMARK VINA RESULT: -6.495266287      5.308      5.983
REMARK  4 active torsions:
REMARK  status: ('A' for Active; 'I' for Inactive)
REMARK    1  A    between atoms: C2_2  and  N1_5
REMARK       I    between atoms: N1_5  and  C5_7
REMARK       I    between atoms: C5_7  and  N2_9
REMARK    2  A    between atoms: N2_9  and  N3_11
REMARK       I    between atoms: N3_11  and  C6_13
REMARK    3  A    between atoms: C6_13  and  C7_15
REMARK       I    between atoms: C7_15  and  N4_17
REMARK    4  A    between atoms: N4_17  and  C8_19
ROOT
HETATM    1  N3  UNL     1     -16.271  11.977  33.020  1.00  0.00    -0.258 N
ATOM      2  H3  UNL     1     -16.287  11.270  33.756  1.00  0.00     0.190 HD
HETATM    3  C6  UNL     1     -15.954  11.622  31.687  1.00  0.00     0.327 C
HETATM    4  O2  UNL     1     -15.946  12.518  30.811  1.00  0.00    -0.261 OA
ENDROOT
BRANCH   1   5
HETATM    5  N2  UNL     1     -16.562  13.305  33.307  1.00  0.00    -0.249 N
HETATM    6  C5  UNL     1     -15.646  14.139  33.981  1.00  0.00     0.335 C
HETATM    7  N1  UNL     1     -15.996  15.485  34.248  1.00  0.00    -0.334 N
HETATM    8  O1  UNL     1     -14.540  13.648  34.323  1.00  0.00    -0.246 OA
ATOM      9  H1  UNL     1     -16.903  15.845  33.953  1.00  0.00     0.165 HD
ATOM     10  H2  UNL     1     -17.464  13.688  33.022  1.00  0.00     0.192 HD
BRANCH   7  11
HETATM   11  C2  UNL     1     -15.059  16.352  34.942  1.00  0.00     0.023 C
HETATM   12  C1  UNL     1     -15.402  17.792  34.619  1.00  0.00     0.037 C
HETATM   13  C3  UNL     1     -13.641  16.099  34.557  1.00  0.00     0.037 C
HETATM   14  C4  UNL     1     -15.207  16.122  36.431  1.00  0.00     0.037 C
ENDBRANCH   7  11
ENDBRANCH   1   5
BRANCH   3  15
HETATM   15  C7  UNL     1     -15.645  10.254  31.326  1.00  0.00     0.311 C
HETATM   16  O3  UNL     1     -14.744  10.027  30.494  1.00  0.00    -0.262 OA
HETATM   17  N4  UNL     1     -16.358   9.195  31.910  1.00  0.00    -0.348 N
ATOM     18  H4  UNL     1     -17.096   9.374  32.591  1.00  0.00     0.163 HD
BRANCH  17  19
HETATM   19  C8  UNL     1     -16.016   7.832  31.520  1.00  0.00     0.085 A
HETATM   20  C9  UNL     1     -17.010   6.767  32.045  1.00  0.00     0.027 A
HETATM   21  C10 UNL     1     -16.875   7.101  30.553  1.00  0.00     0.027 A
ENDBRANCH  17  19
ENDBRANCH   3  15
TORSDOF 4
ENDMDL