MODEL 5
REMARK VINA RESULT: -6.117847658      4.508      6.414
REMARK  4 active torsions:
REMARK  status: ('A' for Active; 'I' for Inactive)
REMARK    1  A    between atoms: C2_2  and  C4_4
REMARK       I    between atoms: C4_4  and  N1_6
REMARK    2  A    between atoms: N1_6  and  N2_8
REMARK    3  A    between atoms: N2_8  and  C5_10
REMARK    4  A    between atoms: C5_10  and  N3_12
REMARK       I    between atoms: N3_12  and  C6_14
REMARK       I    between atoms: C6_14  and  N5_18
ROOT
HETATM    1  N3  UNL     1     -16.001  10.752  37.631  1.00  0.00    -0.164 N
ATOM      2  H3  UNL     1     -16.802  10.889  38.247  1.00  0.00     0.186 HD
HETATM    3  C6  UNL     1     -14.995   9.876  38.085  1.00  0.00     0.689 C
HETATM    4  N4  UNL     1     -14.190  10.282  39.002  1.00  0.00    -0.230 N
ATOM      5  H4  UNL     1     -13.459   9.654  39.336  1.00  0.00     0.177 HD
HETATM    6  C7  UNL     1     -14.293  11.590  39.565  1.00  0.00     0.165 C
HETATM    7  N5  UNL     1     -14.821   8.554  37.604  1.00  0.00    -0.126 N
ATOM      8  H5  UNL     1     -15.410   8.201  36.850  1.00  0.00     0.197 HD
HETATM    9  C8  UNL     1     -13.822   7.723  38.178  1.00  0.00     0.196 C
HETATM   10  N6  UNL     1     -13.003   7.049  38.670  1.00  0.00    -0.171 NA
ENDROOT
BRANCH   1  11
HETATM   11  C5  UNL     1     -16.013  11.449  36.424  1.00  0.00     0.205 C
HETATM   12  S1  UNL     1     -15.112  12.877  36.311  1.00  0.00    -0.039 SA
BRANCH  11  13
HETATM   13  N2  UNL     1     -16.681  11.135  35.242  1.00  0.00    -0.273 N
ATOM     14  H2  UNL     1     -17.591  11.566  35.081  1.00  0.00     0.189 HD
BRANCH  13  15
HETATM   15  N1  UNL     1     -16.194  10.282  34.276  1.00  0.00    -0.264 N
HETATM   16  C4  UNL     1     -16.930  10.003  33.074  1.00  0.00     0.265 C
HETATM   17  O1  UNL     1     -18.051  10.558  32.903  1.00  0.00    -0.266 OA
ATOM     18  H1  UNL     1     -15.286   9.837  34.418  1.00  0.00     0.190 HD
BRANCH  16  19
HETATM   19  C2  UNL     1     -16.402   9.110  32.082  1.00  0.00    -0.002 C
HETATM   20  C1  UNL     1     -16.788   7.863  31.924  1.00  0.00     0.024 C
HETATM   21  C3  UNL     1     -15.336   9.626  31.157  1.00  0.00     0.053 C
ENDBRANCH  16  19
ENDBRANCH  13  15
ENDBRANCH  11  13
ENDBRANCH   1  11
TORSDOF 4
ENDMDL