MODEL 1
REMARK VINA RESULT: -6.882686914      0.000      0.000
REMARK  3 active torsions:
REMARK  status: ('A' for Active; 'I' for Inactive)
REMARK    1  A    between atoms: C4_5  and  C5_6
REMARK    2  A    between atoms: C11_12  and  C12_13
REMARK    3  A    between atoms: C12_13  and  N1_14
ROOT
HETATM    1  C5  UNL     1      -2.992  41.600  67.837  1.00  0.00    -0.006 C
HETATM    2  C6  UNL     1      -3.550  41.311  66.488  1.00  0.00     0.018 C
HETATM    3  C7  UNL     1      -2.230  40.546  66.326  1.00  0.00    -0.008 C
HETATM    4  C8  UNL     1      -1.272  41.722  66.320  1.00  0.00     0.010 C
HETATM    5  C9  UNL     1      -1.714  42.391  67.597  1.00  0.00    -0.002 C
HETATM    6  C10 UNL     1      -0.910  41.871  68.753  1.00  0.00     0.012 C
HETATM    7  C11 UNL     1      -0.972  40.388  68.437  1.00  0.00     0.007 C
HETATM    8  C13 UNL     1      -2.355  40.247  67.809  1.00  0.00     0.006 C
ENDROOT
BRANCH   1   9
HETATM    9  C4  UNL     1      -3.816  42.103  68.918  1.00  0.00     0.134 C
HETATM   10  C3  UNL     1      -4.128  41.215  70.067  1.00  0.00     0.038 C
HETATM   11  C2  UNL     1      -5.336  41.979  70.640  1.00  0.00     0.068 C
HETATM   12  C1  UNL     1      -6.009  42.383  69.350  1.00  0.00     0.307 C
HETATM   13  F1  UNL     1      -6.878  41.362  69.011  1.00  0.00    -0.220 F
HETATM   14  O1  UNL     1      -5.053  42.439  68.356  1.00  0.00    -0.351 OA
ENDBRANCH   1   9
BRANCH   7  15
HETATM   15  C12 UNL     1      -0.847  39.495  69.679  1.00  0.00     0.134 C
BRANCH  15  16
HETATM   16  N1  UNL     1      -0.399  40.284  70.819  1.00  0.00    -0.143 NA
HETATM   17 CL1  UNL     1      -1.415  40.185  72.205  1.00  0.00    -0.004 Cl
ENDBRANCH  15  16
ENDBRANCH   7  15
TORSDOF 3
ENDMDL