MODEL 2
REMARK VINA RESULT: -6.940134278      1.893      5.581
REMARK  4 active torsions:
REMARK  status: ('A' for Active; 'I' for Inactive)
REMARK    1  A    between atoms: O1_1  and  C1_3
REMARK    2  A    between atoms: C1_3  and  C2_4
REMARK    3  A    between atoms: C1_3  and  C11_15
REMARK    4  A    between atoms: C2_4  and  C3_5
ROOT
HETATM    1  C3  UNL     1      -4.255  41.173  69.271  1.00  0.00     0.065 C
HETATM    2  C4  UNL     1      -5.334  41.863  70.131  1.00  0.00    -0.004 C
HETATM    3  C5  UNL     1      -4.765  42.748  71.182  1.00  0.00     0.005 C
HETATM    4  C6  UNL     1      -4.725  41.952  72.468  1.00  0.00     0.005 C
HETATM    5  C7  UNL     1      -4.919  40.535  71.972  1.00  0.00    -0.009 C
HETATM    6  C8  UNL     1      -5.982  40.738  70.908  1.00  0.00     0.010 C
HETATM    7  C9  UNL     1      -3.632  40.043  71.437  1.00  0.00     0.084 C
HETATM    8  C10 UNL     1      -3.205  40.563  70.095  1.00  0.00     0.248 C
HETATM    9  F1  UNL     1      -2.599  39.490  69.433  1.00  0.00    -0.206 F
HETATM   10  F2  UNL     1      -2.208  41.487  70.335  1.00  0.00    -0.206 F
ENDROOT
BRANCH   1  11
HETATM   11  C2  UNL     1      -3.851  42.103  68.176  1.00  0.00     0.045 C
BRANCH  11  12
HETATM   12  C1  UNL     1      -3.546  41.545  66.851  1.00  0.00     0.147 C
BRANCH  12  13
HETATM   13  O1  UNL     1      -3.923  40.279  66.541  1.00  0.00    -0.393 OA
ATOM     14  H1  UNL     1      -4.496  39.795  67.124  1.00  0.00     0.210 HD
ENDBRANCH  12  13
BRANCH  12  15
HETATM   15  C11 UNL     1      -2.071  41.675  66.484  1.00  0.00     0.150 C
HETATM   16  C12 UNL     1      -1.402  40.319  66.491  1.00  0.00     0.036 C
HETATM   17  C13 UNL     1       0.013  40.752  66.903  1.00  0.00     0.029 C
HETATM   18  C14 UNL     1      -0.343  41.809  67.926  1.00  0.00     0.168 C
HETATM   19  O2  UNL     1      -1.396  42.474  67.364  1.00  0.00    -0.383 OA
ENDBRANCH  12  15
ENDBRANCH  11  12
ENDBRANCH   1  11
TORSDOF 4
ENDMDL