MODEL 4
REMARK VINA RESULT: -7.293940377      2.280      2.939
REMARK  3 active torsions:
REMARK  status: ('A' for Active; 'I' for Inactive)
REMARK    1  A    between atoms: C3_3  and  C4_4
REMARK       I    between atoms: C4_4  and  N1_6
REMARK    2  A    between atoms: N1_6  and  C5_8
REMARK    3  A    between atoms: C5_8  and  C6_9
ROOT
HETATM    1  C6  UNL     1      -2.380  40.339  70.367  1.00  0.00     0.139 C
HETATM    2  C7  UNL     1      -3.101  41.599  69.879  1.00  0.00     0.034 C
HETATM    3  C8  UNL     1      -4.581  41.426  69.880  1.00  0.00     0.003 C
HETATM    4  C9  UNL     1      -5.332  42.316  70.794  1.00  0.00     0.006 C
HETATM    5  C10 UNL     1      -4.768  42.452  72.168  1.00  0.00     0.079 C
HETATM    6  C11 UNL     1      -4.795  41.199  72.981  1.00  0.00     0.245 C
HETATM    7  F1  UNL     1      -5.322  41.427  74.261  1.00  0.00    -0.206 F
HETATM    8  F2  UNL     1      -5.575  40.201  72.432  1.00  0.00    -0.206 F
HETATM    9  C12 UNL     1      -3.362  40.755  73.196  1.00  0.00     0.105 C
HETATM   10  C13 UNL     1      -3.037  39.499  72.423  1.00  0.00     0.174 C
HETATM   11  O2  UNL     1      -3.334  39.593  71.088  1.00  0.00    -0.384 OA
ENDROOT
BRANCH   1  12
HETATM   12  C5  UNL     1      -1.941  39.491  69.216  1.00  0.00     0.154 C
BRANCH  12  13
HETATM   13  N1  UNL     1      -2.617  39.753  67.994  1.00  0.00    -0.355 N
HETATM   14  C4  UNL     1      -1.932  40.314  66.893  1.00  0.00     0.240 C
HETATM   15  O1  UNL     1      -0.709  40.585  66.999  1.00  0.00    -0.269 OA
ATOM     16  H1  UNL     1      -3.609  39.533  67.910  1.00  0.00     0.162 HD
BRANCH  14  17
HETATM   17  C3  UNL     1      -2.611  40.587  65.635  1.00  0.00     0.070 C
HETATM   18  C2  UNL     1      -3.858  40.974  65.610  1.00  0.00    -0.026 C
HETATM   19  C1  UNL     1      -4.607  41.269  64.362  1.00  0.00     0.036 C
ENDBRANCH  14  17
ENDBRANCH  12  13
ENDBRANCH   1  12
TORSDOF 3
ENDMDL