MODEL 1
REMARK VINA RESULT: -6.842687978      0.000      0.000
REMARK  3 active torsions:
REMARK  status: ('A' for Active; 'I' for Inactive)
REMARK    1  A    between atoms: C4_6  and  C5_7
REMARK    2  A    between atoms: C5_7  and  C6_8
REMARK    3  A    between atoms: C5_7  and  N2_14
ROOT
HETATM    1  C5  UNL     1      -2.484  40.775  70.368  1.00  0.00     0.294 C
ENDROOT
BRANCH   1   2
HETATM    2  C4  UNL     1      -2.018  40.797  68.941  1.00  0.00     0.115 A
HETATM    3  N1  UNL     1      -2.331  39.947  67.941  1.00  0.00    -0.352 N
HETATM    4  C3  UNL     1      -1.719  40.292  66.803  1.00  0.00     0.114 A
ATOM      5  H1  UNL     1      -2.953  39.144  68.040  1.00  0.00     0.166 HD
HETATM    6  C2  UNL     1      -0.976  41.417  67.083  1.00  0.00     0.022 A
HETATM    7  C1  UNL     1      -0.104  42.213  66.187  1.00  0.00     0.069 C
HETATM    8  N3  UNL     1      -1.172  41.699  68.367  1.00  0.00    -0.347 N
ATOM      9  H3  UNL     1      -0.747  42.486  68.859  1.00  0.00     0.167 HD
ENDBRANCH   1   2
BRANCH   1  10
HETATM   10  C6  UNL     1      -1.643  39.762  71.010  1.00  0.00     0.038 C
HETATM   11  C7  UNL     1      -0.291  39.422  70.633  1.00  0.00     0.086 C
HETATM   12  C8  UNL     1       0.268  39.847  71.966  1.00  0.00     0.244 C
HETATM   13  F1  UNL     1       1.057  40.974  71.945  1.00  0.00    -0.206 F
HETATM   14  F2  UNL     1       0.928  38.867  72.685  1.00  0.00    -0.206 F
HETATM   15  C9  UNL     1      -1.146  40.055  72.404  1.00  0.00     0.086 C
ENDBRANCH   1  10
BRANCH   1  16
HETATM   16  N2  UNL     1      -3.855  40.765  70.332  1.00  0.00     0.100 N
HETATM   17  C10 UNL     1      -4.311  42.132  70.031  1.00  0.00     0.273 C
HETATM   18  C11 UNL     1      -5.119  42.614  71.188  1.00  0.00     0.032 C
HETATM   19  C12 UNL     1      -4.727  41.622  72.288  1.00  0.00     0.032 C
HETATM   20  C13 UNL     1      -4.684  40.389  71.371  1.00  0.00     0.273 C
ENDBRANCH   1  16
TORSDOF 3
ENDMDL