MODEL 5
REMARK VINA RESULT: -6.926846626      4.096      5.339
REMARK  3 active torsions:
REMARK  status: ('A' for Active; 'I' for Inactive)
REMARK    1  A    between atoms: C2_5  and  N3_6
REMARK    2  A    between atoms: N3_6  and  C3_8
REMARK    3  A    between atoms: C3_8  and  C4_9
ROOT
HETATM    1  N1  UNL     1       4.053  47.370  64.986  1.00  0.00    -0.172 NA
HETATM    2  C1  UNL     1       3.335  46.696  65.636  1.00  0.00     0.182 C
HETATM    3  N2  UNL     1       2.472  45.921  66.393  1.00  0.00    -0.290 N
ATOM      4  H2  UNL     1       1.589  46.330  66.699  1.00  0.00     0.178 HD
HETATM    5  C2  UNL     1       2.737  44.698  66.730  1.00  0.00     0.186 C
ENDROOT
BRANCH   5   6
HETATM    6  N3  UNL     1       1.777  44.004  67.506  1.00  0.00    -0.385 N
ATOM      7  H3  UNL     1       2.072  43.370  68.248  1.00  0.00     0.160 HD
BRANCH   6   8
HETATM    8  C3  UNL     1       0.386  44.207  67.229  1.00  0.00     0.130 C
BRANCH   8   9
HETATM    9  C4  UNL     1      -0.435  42.957  67.537  1.00  0.00    -0.018 C
HETATM   10  C5  UNL     1      -0.655  42.263  66.213  1.00  0.00     0.016 C
HETATM   11  C6  UNL     1      -1.472  41.009  66.413  1.00  0.00    -0.008 C
HETATM   12  C7  UNL     1      -0.764  40.164  67.435  1.00  0.00     0.048 C
HETATM   13  C11 UNL     1      -2.845  41.442  66.921  1.00  0.00     0.048 C
HETATM   14  C8  UNL     1      -0.709  40.874  68.747  1.00  0.00     0.107 C
HETATM   15  F1  UNL     1      -0.158  40.072  69.730  1.00  0.00    -0.243 F
HETATM   16  C9  UNL     1      -2.087  41.265  69.221  1.00  0.00     0.086 C
HETATM   17  C13 UNL     1       0.191  42.092  68.575  1.00  0.00     0.055 C
HETATM   18  C10 UNL     1      -2.706  42.225  68.195  1.00  0.00     0.107 C
HETATM   19  F2  UNL     1      -3.948  42.636  68.591  1.00  0.00    -0.243 F
HETATM   20  C12 UNL     1      -1.794  43.399  68.101  1.00  0.00     0.055 C
ENDBRANCH   8   9
ENDBRANCH   6   8
ENDBRANCH   5   6
TORSDOF 3
ENDMDL