MODEL 1
REMARK VINA RESULT: -7.117444128      0.000      0.000
REMARK  4 active torsions:
REMARK  status: ('A' for Active; 'I' for Inactive)
REMARK    1  A    between atoms: C2_2  and  C3_5
REMARK    2  A    between atoms: C3_5  and  N1_6
REMARK    3  A    between atoms: N1_6  and  C4_8
REMARK    4  A    between atoms: C7_11  and  N2_12
ROOT
HETATM    1  C4  UNL     1      -0.540  42.697  68.286  1.00  0.00     0.077 C
HETATM    2  C5  UNL     1      -1.895  43.368  68.146  1.00  0.00     0.027 C
HETATM    3  C6  UNL     1      -2.945  42.510  67.508  1.00  0.00     0.038 C
HETATM    4  C7  UNL     1      -3.074  41.133  68.063  1.00  0.00     0.223 C
HETATM    5  C13 UNL     1      -1.779  40.553  68.513  1.00  0.00     0.038 C
HETATM    6  C14 UNL     1      -0.537  41.233  67.932  1.00  0.00     0.027 C
ENDROOT
BRANCH   1   7
HETATM    7  N1  UNL     1       0.487  43.400  67.602  1.00  0.00    -0.411 N
ATOM      8  H1  UNL     1       1.357  42.941  67.332  1.00  0.00     0.153 HD
BRANCH   7   9
HETATM    9  C3  UNL     1       0.250  44.788  67.307  1.00  0.00     0.192 C
BRANCH   9  10
HETATM   10  C2  UNL     1       0.761  45.086  65.900  1.00  0.00     0.255 C
HETATM   11  C1  UNL     1       0.387  46.499  65.465  1.00  0.00     0.091 C
HETATM   12  F1  UNL     1       0.287  44.133  65.042  1.00  0.00    -0.205 F
HETATM   13  F2  UNL     1       2.158  44.955  65.872  1.00  0.00    -0.205 F
ENDBRANCH   9  10
ENDBRANCH   7   9
ENDBRANCH   1   7
BRANCH   4  14
HETATM   14  N2  UNL     1      -4.023  40.993  69.140  1.00  0.00     0.093 N
HETATM   15  C8  UNL     1      -5.132  41.822  68.857  1.00  0.00     0.273 C
HETATM   16  C9  UNL     1      -5.881  42.407  69.986  1.00  0.00     0.030 C
HETATM   17  C10 UNL     1      -5.094  42.623  71.244  1.00  0.00     0.003 C
HETATM   18  C11 UNL     1      -4.421  41.283  71.542  1.00  0.00     0.030 C
HETATM   19  C12 UNL     1      -3.447  41.047  70.419  1.00  0.00     0.273 C
ENDBRANCH   4  14
TORSDOF 4
ENDMDL