MODEL 5
REMARK VINA RESULT: -7.004298325      1.915      2.959
REMARK  3 active torsions:
REMARK  status: ('A' for Active; 'I' for Inactive)
REMARK    1  A    between atoms: O1_2  and  C2_3
REMARK    2  A    between atoms: C2_3  and  C3_4
REMARK    3  A    between atoms: C3_4  and  C4_5
ROOT
HETATM    1  C4  UNL     1       0.180  40.084  68.986  1.00  0.00     0.071 A
HETATM    2  C5  UNL     1      -0.102  40.239  67.715  1.00  0.00     0.121 A
HETATM    3  N1  UNL     1      -1.383  40.682  67.315  1.00  0.00    -0.361 N
ATOM      4  H1  UNL     1      -1.587  40.797  66.322  1.00  0.00     0.165 HD
HETATM    5  C6  UNL     1      -2.383  40.967  68.262  1.00  0.00     0.078 A
HETATM    6  C7  UNL     1      -3.627  41.397  67.880  1.00  0.00     0.007 A
HETATM    7  C8  UNL     1      -3.954  41.574  66.472  1.00  0.00     0.054 C
HETATM    8  C9  UNL     1      -4.554  41.656  68.856  1.00  0.00     0.133 A
HETATM    9  F1  UNL     1      -5.780  42.080  68.474  1.00  0.00    -0.205 F
HETATM   10  C10 UNL     1      -4.250  41.491  70.197  1.00  0.00     0.019 A
HETATM   11  C11 UNL     1      -5.262  41.776  71.235  1.00  0.00     0.055 C
HETATM   12  C12 UNL     1      -3.002  41.061  70.561  1.00  0.00     0.161 A
HETATM   13  F2  UNL     1      -2.656  40.884  71.859  1.00  0.00    -0.202 F
HETATM   14  C13 UNL     1      -2.060  40.795  69.607  1.00  0.00     0.142 A
HETATM   15  O2  UNL     1      -0.788  40.359  69.943  1.00  0.00    -0.308 OA
ENDROOT
BRANCH   1  16
HETATM   16  C3  UNL     1       1.523  39.618  69.460  1.00  0.00     0.092 C
BRANCH  16  17
HETATM   17  C2  UNL     1       1.625  39.783  70.939  1.00  0.00     0.173 C
BRANCH  17  18
HETATM   18  O1  UNL     1       2.555  39.002  71.576  1.00  0.00    -0.396 OA
HETATM   19  C1  UNL     1       3.111  38.068  70.746  1.00  0.00     0.201 C
ENDBRANCH  17  18
ENDBRANCH  16  17
ENDBRANCH   1  16
TORSDOF 3
ENDMDL