MODEL 2
REMARK VINA RESULT: -6.632757386      2.845      4.713
REMARK  3 active torsions:
REMARK  status: ('A' for Active; 'I' for Inactive)
REMARK    1  A    between atoms: N3_14  and  C11_15
REMARK    2  A    between atoms: C11_15  and  C12_16
REMARK    3  A    between atoms: C12_16  and  C13_17
ROOT
HETATM    1  C1  UNL     1      -4.975  39.844  66.104  1.00  0.00     0.037 C
HETATM    2  C2  UNL     1      -3.972  40.995  65.985  1.00  0.00     0.021 C
HETATM    3  C3  UNL     1      -4.321  41.708  64.668  1.00  0.00     0.037 C
HETATM    4  C4  UNL     1      -2.627  40.424  65.963  1.00  0.00     0.055 C
HETATM    5  C5  UNL     1      -1.637  40.849  66.992  1.00  0.00     0.086 C
HETATM    6  C6  UNL     1      -1.295  42.323  66.891  1.00  0.00     0.027 C
HETATM    7  C7  UNL     1      -2.185  42.951  67.957  1.00  0.00     0.030 C
HETATM    8  C8  UNL     1      -2.739  41.801  68.785  1.00  0.00     0.120 C
HETATM    9  C9  UNL     1      -4.175  41.460  68.357  1.00  0.00     0.208 C
HETATM   10  C10 UNL     1      -5.153  42.061  69.237  1.00  0.00     0.086 C
HETATM   11  N1  UNL     1      -5.926  42.528  69.932  1.00  0.00    -0.195 NA
HETATM   12  N2  UNL     1      -4.301  41.939  67.006  1.00  0.00    -0.396 N
ATOM     13  H2  UNL     1      -4.605  42.889  66.792  1.00  0.00     0.155 HD
HETATM   14  N3  UNL     1      -1.949  40.713  68.339  1.00  0.00    -0.381 N
ENDROOT
BRANCH  14  15
HETATM   15  C11 UNL     1      -2.015  39.491  68.990  1.00  0.00     0.064 C
BRANCH  15  16
HETATM   16  C12 UNL     1      -1.563  39.635  70.436  1.00  0.00     0.115 C
BRANCH  16  17
HETATM   17  C13 UNL     1      -0.047  39.658  70.420  1.00  0.00     0.357 C
HETATM   18  F1  UNL     1       0.375  39.079  69.238  1.00  0.00    -0.214 F
HETATM   19  F2  UNL     1       0.333  41.000  70.402  1.00  0.00    -0.214 F
ENDBRANCH  16  17
ENDBRANCH  15  16
ENDBRANCH  14  15
TORSDOF 3
ENDMDL