MODEL 1
REMARK VINA RESULT: -7.168483839      0.000      0.000
REMARK  4 active torsions:
REMARK  status: ('A' for Active; 'I' for Inactive)
REMARK    1  A    between atoms: C4_5  and  C5_6
REMARK    2  A    between atoms: C5_6  and  C6_7
REMARK    3  A    between atoms: C12_13  and  O1_14
REMARK    4  A    between atoms: C12_13  and  C13_16
ROOT
HETATM    1  C1  UNL     1       2.533  38.758  70.890  1.00  0.00     0.310 C
HETATM    2  N1  UNL     1       1.499  39.615  71.354  1.00  0.00     0.087 N
HETATM    3  C2  UNL     1       0.333  38.937  71.859  1.00  0.00     0.272 C
HETATM    4  C3  UNL     1      -0.935  39.777  71.614  1.00  0.00     0.038 C
HETATM    5  C4  UNL     1      -1.101  39.808  70.102  1.00  0.00     0.029 C
HETATM    6  C12 UNL     1       0.110  40.321  69.437  1.00  0.00     0.146 C
HETATM    7  C14 UNL     1       1.170  40.704  70.477  1.00  0.00     0.315 C
ENDROOT
BRANCH   5   8
HETATM    8  C5  UNL     1      -2.427  40.240  69.646  1.00  0.00     0.012 C
BRANCH   8   9
HETATM    9  C6  UNL     1      -3.140  41.348  70.286  1.00  0.00    -0.014 C
HETATM   10  C7  UNL     1      -4.420  41.025  71.002  1.00  0.00     0.005 C
HETATM   11  C8  UNL     1      -5.358  42.240  70.873  1.00  0.00     0.000 C
HETATM   12  C9  UNL     1      -5.977  42.205  69.508  1.00  0.00     0.000 C
HETATM   13  C10 UNL     1      -4.853  41.930  68.524  1.00  0.00     0.000 C
HETATM   14  C11 UNL     1      -3.532  42.307  69.144  1.00  0.00     0.005 C
ENDBRANCH   8   9
ENDBRANCH   5   8
BRANCH   6  15
HETATM   15  O1  UNL     1       0.750  39.300  68.665  1.00  0.00    -0.382 OA
ATOM     16  H1  UNL     1       1.612  39.097  69.010  1.00  0.00     0.210 HD
ENDBRANCH   6  15
BRANCH   6  17
HETATM   17  C13 UNL     1       0.014  41.488  68.529  1.00  0.00     0.389 C
HETATM   18  F1  UNL     1      -0.439  41.245  67.269  1.00  0.00    -0.211 F
HETATM   19  F2  UNL     1       1.346  41.921  68.350  1.00  0.00    -0.211 F
ENDBRANCH   6  17
TORSDOF 4
ENDMDL