MODEL 1
REMARK VINA RESULT: -7.300367111      0.000      0.000
REMARK  3 active torsions:
REMARK  status: ('A' for Active; 'I' for Inactive)
REMARK       I    between atoms: C2_2  and  N1_4
REMARK    1  A    between atoms: N1_4  and  C3_6
REMARK    2  A    between atoms: C3_6  and  C4_7
REMARK    3  A    between atoms: C4_7  and  C7_10
ROOT
HETATM    1  C7  UNL     1      -2.882  41.276  68.634  1.00  0.00     0.058 C
HETATM    2  C8  UNL     1      -2.671  40.111  69.525  1.00  0.00     0.070 C
HETATM    3  N2  UNL     1      -2.496  39.191  70.207  1.00  0.00    -0.196 NA
HETATM    4  C9  UNL     1      -4.162  41.039  67.883  1.00  0.00     0.031 C
HETATM    5  C10 UNL     1      -5.311  41.861  68.372  1.00  0.00     0.081 C
HETATM    6  C11 UNL     1      -5.426  41.994  69.838  1.00  0.00     0.243 C
HETATM    7  F1  UNL     1      -6.160  40.949  70.389  1.00  0.00    -0.206 F
HETATM    8  F2  UNL     1      -6.179  43.148  70.102  1.00  0.00    -0.206 F
HETATM    9  C12 UNL     1      -4.113  42.112  70.562  1.00  0.00     0.081 C
HETATM   10  C13 UNL     1      -3.062  42.469  69.515  1.00  0.00     0.031 C
ENDROOT
BRANCH   1  11
HETATM   11  C4  UNL     1      -1.692  41.454  67.719  1.00  0.00    -0.011 C
HETATM   12  C5  UNL     1      -2.236  41.363  66.291  1.00  0.00     0.018 C
HETATM   13  C6  UNL     1      -0.732  40.328  67.904  1.00  0.00     0.018 C
BRANCH  11  14
HETATM   14  C3  UNL     1      -1.063  42.811  67.865  1.00  0.00     0.133 C
BRANCH  14  15
HETATM   15  N1  UNL     1       0.379  42.770  67.850  1.00  0.00    -0.361 N
HETATM   16  C2  UNL     1       1.047  43.251  66.698  1.00  0.00     0.213 C
HETATM   17  C1  UNL     1       2.544  43.227  66.638  1.00  0.00     0.117 C
HETATM   18  O1  UNL     1       0.398  43.699  65.720  1.00  0.00    -0.274 OA
ATOM     19  H1  UNL     1       0.901  42.405  68.645  1.00  0.00     0.162 HD
ENDBRANCH  14  15
ENDBRANCH  11  14
ENDBRANCH   1  11
TORSDOF 3
ENDMDL