MODEL 1
REMARK VINA RESULT: -9.728788959      0.000      0.000
REMARK  6 active torsions:
REMARK  status: ('A' for Active; 'I' for Inactive)
REMARK    1  A    between atoms: O1_1  and  C1_3
REMARK    2  A    between atoms: C1_3  and  C2_4
REMARK    3  A    between atoms: C1_3  and  C13_17
REMARK    4  A    between atoms: C2_4  and  N1_5
REMARK    5  A    between atoms: N1_5  and  C3_7
REMARK    6  A    between atoms: C13_17  and  N2_18
ROOT
HETATM    1  C1  UNL     1       2.023 -12.780  -8.248  1.00  0.00     0.086 C
ENDROOT
BRANCH   1   2
HETATM    2  O1  UNL     1       2.298 -14.086  -8.013  1.00  0.00    -0.362 OA
ATOM      3  H1  UNL     1       2.699 -14.271  -7.172  1.00  0.00     0.217 HD
ENDBRANCH   1   2
BRANCH   1   4
HETATM    4  C2  UNL     1       1.617 -11.980  -7.035  1.00  0.00     0.117 C
BRANCH   4   5
HETATM    5  N1  UNL     1       1.891 -12.504  -5.768  1.00  0.00    -0.391 N
ATOM      6  H1  UNL     1       1.240 -13.164  -5.342  1.00  0.00     0.159 HD
BRANCH   5   7
HETATM    7  C3  UNL     1       3.056 -12.130  -5.076  1.00  0.00     0.089 C
HETATM    8  C4  UNL     1       3.069 -12.344  -3.597  1.00  0.00     0.009 C
HETATM    9  C5  UNL     1       2.278 -11.369  -2.794  1.00  0.00     0.011 C
HETATM   10  C9  UNL     1       4.535 -12.216  -3.151  1.00  0.00     0.011 C
HETATM   11  C6  UNL     1       2.778  -9.942  -3.060  1.00  0.00    -0.013 C
HETATM   12  C7  UNL     1       4.227  -9.812  -2.728  1.00  0.00     0.009 C
HETATM   13  C12 UNL     1       2.549  -9.713  -4.535  1.00  0.00     0.011 C
HETATM   14  C8  UNL     1       5.032 -10.833  -3.490  1.00  0.00    -0.013 C
HETATM   15  C10 UNL     1       4.887 -10.544  -4.964  1.00  0.00     0.011 C
HETATM   16  C11 UNL     1       3.419 -10.658  -5.302  1.00  0.00     0.009 C
ENDBRANCH   5   7
ENDBRANCH   4   5
ENDBRANCH   1   4
BRANCH   1  17
HETATM   17  C13 UNL     1       1.321 -12.433  -9.516  1.00  0.00     0.338 C
BRANCH  17  18
HETATM   18  N2  UNL     1       2.297 -12.045 -10.536  1.00  0.00     0.098 N
HETATM   19  C14 UNL     1       3.040 -10.858 -10.070  1.00  0.00     0.276 C
HETATM   20  C15 UNL     1       4.282 -10.651 -10.907  1.00  0.00     0.072 C
HETATM   21  C16 UNL     1       4.742 -11.909 -11.618  1.00  0.00     0.205 C
HETATM   22  F1  UNL     1       6.039 -11.691 -12.040  1.00  0.00    -0.244 F
HETATM   23  C17 UNL     1       3.924 -12.142 -12.853  1.00  0.00    -0.017 A
HETATM   24  C18 UNL     1       4.627 -12.518 -13.955  1.00  0.00     0.011 A
HETATM   25  C22 UNL     1       2.540 -11.982 -12.873  1.00  0.00    -0.021 A
HETATM   26  C19 UNL     1       3.936 -12.749 -15.135  1.00  0.00     0.001 A
HETATM   27  C20 UNL     1       2.569 -12.605 -15.209  1.00  0.00     0.001 A
HETATM   28  C21 UNL     1       1.892 -12.221 -14.064  1.00  0.00     0.009 A
HETATM   29  C23 UNL     1       1.626 -11.584 -11.758  1.00  0.00     0.312 C
ENDBRANCH  17  18
ENDBRANCH   1  17
TORSDOF 6
ENDMDL