MODEL 4
REMARK VINA RESULT: -6.492648996      2.029      6.540
REMARK  6 active torsions:
REMARK  status: ('A' for Active; 'I' for Inactive)
REMARK    1  A    between atoms: N2_5  and  C3_6
REMARK    2  A    between atoms: C3_6  and  C4_7
REMARK    3  A    between atoms: C3_6  and  C9_15
REMARK       I    between atoms: C4_7  and  N3_9
REMARK    4  A    between atoms: N3_9  and  C5_11
REMARK    5  A    between atoms: C5_11  and  C6_12
REMARK    6  A    between atoms: N4_23  and  C17_25
ROOT
HETATM    1  C3  UNL     1       3.432 -10.603  -3.029  1.00  0.00     0.205 C
ENDROOT
BRANCH   1   2
HETATM    2  N2  UNL     1       2.999 -11.049  -4.335  1.00  0.00    -0.262 N
HETATM    3  N1  UNL     1       3.059 -10.295  -5.415  1.00  0.00    -0.300 N
HETATM    4  C2  UNL     1       2.584 -10.989  -6.464  1.00  0.00     0.032 A
ATOM      5  H1  UNL     1       3.410  -9.337  -5.449  1.00  0.00     0.187 HD
HETATM    6  C1  UNL     1       2.466 -10.526  -7.882  1.00  0.00     0.070 C
HETATM    7  C20 UNL     1       2.202 -12.250  -6.029  1.00  0.00     0.007 A
HETATM    8  C16 UNL     1       2.474 -12.267  -4.681  1.00  0.00     0.127 A
HETATM    9  C21 UNL     1       1.630 -13.310  -6.890  1.00  0.00     0.054 C
HETATM   10  N4  UNL     1       2.306 -13.182  -3.835  1.00  0.00    -0.371 N
ATOM     11  H4  UNL     1       2.595 -12.931  -2.890  1.00  0.00     0.161 HD
BRANCH  10  12
HETATM   12  C17 UNL     1       1.794 -14.492  -3.946  1.00  0.00     0.075 C
HETATM   13  C18 UNL     1       2.675 -15.520  -3.205  1.00  0.00     0.031 C
HETATM   14  C19 UNL     1       0.472 -14.533  -3.159  1.00  0.00     0.031 C
ENDBRANCH  10  12
ENDBRANCH   1   2
BRANCH   1  15
HETATM   15  C4  UNL     1       2.763  -9.376  -2.561  1.00  0.00     0.242 C
HETATM   16  O1  UNL     1       3.051  -8.259  -3.052  1.00  0.00    -0.271 OA
HETATM   17  N3  UNL     1       1.776  -9.432  -1.542  1.00  0.00    -0.359 N
ATOM     18  H3  UNL     1       1.546 -10.345  -1.151  1.00  0.00     0.162 HD
BRANCH  17  19
HETATM   19  C5  UNL     1       1.084  -8.288  -1.029  1.00  0.00     0.126 C
BRANCH  19  20
HETATM   20  C6  UNL     1      -0.213  -8.597  -0.335  1.00  0.00    -0.005 C
HETATM   21  C7  UNL     1      -1.352  -8.194  -1.256  1.00  0.00     0.011 C
HETATM   22  C8  UNL     1      -0.324 -10.078  -0.098  1.00  0.00     0.011 C
ENDBRANCH  19  20
ENDBRANCH  17  19
ENDBRANCH   1  15
BRANCH   1  23
HETATM   23  C9  UNL     1       4.941 -10.496  -2.958  1.00  0.00     0.020 C
HETATM   24  C10 UNL     1       5.406 -10.077  -1.582  1.00  0.00     0.007 C
HETATM   25  C11 UNL     1       6.834 -10.622  -1.435  1.00  0.00     0.005 C
HETATM   26  C12 UNL     1       7.540 -10.502  -2.768  1.00  0.00    -0.019 C
HETATM   27  C13 UNL     1       9.017 -10.749  -2.603  1.00  0.00     0.010 C
HETATM   28  C14 UNL     1       7.002 -11.475  -3.792  1.00  0.00     0.005 C
HETATM   29  C15 UNL     1       5.579 -11.803  -3.376  1.00  0.00     0.007 C
ENDBRANCH   1  23
TORSDOF 6
ENDMDL