MODEL 3
REMARK VINA RESULT: -7.767450476      1.953      2.786
REMARK  5 active torsions:
REMARK  status: ('A' for Active; 'I' for Inactive)
REMARK    1  A    between atoms: C2_2  and  C3_3
REMARK    2  A    between atoms: C3_3  and  N1_4
REMARK    3  A    between atoms: C3_3  and  C11_21
REMARK       I    between atoms: C4_6  and  N3_8
REMARK    4  A    between atoms: N3_8  and  N4_10
REMARK    5  A    between atoms: C5_12  and  C6_13
ROOT
HETATM    1  N1  UNL     1       1.923 -11.769  -6.724  1.00  0.00    -0.358 N
ATOM      2  H1  UNL     1       1.055 -12.287  -6.588  1.00  0.00     0.162 HD
HETATM    3  C4  UNL     1       2.270 -11.436  -7.902  1.00  0.00     0.203 C
HETATM    4  N2  UNL     1       3.450 -10.715  -8.234  1.00  0.00    -0.062 NA
HETATM    5  N3  UNL     1       1.416 -11.810  -8.974  1.00  0.00    -0.274 N
ATOM      6  H3  UNL     1       0.410 -11.804  -8.809  1.00  0.00     0.189 HD
ENDROOT
BRANCH   1   7
HETATM    7  C3  UNL     1       2.752 -11.422  -5.543  1.00  0.00     0.087 C
BRANCH   7   8
HETATM    8  C2  UNL     1       2.681  -9.969  -5.354  1.00  0.00     0.021 C
HETATM    9  C1  UNL     1       2.374  -9.408  -4.029  1.00  0.00     0.007 C
ENDBRANCH   7   8
BRANCH   7  10
HETATM   10  C11 UNL     1       2.305 -12.340  -4.478  1.00  0.00     0.008 C
HETATM   11  C12 UNL     1       1.772 -13.597  -5.236  1.00  0.00     0.007 C
HETATM   12  C13 UNL     1       1.137 -14.514  -4.238  1.00  0.00     0.000 C
HETATM   13  C14 UNL     1       1.209 -13.995  -2.833  1.00  0.00     0.000 C
HETATM   14  C15 UNL     1       2.554 -13.561  -2.385  1.00  0.00     0.000 C
HETATM   15  C16 UNL     1       3.316 -12.889  -3.542  1.00  0.00     0.007 C
ENDBRANCH   7  10
ENDBRANCH   1   7
BRANCH   5  16
HETATM   16  N4  UNL     1       1.870 -12.185 -10.239  1.00  0.00    -0.309 N
HETATM   17  C5  UNL     1       1.946 -11.362 -11.229  1.00  0.00     0.120 C
ATOM     18  H4  UNL     1       2.154 -13.153 -10.387  1.00  0.00     0.186 HD
BRANCH  17  19
HETATM   19  C6  UNL     1       2.433 -11.844 -12.516  1.00  0.00    -0.003 A
HETATM   20  C7  UNL     1       1.554 -12.168 -13.526  1.00  0.00     0.100 A
HETATM   21  N5  UNL     1       2.015 -12.620 -14.729  1.00  0.00    -0.373 N
HETATM   22  C8  UNL     1       3.336 -12.757 -14.954  1.00  0.00     0.106 A
ATOM     23  H5  UNL     1       1.351 -12.855 -15.466  1.00  0.00     0.164 HD
HETATM   24  C9  UNL     1       4.262 -12.447 -13.981  1.00  0.00     0.027 A
HETATM   25 BR1  UNL     1       6.098 -12.664 -14.364  1.00  0.00    -0.050 Br
HETATM   26  C10 UNL     1       3.775 -11.994 -12.771  1.00  0.00     0.034 A
ENDBRANCH  17  19
ENDBRANCH   5  16
TORSDOF 5
ENDMDL