MODEL 5
REMARK VINA RESULT: -10.344642864      1.944      3.024
REMARK  6 active torsions:
REMARK  status: ('A' for Active; 'I' for Inactive)
REMARK    1  A    between atoms: N1_1  and  C1_5
REMARK    2  A    between atoms: C5_9  and  C6_10
REMARK    3  A    between atoms: C6_10  and  C7_11
REMARK       I    between atoms: C7_11  and  N2_13
REMARK    4  A    between atoms: C8_15  and  C9_16
REMARK    5  A    between atoms: C9_16  and  C10_17
REMARK    6  A    between atoms: C13_22  and  C14_23
ROOT
HETATM    1  C1  UNL     1       0.978 -10.520  -7.901  1.00  0.00     0.126 C
HETATM    2  C2  UNL     1       0.431 -11.828  -7.494  1.00  0.00     0.043 C
HETATM    3  C3  UNL     1       1.615 -12.768  -7.264  1.00  0.00    -0.010 C
HETATM    4  C4  UNL     1       2.555 -12.165  -6.253  1.00  0.00     0.014 C
HETATM    5  C5  UNL     1       3.182 -10.918  -6.854  1.00  0.00    -0.029 C
HETATM    6  C11 UNL     1       1.942  -9.954  -6.928  1.00  0.00     0.048 C
HETATM    7  C12 UNL     1       3.801 -11.084  -8.168  1.00  0.00     0.024 C
HETATM    8  C13 UNL     1       2.799 -11.676  -9.137  1.00  0.00    -0.010 C
HETATM    9  C20 UNL     1       2.325 -12.989  -8.551  1.00  0.00     0.019 C
HETATM   10  C21 UNL     1       1.660 -10.635  -9.238  1.00  0.00     0.053 C
ENDROOT
BRANCH   5  11
HETATM   11  C6  UNL     1       4.005 -10.214  -5.823  1.00  0.00     0.112 C
BRANCH  11  12
HETATM   12  C7  UNL     1       4.054 -10.874  -4.475  1.00  0.00     0.222 C
HETATM   13  O1  UNL     1       4.926 -11.770  -4.325  1.00  0.00    -0.273 OA
HETATM   14  N2  UNL     1       3.137 -10.418  -3.570  1.00  0.00    -0.340 N
HETATM   15  C8  UNL     1       2.333 -10.551  -2.701  1.00  0.00     0.074 C
ATOM     16  H2  UNL     1       3.145  -9.410  -3.722  1.00  0.00     0.167 HD
BRANCH  15  17
HETATM   17  C9  UNL     1       1.631  -9.316  -2.141  1.00  0.00     0.157 C
BRANCH  17  18
HETATM   18  C10 UNL     1       2.661  -8.315  -1.819  1.00  0.00     0.177 C
HETATM   19  O2  UNL     1       3.099  -7.533  -2.708  1.00  0.00    -0.648 OA
HETATM   20  O3  UNL     1       3.121  -8.276  -0.495  1.00  0.00    -0.648 OA
ENDBRANCH  17  18
ENDBRANCH  15  17
ENDBRANCH  11  12
ENDBRANCH   5  11
BRANCH   1  21
HETATM   21  N1  UNL     1      -0.134  -9.572  -8.061  1.00  0.00    -0.070 N
ATOM     22  H13 UNL     1      -0.604  -9.370  -7.179  1.00  0.00     0.275 HD
ATOM     23  H12 UNL     1       0.187  -8.626  -8.270  1.00  0.00     0.275 HD
ATOM     24  H11 UNL     1      -0.773  -9.932  -8.770  1.00  0.00     0.275 HD
ENDBRANCH   1  21
BRANCH   8  25
HETATM   25  C14 UNL     1       3.252 -11.895 -10.524  1.00  0.00    -0.046 A
HETATM   26  C15 UNL     1       2.354 -11.993 -11.596  1.00  0.00     0.008 A
HETATM   27  C16 UNL     1       2.778 -12.076 -12.910  1.00  0.00     0.004 A
HETATM   28  C17 UNL     1       4.112 -12.061 -13.221  1.00  0.00     0.042 A
HETATM   29  C18 UNL     1       5.030 -11.962 -12.202  1.00  0.00     0.117 A
HETATM   30  F1  UNL     1       6.342 -11.927 -12.516  1.00  0.00    -0.206 F
HETATM   31  C19 UNL     1       4.585 -11.885 -10.878  1.00  0.00     0.050 A
ENDBRANCH   8  25
TORSDOF 6
ENDMDL