MODEL 3
REMARK VINA RESULT: -5.436796431      3.865      6.372
REMARK  6 active torsions:
REMARK  status: ('A' for Active; 'I' for Inactive)
REMARK    1  A    between atoms: C4_4  and  O1_5
REMARK    2  A    between atoms: C4_4  and  C5_7
REMARK    3  A    between atoms: C5_7  and  C6_8
REMARK    4  A    between atoms: C6_8  and  C7_9
REMARK    5  A    between atoms: C7_9  and  C8_10
REMARK    6  A    between atoms: C13_17  and  O3_19
ROOT
HETATM    1  C1  UNL     1       3.740  -8.492  -9.882  1.00  0.00     0.010 C
HETATM    2  C2  UNL     1       3.126  -9.895  -9.609  1.00  0.00    -0.007 C
HETATM    3  C3  UNL     1       2.386 -10.246 -10.821  1.00  0.00     0.046 C
HETATM    4  C4  UNL     1       2.207 -11.684 -11.176  1.00  0.00     0.076 C
HETATM    5  C9  UNL     1       1.402 -12.506 -10.305  1.00  0.00     0.007 C
HETATM    6  C10 UNL     1       1.002 -12.537  -9.054  1.00  0.00    -0.015 C
HETATM    7  C11 UNL     1       1.143 -11.763  -7.849  1.00  0.00     0.089 C
HETATM    8  C12 UNL     1       2.393 -12.042  -7.067  1.00  0.00     0.169 C
HETATM    9  O2  UNL     1       2.656 -12.966  -6.318  1.00  0.00    -0.294 OA
HETATM   10  C13 UNL     1       3.363 -10.945  -7.347  1.00  0.00     0.119 C
HETATM   11  C14 UNL     1       3.904 -10.305  -6.107  1.00  0.00     0.055 C
HETATM   12  C15 UNL     1       2.612  -9.966  -8.266  1.00  0.00     0.040 C
HETATM   13  C16 UNL     1       1.203 -10.280  -7.953  1.00  0.00    -0.027 C
HETATM   14  C17 UNL     1       0.955  -9.795  -6.499  1.00  0.00     0.016 C
HETATM   15  C18 UNL     1       0.133  -9.639  -8.739  1.00  0.00     0.016 C
ENDROOT
BRANCH   4  16
HETATM   16  O1  UNL     1       1.520 -11.640 -12.429  1.00  0.00    -0.386 OA
ATOM     17  H1  UNL     1       0.934 -10.898 -12.338  1.00  0.00     0.211 HD
ENDBRANCH   4  16
BRANCH   4  18
HETATM   18  C5  UNL     1       3.540 -12.321 -11.564  1.00  0.00     0.042 C
BRANCH  18  19
HETATM   19  C6  UNL     1       3.827 -12.170 -13.011  1.00  0.00     0.004 C
BRANCH  19  20
HETATM   20  C7  UNL     1       5.323 -12.202 -13.211  1.00  0.00     0.011 C
BRANCH  20  21
HETATM   21  C8  UNL     1       5.674 -12.568 -14.653  1.00  0.00     0.085 C
HETATM   22 BR1  UNL     1       4.237 -12.055 -15.810  1.00  0.00    -0.097 Br
ENDBRANCH  20  21
ENDBRANCH  19  20
ENDBRANCH  18  19
ENDBRANCH   4  18
BRANCH  10  23
HETATM   23  O3  UNL     1       4.442 -11.554  -7.975  1.00  0.00    -0.382 OA
ATOM     24  H3  UNL     1       4.414 -12.464  -7.702  1.00  0.00     0.211 HD
ENDBRANCH  10  23
TORSDOF 6
ENDMDL