MODEL 1
REMARK VINA RESULT: -8.152656258      0.000      0.000
REMARK  7 active torsions:
REMARK  status: ('A' for Active; 'I' for Inactive)
REMARK    1  A    between atoms: C2_2  and  C3_3
REMARK    2  A    between atoms: C3_3  and  N1_4
REMARK    3  A    between atoms: C8_9  and  C9_10
REMARK    4  A    between atoms: C9_10  and  N2_11
REMARK    5  A    between atoms: N2_11  and  C10_13
REMARK    6  A    between atoms: C10_13  and  N3_15
REMARK    7  A    between atoms: N3_15  and  C11_17
ROOT
HETATM    1  N2  UNL     1       0.969 -11.023  -7.637  1.00  0.00    -0.365 N
ATOM      2  H2  UNL     1      -0.010 -10.880  -7.388  1.00  0.00     0.161 HD
ENDROOT
BRANCH   1   3
HETATM    3  C9  UNL     1       1.957 -10.459  -6.778  1.00  0.00     0.157 C
BRANCH   3   4
HETATM    4  C8  UNL     1       2.800 -11.360  -5.946  1.00  0.00     0.241 C
HETATM    5  N1  UNL     1       3.602 -10.473  -5.103  1.00  0.00     0.098 N
HETATM    6  C4  UNL     1       3.000 -10.192  -3.849  1.00  0.00     0.273 C
HETATM    7  C5  UNL     1       2.857 -11.484  -3.085  1.00  0.00     0.030 C
HETATM    8  C6  UNL     1       2.150 -12.560  -3.821  1.00  0.00     0.004 C
HETATM    9  C7  UNL     1       2.314 -12.556  -5.307  1.00  0.00     0.037 C
BRANCH   5  10
HETATM   10  C3  UNL     1       4.990 -10.775  -5.082  1.00  0.00     0.299 C
BRANCH  10  11
HETATM   11  C2  UNL     1       5.677  -9.947  -4.048  1.00  0.00    -0.007 C
HETATM   12  C1  UNL     1       6.779 -10.358  -3.456  1.00  0.00     0.008 C
ENDBRANCH  10  11
ENDBRANCH   5  10
ENDBRANCH   3   4
ENDBRANCH   1   3
BRANCH   1  13
HETATM   13  C10 UNL     1       1.241 -11.756  -8.794  1.00  0.00     0.173 C
HETATM   14  S1  UNL     1       1.079 -13.449  -8.554  1.00  0.00    -0.041 SA
BRANCH  13  15
HETATM   15  N3  UNL     1       1.496 -11.442 -10.105  1.00  0.00    -0.319 N
ATOM     16  H3  UNL     1       0.734 -10.920 -10.537  1.00  0.00     0.169 HD
BRANCH  15  17
HETATM   17  C11 UNL     1       2.569 -11.673 -10.998  1.00  0.00     0.107 A
HETATM   18  C12 UNL     1       3.883 -11.598 -10.653  1.00  0.00     0.049 A
HETATM   19  C13 UNL     1       4.871 -11.828 -11.632  1.00  0.00     0.007 A
HETATM   20  C14 UNL     1       4.461 -12.121 -12.900  1.00  0.00     0.037 A
HETATM   21  C15 UNL     1       3.123 -12.195 -13.236  1.00  0.00     0.081 A
HETATM   22 BR1  UNL     1       2.625 -12.615 -15.045  1.00  0.00    -0.031 Br
HETATM   23  N4  UNL     1       2.210 -11.974 -12.300  1.00  0.00    -0.337 N
ATOM     24  H4  UNL     1       1.221 -12.027 -12.545  1.00  0.00     0.168 HD
ENDBRANCH  15  17
ENDBRANCH  13  15
ENDBRANCH   1  13
TORSDOF 7
ENDMDL