MODEL 5
REMARK VINA RESULT: -7.819455140      1.862      2.812
REMARK  6 active torsions:
REMARK  status: ('A' for Active; 'I' for Inactive)
REMARK    1  A    between atoms: N1_2  and  C3_4
REMARK       I    between atoms: N2_7  and  C6_8
REMARK    2  A    between atoms: C6_8  and  C7_10
REMARK    3  A    between atoms: C12_15  and  C13_16
REMARK    4  A    between atoms: C13_16  and  O2_17
REMARK    5  A    between atoms: C13_16  and  N3_19
REMARK    6  A    between atoms: N3_19  and  C14_21
ROOT
HETATM    1  C7  UNL     1       2.369 -11.884  -7.349  1.00  0.00     0.042 A
HETATM    2  C8  UNL     1       2.485 -13.275  -7.175  1.00  0.00     0.018 A
HETATM    3  C9  UNL     1       1.757 -14.172  -7.904  1.00  0.00     0.001 A
HETATM    4  C10 UNL     1       0.876 -13.688  -8.846  1.00  0.00     0.001 A
HETATM    5  C11 UNL     1       0.745 -12.335  -9.035  1.00  0.00     0.012 A
HETATM    6  C12 UNL     1       1.486 -11.438  -8.292  1.00  0.00     0.005 A
ENDROOT
BRANCH   1   7
HETATM    7  C6  UNL     1       3.149 -10.968  -6.554  1.00  0.00     0.254 C
HETATM    8  N2  UNL     1       3.090 -11.042  -5.146  1.00  0.00    -0.348 N
HETATM    9  C5  UNL     1       2.273 -12.001  -4.433  1.00  0.00     0.128 C
HETATM   10  C20 UNL     1       3.880 -10.120  -4.316  1.00  0.00     0.128 C
HETATM   11  C4  UNL     1       2.919 -12.357  -3.114  1.00  0.00     0.055 C
HETATM   12  C3  UNL     1       2.993 -11.147  -2.216  1.00  0.00     0.225 C
HETATM   13  C21 UNL     1       3.148  -9.870  -3.017  1.00  0.00     0.055 C
HETATM   14  O1  UNL     1       3.879 -10.106  -7.068  1.00  0.00    -0.267 OA
BRANCH  12  15
HETATM   15  N1  UNL     1       1.791 -11.007  -1.418  1.00  0.00     0.084 N
HETATM   16  C1  UNL     1       1.347  -9.618  -1.538  1.00  0.00     0.309 C
HETATM   17  C2  UNL     1       2.045 -11.298  -0.016  1.00  0.00     0.309 C
ENDBRANCH  12  15
ENDBRANCH   1   7
BRANCH   6  18
HETATM   18  C13 UNL     1       1.307  -9.998  -8.555  1.00  0.00     0.249 C
BRANCH  18  19
HETATM   19  O2  UNL     1       0.012  -9.591  -8.765  1.00  0.00    -0.373 OA
ATOM     20  H2  UNL     1      -0.092  -8.834  -9.330  1.00  0.00     0.212 HD
ENDBRANCH  18  19
BRANCH  18  21
HETATM   21  N3  UNL     1       2.213  -9.585  -9.593  1.00  0.00    -0.389 N
ATOM     22  H3  UNL     1       2.459  -8.604  -9.725  1.00  0.00     0.156 HD
BRANCH  21  23
HETATM   23  C14 UNL     1       2.747 -10.600 -10.423  1.00  0.00     0.079 C
HETATM   24  C15 UNL     1       2.196 -10.670 -11.824  1.00  0.00     0.025 C
HETATM   25  C16 UNL     1       2.519 -12.105 -12.292  1.00  0.00     0.002 C
HETATM   26  C17 UNL     1       4.041 -12.103 -12.481  1.00  0.00     0.000 C
HETATM   27  C18 UNL     1       4.724 -11.884 -11.175  1.00  0.00     0.002 C
HETATM   28  C19 UNL     1       4.260 -10.669 -10.414  1.00  0.00     0.025 C
ENDBRANCH  21  23
ENDBRANCH  18  21
ENDBRANCH   6  18
TORSDOF 6
ENDMDL