MODEL 4
REMARK VINA RESULT: -7.454368854      3.516      8.137
REMARK  6 active torsions:
REMARK  status: ('A' for Active; 'I' for Inactive)
REMARK    1  A    between atoms: C2_2  and  N1_5
REMARK       I    between atoms: C5_7  and  N3_9
REMARK    2  A    between atoms: N3_9  and  C6_11
REMARK    3  A    between atoms: C6_11  and  C7_12
REMARK    4  A    between atoms: C7_12  and  C8_13
REMARK    5  A    between atoms: C8_13  and  N4_14
REMARK    6  A    between atoms: N5_17  and  C11_18
ROOT
HETATM    1  N4  UNL     1       2.691 -10.086  -4.749  1.00  0.00    -0.364 N
HETATM    2  C9  UNL     1       3.109 -11.420  -4.837  1.00  0.00     0.107 C
HETATM    3  C10 UNL     1       3.704 -11.975  -3.583  1.00  0.00     0.108 C
HETATM    4  N5  UNL     1       3.910 -11.015  -2.582  1.00  0.00    -0.354 N
HETATM    5  C19 UNL     1       2.780 -10.250  -2.301  1.00  0.00     0.108 C
HETATM    6  C20 UNL     1       2.236  -9.558  -3.524  1.00  0.00     0.107 C
ENDROOT
BRANCH   1   7
HETATM    7  C8  UNL     1       1.973  -9.594  -5.867  1.00  0.00     0.129 C
BRANCH   7   8
HETATM    8  C7  UNL     1       2.151 -10.388  -7.147  1.00  0.00     0.040 C
BRANCH   8   9
HETATM    9  C6  UNL     1       0.847 -10.360  -7.951  1.00  0.00     0.124 C
BRANCH   9  10
HETATM   10  N3  UNL     1       0.670 -11.558  -8.723  1.00  0.00    -0.365 N
HETATM   11  C5  UNL     1       1.790 -12.326  -9.165  1.00  0.00     0.184 C
HETATM   12  N1  UNL     1       2.584 -12.183 -10.065  1.00  0.00    -0.357 N
HETATM   13  N2  UNL     1       1.980 -13.525  -8.321  1.00  0.00    -0.064 NA
ATOM     14  H1  UNL     1       3.207 -12.987  -9.986  1.00  0.00     0.163 HD
ATOM     15  H3  UNL     1      -0.273 -11.865  -8.961  1.00  0.00     0.162 HD
BRANCH  12  16
HETATM   16  C2  UNL     1       3.065 -11.483 -11.135  1.00  0.00     0.021 C
HETATM   17  C1  UNL     1       4.571 -11.796 -11.366  1.00  0.00     0.037 C
HETATM   18  C3  UNL     1       2.416 -11.816 -12.479  1.00  0.00     0.037 C
HETATM   19  C4  UNL     1       3.058  -9.962 -10.946  1.00  0.00     0.037 C
ENDBRANCH  12  16
ENDBRANCH   9  10
ENDBRANCH   8   9
ENDBRANCH   7   8
ENDBRANCH   1   7
BRANCH   4  20
HETATM   20  C11 UNL     1       5.191 -10.560  -2.300  1.00  0.00     0.035 C
HETATM   21  C12 UNL     1       5.093  -9.368  -1.326  1.00  0.00     0.039 C
HETATM   22  C13 UNL     1       5.916  -9.967  -3.489  1.00  0.00     0.031 C
HETATM   23  C14 UNL     1       6.481 -10.978  -4.421  1.00  0.00     0.002 C
HETATM   24  C15 UNL     1       7.769 -11.573  -3.903  1.00  0.00     0.003 C
HETATM   25  C16 UNL     1       7.534 -12.848  -3.158  1.00  0.00     0.037 C
HETATM   26  C17 UNL     1       6.259 -12.871  -2.363  1.00  0.00     0.172 C
HETATM   27  F1  UNL     1       6.425 -13.925  -1.417  1.00  0.00    -0.249 F
HETATM   28  C18 UNL     1       6.075 -11.574  -1.647  1.00  0.00     0.068 C
ENDBRANCH   4  20
TORSDOF 6
ENDMDL