MODEL 4
REMARK VINA RESULT: -7.108387391      4.319      7.833
REMARK  8 active torsions:
REMARK  status: ('A' for Active; 'I' for Inactive)
REMARK    1  A    between atoms: C2_2  and  O1_3
REMARK    2  A    between atoms: O1_3  and  C3_4
REMARK    3  A    between atoms: C3_4  and  C4_6
REMARK    4  A    between atoms: C4_6  and  C5_7
REMARK    5  A    between atoms: C4_6  and  N1_9
REMARK    6  A    between atoms: N1_9  and  C7_11
REMARK    7  A    between atoms: C7_11  and  N2_13
REMARK    8  A    between atoms: N2_13  and  C8_15
ROOT
HETATM    1  N2  UNL     1       4.077 -10.359  -5.755  1.00  0.00    -0.358 N
ATOM      2  H2  UNL     1       4.998 -10.060  -6.076  1.00  0.00     0.162 HD
ENDROOT
BRANCH   1   3
HETATM    3  C7  UNL     1       3.851 -10.356  -4.358  1.00  0.00     0.169 C
HETATM    4  S1  UNL     1       4.490 -11.409  -3.301  1.00  0.00    -0.041 SA
BRANCH   3   5
HETATM    5  N1  UNL     1       3.022  -9.313  -3.745  1.00  0.00    -0.353 N
ATOM      6  H1  UNL     1       2.343  -8.806  -4.313  1.00  0.00     0.162 HD
BRANCH   5   7
HETATM    7  C4  UNL     1       3.158  -9.003  -2.362  1.00  0.00     0.183 C
BRANCH   7   8
HETATM    8  C3  UNL     1       1.843  -9.304  -1.655  1.00  0.00     0.281 C
HETATM    9  O2  UNL     1       1.499 -10.487  -1.378  1.00  0.00    -0.263 OA
BRANCH   8  10
HETATM   10  O1  UNL     1       1.010  -8.279  -1.304  1.00  0.00    -0.320 OA
BRANCH  10  11
HETATM   11  C2  UNL     1      -0.154  -8.267  -0.554  1.00  0.00     0.174 C
HETATM   12  C1  UNL     1      -1.453  -8.261  -1.341  1.00  0.00     0.034 C
ENDBRANCH  10  11
ENDBRANCH   8  10
ENDBRANCH   7   8
BRANCH   7  13
HETATM   13  C5  UNL     1       3.250  -7.447  -2.324  1.00  0.00     0.031 C
HETATM   14  C6  UNL     1       4.308  -7.108  -1.254  1.00  0.00     0.007 C
ENDBRANCH   7  13
ENDBRANCH   5   7
ENDBRANCH   3   5
ENDBRANCH   1   3
BRANCH   1  15
HETATM   15  C8  UNL     1       3.124 -10.746  -6.766  1.00  0.00     0.035 C
HETATM   16  C9  UNL     1       2.654 -12.157  -6.390  1.00  0.00     0.035 C
HETATM   17  C10 UNL     1       1.737 -12.758  -7.435  1.00  0.00    -0.010 C
HETATM   18  C11 UNL     1       2.536 -12.877  -8.720  1.00  0.00     0.014 C
HETATM   19  C16 UNL     1       0.553 -11.849  -7.611  1.00  0.00     0.030 C
HETATM   20  C12 UNL     1       3.018 -11.539  -9.124  1.00  0.00    -0.040 C
HETATM   21  C13 UNL     1       3.754 -11.652 -10.429  1.00  0.00     0.015 C
HETATM   22  C14 UNL     1       1.817 -10.632  -9.330  1.00  0.00     0.035 C
HETATM   23  C18 UNL     1       3.894 -10.912  -8.095  1.00  0.00     0.040 C
HETATM   24  C15 UNL     1       1.055 -10.493  -8.037  1.00  0.00     0.040 C
HETATM   25 CL1  UNL     1      -0.350  -9.451  -8.356  1.00  0.00    -0.119 Cl
HETATM   26  C17 UNL     1       1.915  -9.914  -6.920  1.00  0.00     0.056 C
ENDBRANCH   1  15
TORSDOF 8
ENDMDL