MODEL 5
REMARK VINA RESULT: -9.031110541      1.328      2.346
REMARK  5 active torsions:
REMARK  status: ('A' for Active; 'I' for Inactive)
REMARK    1  A    between atoms: C1_2  and  C2_3
REMARK    2  A    between atoms: C1_2  and  C14_16
REMARK    3  A    between atoms: C2_3  and  O2_4
REMARK    4  A    between atoms: O2_4  and  C3_5
REMARK    5  A    between atoms: C16_20  and  C17_21
ROOT
HETATM    1  C14 UNL     1       2.197 -11.159  -8.767  1.00  0.00     0.068 A
HETATM    2  C15 UNL     1       1.454 -12.267  -9.106  1.00  0.00     0.106 A
HETATM    3  N1  UNL     1       1.601 -12.510 -10.425  1.00  0.00    -0.365 N
ATOM      4  H1  UNL     1       1.156 -13.275 -10.931  1.00  0.00     0.165 HD
HETATM    5  C16 UNL     1       2.420 -11.595 -10.976  1.00  0.00     0.053 A
HETATM    6  C22 UNL     1       2.788 -10.757  -9.938  1.00  0.00     0.154 A
HETATM    7  F1  UNL     1       3.617  -9.700 -10.089  1.00  0.00    -0.203 F
ENDROOT
BRANCH   1   8
HETATM    8  C1  UNL     1       2.314 -10.550  -7.446  1.00  0.00     0.187 C
HETATM    9  O1  UNL     1       1.304  -9.925  -6.978  1.00  0.00    -0.290 OA
BRANCH   8  10
HETATM   10  C2  UNL     1       3.563 -10.638  -6.642  1.00  0.00     0.252 C
BRANCH  10  11
HETATM   11  O2  UNL     1       3.305 -11.325  -5.478  1.00  0.00    -0.372 OA
BRANCH  11  12
HETATM   12  C3  UNL     1       3.709 -10.722  -4.327  1.00  0.00     0.066 C
HETATM   13  C4  UNL     1       5.115 -10.204  -4.440  1.00  0.00     0.043 C
HETATM   14  C5  UNL     1       5.712  -9.818  -3.122  1.00  0.00    -0.011 C
HETATM   15  C6  UNL     1       6.319 -10.987  -2.418  1.00  0.00     0.005 C
HETATM   16  C12 UNL     1       4.739  -9.033  -2.286  1.00  0.00     0.009 C
HETATM   17  C7  UNL     1       5.913 -12.312  -2.959  1.00  0.00     0.001 C
HETATM   18  C8  UNL     1       4.492 -12.660  -2.909  1.00  0.00     0.007 C
HETATM   19  C9  UNL     1       3.473 -11.656  -3.184  1.00  0.00     0.021 C
HETATM   20  C10 UNL     1       3.153 -10.845  -1.965  1.00  0.00     0.012 C
HETATM   21  C11 UNL     1       3.318  -9.422  -2.441  1.00  0.00    -0.011 C
HETATM   22  C13 UNL     1       2.876  -9.525  -3.904  1.00  0.00     0.043 C
ENDBRANCH  11  12
ENDBRANCH  10  11
ENDBRANCH   8  10
ENDBRANCH   1   8
BRANCH   5  23
HETATM   23  C17 UNL     1       2.855 -11.484 -12.415  1.00  0.00     0.042 C
HETATM   24  C18 UNL     1       4.252 -11.963 -12.587  1.00  0.00     0.038 C
HETATM   25  C19 UNL     1       4.571 -12.535 -13.922  1.00  0.00     0.233 C
HETATM   26  N2  UNL     1       3.629 -12.055 -14.930  1.00  0.00    -0.075 N
HETATM   27  C20 UNL     1       2.358 -12.702 -14.575  1.00  0.00     0.233 C
ATOM     28  H22 UNL     1       3.576 -11.039 -15.002  1.00  0.00     0.277 HD
ATOM     29  H21 UNL     1       3.928 -12.219 -15.891  1.00  0.00     0.277 HD
HETATM   30  C21 UNL     1       1.839 -12.053 -13.342  1.00  0.00     0.038 C
ENDBRANCH   5  23
TORSDOF 5
ENDMDL