MODEL 2
REMARK VINA RESULT: -6.664125295      2.920      8.375
REMARK  9 active torsions:
REMARK  status: ('A' for Active; 'I' for Inactive)
REMARK    1  A    between atoms: C2_2  and  C3_3
REMARK    2  A    between atoms: C4_4  and  C5_5
REMARK    3  A    between atoms: C8_9  and  O1_10
REMARK    4  A    between atoms: C11_14  and  O2_15
REMARK    5  A    between atoms: C14_19  and  C15_20
REMARK    6  A    between atoms: C21_26  and  C22_27
REMARK    7  A    between atoms: C22_27  and  C23_28
REMARK    8  A    between atoms: C27_34  and  C28_35
REMARK    9  A    between atoms: C28_35  and  O4_36
ROOT
HETATM    1  C5  UNL     1      37.169  -8.242  38.281  1.00  0.00     0.051 C
HETATM    2  C6  UNL     1      37.474  -7.756  39.628  1.00  0.00    -0.016 A
HETATM    3  C7  UNL     1      37.018  -8.733  40.521  1.00  0.00     0.075 A
HETATM    4 CL1  UNL     1      36.234 -10.207  39.920  1.00  0.00    -0.081 Cl
HETATM    5  C8  UNL     1      37.154  -8.602  41.884  1.00  0.00     0.096 A
HETATM    6  C9  UNL     1      37.749  -7.494  42.433  1.00  0.00     0.007 A
HETATM    7  C10 UNL     1      37.919  -7.303  43.892  1.00  0.00     0.054 C
HETATM    8  C11 UNL     1      38.207  -6.512  41.561  1.00  0.00     0.081 A
HETATM    9  C12 UNL     1      38.070  -6.642  40.177  1.00  0.00    -0.012 A
HETATM   10  C13 UNL     1      38.609  -5.486  39.457  1.00  0.00     0.076 C
HETATM   11  C14 UNL     1      38.349  -5.362  38.031  1.00  0.00    -0.075 C
HETATM   12  C18 UNL     1      38.137  -6.290  37.113  1.00  0.00    -0.018 C
HETATM   13  C19 UNL     1      38.088  -7.764  37.209  1.00  0.00     0.016 C
HETATM   14  C20 UNL     1      39.447  -8.396  37.416  1.00  0.00     0.015 C
ENDROOT
BRANCH   1  15
HETATM   15  C4  UNL     1      35.774  -7.864  37.940  1.00  0.00    -0.016 C
HETATM   16  C3  UNL     1      35.136  -8.396  36.914  1.00  0.00     0.003 C
BRANCH  16  17
HETATM   17  C2  UNL     1      33.768  -8.052  36.546  1.00  0.00    -0.066 C
HETATM   18  C1  UNL     1      32.707  -8.890  37.129  1.00  0.00     0.048 C
HETATM   19  C21 UNL     1      33.538  -7.044  35.735  1.00  0.00    -0.018 C
BRANCH  19  20
HETATM   20  C22 UNL     1      32.234  -6.572  35.269  1.00  0.00     0.061 C
BRANCH  20  21
HETATM   21  C23 UNL     1      32.335  -5.053  35.061  1.00  0.00     0.144 C
HETATM   22  C24 UNL     1      32.709  -4.472  36.398  1.00  0.00     0.157 C
HETATM   23  N1  UNL     1      32.825  -3.027  36.211  1.00  0.00    -0.352 N
HETATM   24  C25 UNL     1      32.328  -2.058  37.142  1.00  0.00     0.152 C
HETATM   25  C26 UNL     1      33.495  -2.651  34.988  1.00  0.00     0.250 C
HETATM   26  O3  UNL     1      33.536  -1.464  34.639  1.00  0.00    -0.270 OA
HETATM   27  C27 UNL     1      34.097  -3.785  34.236  1.00  0.00     0.237 C
HETATM   28  O5  UNL     1      33.252  -4.847  34.069  1.00  0.00    -0.367 OA
BRANCH  27  29
HETATM   29  C28 UNL     1      34.646  -3.278  32.913  1.00  0.00     0.205 C
BRANCH  29  30
HETATM   30  O4  UNL     1      33.613  -2.804  32.117  1.00  0.00    -0.398 OA
ATOM     31  H4  UNL     1      33.511  -1.867  32.237  1.00  0.00     0.209 HD
ENDBRANCH  29  30
ENDBRANCH  27  29
ENDBRANCH  20  21
ENDBRANCH  19  20
ENDBRANCH  16  17
ENDBRANCH   1  15
BRANCH   5  32
HETATM   32  O1  UNL     1      36.689  -9.596  42.754  1.00  0.00    -0.358 OA
ATOM     33  H1  UNL     1      35.883  -9.480  43.243  1.00  0.00     0.217 HD
ENDBRANCH   5  32
BRANCH   8  34
HETATM   34  O2  UNL     1      38.806  -5.399  42.081  1.00  0.00    -0.359 OA
ATOM     35  H2  UNL     1      39.752  -5.324  42.035  1.00  0.00     0.217 HD
ENDBRANCH   8  34
BRANCH  11  36
HETATM   36  C15 UNL     1      38.326  -3.930  37.537  1.00  0.00     0.006 C
HETATM   37  C16 UNL     1      39.228  -3.736  36.358  1.00  0.00     0.014 C
HETATM   38  C17 UNL     1      36.899  -3.686  37.074  1.00  0.00     0.014 C
ENDBRANCH  11  36
TORSDOF 9
ENDMDL