MODEL 3
REMARK VINA RESULT: -6.735259213      2.920      4.825
REMARK  9 active torsions:
REMARK  status: ('A' for Active; 'I' for Inactive)
REMARK    1  A    between atoms: C6_6  and  C7_7
REMARK    2  A    between atoms: C19_20  and  N1_21
REMARK    3  A    between atoms: N1_21  and  O1_22
REMARK    4  A    between atoms: O1_22  and  C20_23
REMARK    5  A    between atoms: C20_23  and  C21_24
REMARK    6  A    between atoms: C21_24  and  N2_25
REMARK    7  A    between atoms: N2_25  and  C22_28
REMARK    8  A    between atoms: C22_28  and  C23_29
REMARK    9  A    between atoms: C29_37  and  O4_38
ROOT
HETATM    1  C1  UNL     1      33.902  -7.164  36.572  1.00  0.00     0.011 C
HETATM    2  C2  UNL     1      33.217  -6.034  35.774  1.00  0.00    -0.009 C
HETATM    3  C3  UNL     1      32.898  -6.560  34.427  1.00  0.00     0.005 C
HETATM    4  C4  UNL     1      33.080  -5.593  33.293  1.00  0.00     0.002 C
HETATM    5  C5  UNL     1      33.064  -4.176  33.790  1.00  0.00     0.020 C
HETATM    6  C6  UNL     1      34.224  -3.955  34.720  1.00  0.00     0.046 C
HETATM    7  C8  UNL     1      33.784  -4.698  35.987  1.00  0.00    -0.024 C
HETATM    8  C9  UNL     1      32.795  -3.937  36.844  1.00  0.00     0.017 C
HETATM    9  C10 UNL     1      35.022  -4.690  36.893  1.00  0.00     0.015 C
HETATM   10  C11 UNL     1      35.642  -3.368  37.054  1.00  0.00     0.038 C
HETATM   11  C12 UNL     1      35.215  -2.292  36.140  1.00  0.00    -0.048 C
HETATM   12  C13 UNL     1      35.503  -1.036  36.448  1.00  0.00    -0.021 C
HETATM   13  C14 UNL     1      35.128   0.139  35.620  1.00  0.00     0.033 C
HETATM   14  C15 UNL     1      34.372  -0.208  34.386  1.00  0.00     0.001 C
HETATM   15  C16 UNL     1      34.396   0.840  33.310  1.00  0.00     0.000 C
HETATM   16  C17 UNL     1      34.478   2.169  33.963  1.00  0.00     0.007 C
HETATM   17  C18 UNL     1      35.131   3.020  32.851  1.00  0.00     0.025 C
HETATM   18  C19 UNL     1      36.060   2.001  32.311  1.00  0.00     0.115 C
HETATM   19  C24 UNL     1      35.488   0.677  32.310  1.00  0.00    -0.020 C
HETATM   20  C25 UNL     1      35.018   0.311  30.884  1.00  0.00     0.017 C
HETATM   21  C26 UNL     1      36.588  -0.261  32.759  1.00  0.00     0.012 C
HETATM   22  C27 UNL     1      36.172  -1.503  33.453  1.00  0.00     0.009 C
HETATM   23  C28 UNL     1      34.760  -1.606  33.865  1.00  0.00     0.030 C
HETATM   24  C29 UNL     1      34.369  -2.494  34.942  1.00  0.00     0.099 C
ENDROOT
BRANCH  18  25
HETATM   25  N1  UNL     1      37.386   2.412  31.950  1.00  0.00    -0.095 NA
BRANCH  25  26
HETATM   26  O1  UNL     1      37.680   3.082  33.070  1.00  0.00    -0.284 OA
BRANCH  26  27
HETATM   27  C20 UNL     1      38.683   3.221  33.993  1.00  0.00     0.223 C
BRANCH  27  28
HETATM   28  C21 UNL     1      38.196   2.400  35.211  1.00  0.00     0.261 C
BRANCH  28  29
HETATM   29  N2  UNL     1      37.309   3.224  35.983  1.00  0.00    -0.064 N
ATOM     30  H22 UNL     1      37.697   4.136  36.224  1.00  0.00     0.277 HD
ATOM     31  H21 UNL     1      36.508   3.574  35.458  1.00  0.00     0.277 HD
BRANCH  29  32
HETATM   32  C22 UNL     1      36.944   2.396  37.158  1.00  0.00     0.344 C
BRANCH  32  33
HETATM   33  C23 UNL     1      35.886   2.919  37.969  1.00  0.00     0.199 C
HETATM   34  O2  UNL     1      34.741   2.438  37.917  1.00  0.00    -0.647 OA
HETATM   35  O3  UNL     1      36.139   3.979  38.827  1.00  0.00    -0.647 OA
ENDBRANCH  32  33
ENDBRANCH  29  32
ENDBRANCH  28  29
ENDBRANCH  27  28
ENDBRANCH  26  27
ENDBRANCH  25  26
ENDBRANCH  18  25
BRANCH  24  36
HETATM   36  O4  UNL     1      33.019  -2.071  35.219  1.00  0.00    -0.384 OA
ATOM     37  H4  UNL     1      32.495  -2.774  34.853  1.00  0.00     0.211 HD
ENDBRANCH  24  36
BRANCH   6  38
HETATM   38  C7  UNL     1      35.512  -4.483  34.233  1.00  0.00     0.175 C
HETATM   39  F1  UNL     1      35.797  -4.788  32.972  1.00  0.00    -0.223 F
ENDBRANCH   6  38
TORSDOF 9
ENDMDL