MODEL 5
REMARK VINA RESULT: -5.778342066     14.328     17.770
REMARK  9 active torsions:
REMARK  status: ('A' for Active; 'I' for Inactive)
REMARK    1  A    between atoms: C4_4  and  C5_5
REMARK    2  A    between atoms: C5_5  and  O1_6
REMARK    3  A    between atoms: O1_6  and  C6_7
REMARK    4  A    between atoms: C8_9  and  O2_11
REMARK    5  A    between atoms: C10_13  and  C11_14
REMARK    6  A    between atoms: C17_22  and  C18_23
REMARK    7  A    between atoms: C18_23  and  O4_26
REMARK    8  A    between atoms: C25_32  and  C26_33
REMARK    9  A    between atoms: C26_33  and  O5_36
ROOT
HETATM    1  C6  UNL     1      34.428 -16.031  45.132  1.00  0.00     0.054 C
HETATM    2  C7  UNL     1      34.487 -17.262  45.551  1.00  0.00     0.046 C
HETATM    3  C8  UNL     1      33.503 -18.343  45.846  1.00  0.00     0.107 C
HETATM    4  C9  UNL     1      33.574 -19.264  44.695  1.00  0.00     0.053 C
HETATM    5  C10 UNL     1      32.109 -17.717  46.128  1.00  0.00     0.119 C
HETATM    6  O3  UNL     1      32.571 -16.817  47.050  1.00  0.00    -0.359 OA
HETATM    7  C13 UNL     1      32.434 -15.581  47.293  1.00  0.00     0.082 C
HETATM    8  C14 UNL     1      33.715 -15.141  48.049  1.00  0.00     0.051 C
HETATM    9  C15 UNL     1      31.336 -15.114  48.225  1.00  0.00     0.043 C
HETATM   10  C16 UNL     1      31.254 -13.636  48.307  1.00  0.00     0.015 C
HETATM   11  C17 UNL     1      31.280 -12.883  47.029  1.00  0.00     0.042 C
HETATM   12  C21 UNL     1      31.990 -13.596  45.936  1.00  0.00    -0.012 C
HETATM   13  C22 UNL     1      32.504 -14.781  46.027  1.00  0.00    -0.039 C
HETATM   14  C23 UNL     1      33.167 -15.329  44.807  1.00  0.00     0.074 C
HETATM   15  C24 UNL     1      32.148 -16.161  44.152  1.00  0.00     0.026 C
HETATM   16  C25 UNL     1      31.510 -17.313  44.887  1.00  0.00     0.060 C
ENDROOT
BRANCH   1  17
HETATM   17  O1  UNL     1      35.575 -15.284  44.961  1.00  0.00    -0.351 OA
BRANCH  17  18
HETATM   18  C5  UNL     1      35.841 -14.392  43.936  1.00  0.00     0.203 C
BRANCH  18  19
HETATM   19  C4  UNL     1      35.986 -13.034  44.528  1.00  0.00     0.001 C
HETATM   20  C2  UNL     1      35.192 -12.023  44.207  1.00  0.00    -0.089 C
HETATM   21  C1  UNL     1      34.096 -12.204  43.219  1.00  0.00     0.042 C
HETATM   22  C3  UNL     1      35.378 -10.686  44.829  1.00  0.00     0.042 C
ENDBRANCH  18  19
ENDBRANCH  17  18
ENDBRANCH   1  17
BRANCH   3  23
HETATM   23  O2  UNL     1      34.002 -18.997  46.961  1.00  0.00    -0.383 OA
ATOM     24  H2  UNL     1      34.218 -19.873  46.661  1.00  0.00     0.211 HD
ENDBRANCH   3  23
BRANCH   5  25
HETATM   25  C11 UNL     1      31.417 -18.618  47.109  1.00  0.00     0.116 C
HETATM   26  C12 UNL     1      30.231 -18.240  47.841  1.00  0.00     0.030 C
HETATM   27 CL1  UNL     1      30.940 -20.195  46.358  1.00  0.00    -0.122 Cl
ENDBRANCH   5  25
BRANCH  16  28
HETATM   28  C26 UNL     1      30.064 -17.218  44.565  1.00  0.00     0.057 C
HETATM   29  C27 UNL     1      29.149 -16.362  45.327  1.00  0.00     0.045 C
HETATM   30  C28 UNL     1      29.331 -18.524  44.322  1.00  0.00     0.045 C
BRANCH  28  31
HETATM   31  O5  UNL     1      29.980 -16.687  43.224  1.00  0.00    -0.390 OA
ATOM     32  H5  UNL     1      29.586 -17.367  42.690  1.00  0.00     0.210 HD
ENDBRANCH  28  31
ENDBRANCH  16  28
BRANCH  11  33
HETATM   33  C18 UNL     1      31.824 -11.496  47.130  1.00  0.00     0.057 C
HETATM   34  C19 UNL     1      33.267 -11.460  47.576  1.00  0.00     0.046 C
HETATM   35  C20 UNL     1      31.025 -10.639  48.088  1.00  0.00     0.046 C
BRANCH  33  36
HETATM   36  O4  UNL     1      31.715 -10.891  45.875  1.00  0.00    -0.390 OA
ATOM     37  H4  UNL     1      31.683 -11.575  45.216  1.00  0.00     0.210 HD
ENDBRANCH  33  36
ENDBRANCH  11  33
TORSDOF 9
ENDMDL