MODEL 5
REMARK VINA RESULT: -6.272895557      2.371      5.171
REMARK  9 active torsions:
REMARK  status: ('A' for Active; 'I' for Inactive)
REMARK    1  A    between atoms: C2_2  and  C3_3
REMARK    2  A    between atoms: C2_2  and  C9_14
REMARK    3  A    between atoms: C3_3  and  C4_4
REMARK    4  A    between atoms: C4_4  and  C5_5
REMARK    5  A    between atoms: C5_5  and  C6_6
REMARK    6  A    between atoms: C6_6  and  O1_9
REMARK    7  A    between atoms: O1_9  and  S1_10
REMARK    8  A    between atoms: C16_21  and  O4_22
REMARK    9  A    between atoms: C24_31  and  O5_32
ROOT
HETATM    1  C9  UNL     1      36.769  -2.954  31.507  1.00  0.00     0.019 C
HETATM    2  C10 UNL     1      38.091  -3.129  32.274  1.00  0.00     0.010 C
HETATM    3  C11 UNL     1      37.931  -2.182  33.467  1.00  0.00     0.015 C
HETATM    4  C12 UNL     1      37.256  -1.027  32.837  1.00  0.00    -0.016 C
HETATM    5  C13 UNL     1      38.339  -0.148  32.240  1.00  0.00     0.020 C
HETATM    6  C14 UNL     1      36.370  -1.591  31.791  1.00  0.00    -0.068 C
HETATM    7  C15 UNL     1      35.388  -0.897  31.216  1.00  0.00     0.008 C
HETATM    8  C16 UNL     1      34.878   0.482  31.408  1.00  0.00     0.141 C
HETATM    9  C17 UNL     1      34.668   0.838  32.857  1.00  0.00     0.041 C
HETATM   10  C18 UNL     1      36.066   1.034  33.464  1.00  0.00    -0.002 C
HETATM   11  C19 UNL     1      36.497  -0.306  33.929  1.00  0.00     0.002 C
HETATM   12  C20 UNL     1      37.351  -0.210  35.183  1.00  0.00     0.007 C
HETATM   13  C21 UNL     1      36.448   0.353  36.261  1.00  0.00     0.012 C
HETATM   14  C22 UNL     1      35.858   1.666  35.897  1.00  0.00    -0.014 C
HETATM   15  C23 UNL     1      34.385   1.765  36.288  1.00  0.00     0.018 C
HETATM   16  C24 UNL     1      36.571   2.740  36.726  1.00  0.00     0.126 C
HETATM   17  C25 UNL     1      37.767   3.136  35.878  1.00  0.00     0.033 C
HETATM   18  C26 UNL     1      37.277   3.001  34.454  1.00  0.00     0.008 C
HETATM   19  C27 UNL     1      36.063   2.113  34.503  1.00  0.00     0.001 C
ENDROOT
BRANCH   1  20
HETATM   20  C2  UNL     1      35.906  -4.099  31.923  1.00  0.00    -0.011 C
HETATM   21  C1  UNL     1      36.162  -5.224  30.995  1.00  0.00     0.010 C
BRANCH  20  22
HETATM   22  C3  UNL     1      34.503  -3.839  32.211  1.00  0.00     0.005 C
BRANCH  22  23
HETATM   23  C4  UNL     1      33.932  -4.525  33.396  1.00  0.00     0.003 C
BRANCH  23  24
HETATM   24  C5  UNL     1      34.754  -5.147  34.431  1.00  0.00     0.039 C
BRANCH  24  25
HETATM   25  C6  UNL     1      34.774  -4.572  35.794  1.00  0.00     0.075 C
HETATM   26  C7  UNL     1      35.572  -3.368  36.113  1.00  0.00     0.047 C
HETATM   27  C8  UNL     1      35.180  -5.637  36.828  1.00  0.00     0.047 C
BRANCH  25  28
HETATM   28  O1  UNL     1      33.445  -4.251  36.159  1.00  0.00    -0.240 OA
BRANCH  28  29
HETATM   29  S1  UNL     1      32.849  -3.066  36.804  1.00  0.00     0.440 S
HETATM   30  O2  UNL     1      31.621  -2.780  35.430  1.00  0.00    -0.164 OA
HETATM   31  O3  UNL     1      32.322  -1.684  37.528  1.00  0.00    -0.164 OA
HETATM   32  F1  UNL     1      33.575  -1.491  34.657  1.00  0.00    -0.082 F
ENDBRANCH  28  29
ENDBRANCH  25  28
ENDBRANCH  24  25
ENDBRANCH  23  24
ENDBRANCH  22  23
ENDBRANCH  20  22
ENDBRANCH   1  20
BRANCH   8  33
HETATM   33  O4  UNL     1      33.647   0.649  30.783  1.00  0.00    -0.392 OA
ATOM     34  H4  UNL     1      33.197   1.416  31.118  1.00  0.00     0.210 HD
ENDBRANCH   8  33
BRANCH  16  35
HETATM   35  O5  UNL     1      37.040   2.250  37.924  1.00  0.00    -0.395 OA
ATOM     36  H5  UNL     1      37.300   1.339  37.864  1.00  0.00     0.210 HD
ENDBRANCH  16  35
TORSDOF 9
ENDMDL