MODEL 5
REMARK VINA RESULT: -6.532677281      2.722      9.122
REMARK  10 active torsions:
REMARK  status: ('A' for Active; 'I' for Inactive)
REMARK    1  A    between atoms: C2_2  and  C4_4
REMARK    2  A    between atoms: C4_4  and  O1_5
REMARK    3  A    between atoms: C4_4  and  C5_7
REMARK    4  A    between atoms: C5_7  and  C7_9
REMARK    5  A    between atoms: C7_9  and  O2_10
REMARK    6  A    between atoms: C7_9  and  C8_12
REMARK    7  A    between atoms: C10_14  and  O3_15
REMARK    8  A    between atoms: C21_27  and  O4_28
REMARK    9  A    between atoms: O4_28  and  C22_29
REMARK   10  A    between atoms: C22_29  and  C23_31
ROOT
HETATM    1  C8  UNL     1      34.468  -0.174  35.652  1.00  0.00     0.017 C
HETATM    2  C9  UNL     1      34.327  -0.368  34.177  1.00  0.00     0.039 C
HETATM    3  C10 UNL     1      34.091  -1.779  33.786  1.00  0.00     0.127 C
HETATM    4  C11 UNL     1      34.811  -2.823  34.602  1.00  0.00    -0.008 C
HETATM    5  C12 UNL     1      33.735  -3.564  35.381  1.00  0.00     0.019 C
HETATM    6  C13 UNL     1      35.848  -2.274  35.549  1.00  0.00    -0.003 C
HETATM    7  C14 UNL     1      35.697  -0.909  36.052  1.00  0.00     0.012 C
HETATM    8  C15 UNL     1      37.206  -2.516  34.868  1.00  0.00     0.010 C
HETATM    9  C16 UNL     1      36.932  -3.923  34.434  1.00  0.00    -0.006 C
HETATM   10  C17 UNL     1      37.697  -4.470  33.313  1.00  0.00     0.016 C
HETATM   11  C18 UNL     1      36.655  -5.245  32.520  1.00  0.00    -0.020 C
HETATM   12  C19 UNL     1      36.954  -6.697  32.416  1.00  0.00     0.017 C
HETATM   13  C20 UNL     1      36.497  -4.585  31.187  1.00  0.00     0.017 C
HETATM   14  C21 UNL     1      35.306  -4.996  33.282  1.00  0.00     0.145 C
HETATM   15  C29 UNL     1      35.603  -3.643  33.698  1.00  0.00     0.031 C
ENDROOT
BRANCH   1  16
HETATM   16  C7  UNL     1      34.717   1.334  35.891  1.00  0.00     0.128 C
BRANCH  16  17
HETATM   17  C5  UNL     1      36.147   1.622  36.047  1.00  0.00     0.040 C
HETATM   18  C6  UNL     1      36.508   2.448  37.269  1.00  0.00     0.015 C
BRANCH  17  19
HETATM   19  C4  UNL     1      36.820   2.243  34.867  1.00  0.00     0.127 C
BRANCH  19  20
HETATM   20  C2  UNL     1      37.520   3.547  35.079  1.00  0.00     0.006 C
HETATM   21  C1  UNL     1      39.023   3.380  34.730  1.00  0.00     0.012 C
HETATM   22  C3  UNL     1      37.051   4.574  34.063  1.00  0.00     0.012 C
ENDBRANCH  19  20
BRANCH  19  23
HETATM   23  O1  UNL     1      37.929   1.329  34.574  1.00  0.00    -0.395 OA
ATOM     24  H1  UNL     1      37.481   0.512  34.390  1.00  0.00     0.210 HD
ENDBRANCH  19  23
ENDBRANCH  17  19
ENDBRANCH  16  17
BRANCH  16  25
HETATM   25  O2  UNL     1      34.171   1.968  34.771  1.00  0.00    -0.395 OA
ATOM     26  H2  UNL     1      33.645   2.723  35.007  1.00  0.00     0.210 HD
ENDBRANCH  16  25
ENDBRANCH   1  16
BRANCH   3  27
HETATM   27  O3  UNL     1      34.426  -1.851  32.412  1.00  0.00    -0.395 OA
ATOM     28  H3  UNL     1      33.640  -2.159  31.976  1.00  0.00     0.210 HD
ENDBRANCH   3  27
BRANCH  14  29
HETATM   29  O4  UNL     1      35.297  -6.034  34.239  1.00  0.00    -0.311 OA
BRANCH  29  30
HETATM   30  C22 UNL     1      34.218  -6.906  34.285  1.00  0.00     0.295 C
HETATM   31  O5  UNL     1      33.384  -6.768  33.318  1.00  0.00    -0.259 OA
BRANCH  30  32
HETATM   32  C23 UNL     1      33.947  -7.912  35.267  1.00  0.00     0.061 A
HETATM   33  C24 UNL     1      32.948  -7.672  36.210  1.00  0.00     0.019 A
HETATM   34  C25 UNL     1      32.620  -8.587  37.181  1.00  0.00     0.001 A
HETATM   35  C26 UNL     1      33.282  -9.799  37.256  1.00  0.00     0.002 A
HETATM   36  C27 UNL     1      34.280 -10.072  36.337  1.00  0.00     0.025 A
HETATM   37  C28 UNL     1      34.581  -9.117  35.369  1.00  0.00     0.050 A
HETATM   38 CL1  UNL     1      35.832  -9.497  34.208  1.00  0.00    -0.083 Cl
ENDBRANCH  30  32
ENDBRANCH  29  30
ENDBRANCH  14  29
TORSDOF 10
ENDMDL