MODEL 1
REMARK VINA RESULT: -7.536642299      0.000      0.000
REMARK  9 active torsions:
REMARK  status: ('A' for Active; 'I' for Inactive)
REMARK    1  A    between atoms: C3_3  and  O1_4
REMARK    2  A    between atoms: C14_17  and  O3_18
REMARK    3  A    between atoms: C15_20  and  C16_21
REMARK    4  A    between atoms: C16_21  and  C17_22
REMARK    5  A    between atoms: C17_22  and  C18_23
REMARK    6  A    between atoms: C18_23  and  C19_24
REMARK    7  A    between atoms: C19_24  and  O4_25
REMARK    8  A    between atoms: C25_32  and  O5_33
REMARK    9  A    between atoms: O5_33  and  C26_34
ROOT
HETATM    1  C1  UNL     1      34.183 -17.673  42.058  1.00  0.00     0.020 C
HETATM    2  C2  UNL     1      33.886 -17.704  43.358  1.00  0.00    -0.026 C
HETATM    3  C3  UNL     1      32.541 -18.184  43.757  1.00  0.00     0.150 C
HETATM    4  C4  UNL     1      31.941 -17.223  44.740  1.00  0.00     0.046 C
HETATM    5  C5  UNL     1      32.920 -16.102  45.026  1.00  0.00     0.036 C
HETATM    6  C6  UNL     1      32.230 -14.957  45.651  1.00  0.00    -0.015 C
HETATM    7  C7  UNL     1      31.354 -15.215  46.768  1.00  0.00     0.165 C
HETATM    8  O2  UNL     1      31.423 -16.188  47.419  1.00  0.00    -0.292 OA
HETATM    9  C8  UNL     1      30.336 -14.201  47.088  1.00  0.00     0.045 C
HETATM   10  C9  UNL     1      29.599 -14.472  48.363  1.00  0.00     0.029 C
HETATM   11  C10 UNL     1      29.278 -14.078  46.001  1.00  0.00     0.029 C
HETATM   12  C11 UNL     1      31.117 -12.911  47.136  1.00  0.00    -0.034 A
HETATM   13  C12 UNL     1      30.418 -11.961  47.900  1.00  0.00     0.012 A
HETATM   14  C13 UNL     1      30.980 -10.743  48.092  1.00  0.00     0.037 A
HETATM   15  C14 UNL     1      32.207 -10.441  47.551  1.00  0.00     0.072 A
HETATM   16  C15 UNL     1      32.875 -11.388  46.800  1.00  0.00    -0.017 A
HETATM   17  C20 UNL     1      32.347 -12.683  46.560  1.00  0.00    -0.029 A
HETATM   18  C21 UNL     1      33.112 -13.708  45.797  1.00  0.00     0.017 C
HETATM   19  C22 UNL     1      33.261 -13.273  44.356  1.00  0.00     0.026 C
HETATM   20  C23 UNL     1      34.358 -14.162  46.479  1.00  0.00     0.029 C
HETATM   21  C24 UNL     1      34.200 -14.160  48.008  1.00  0.00     0.014 C
HETATM   22  C25 UNL     1      34.998 -15.418  46.031  1.00  0.00     0.138 C
HETATM   23  C28 UNL     1      34.209 -16.567  45.572  1.00  0.00     0.025 C
HETATM   24  C29 UNL     1      34.138 -17.679  46.593  1.00  0.00     0.022 C
HETATM   25  C30 UNL     1      34.901 -17.263  44.372  1.00  0.00     0.212 C
HETATM   26  F1  UNL     1      35.770 -16.458  43.717  1.00  0.00    -0.244 F
ENDROOT
BRANCH  16  27
HETATM   27  C16 UNL     1      34.190 -11.022  46.331  1.00  0.00     0.042 C
BRANCH  27  28
HETATM   28  C17 UNL     1      35.268 -10.740  47.347  1.00  0.00     0.007 C
BRANCH  28  29
HETATM   29  C18 UNL     1      36.021  -9.483  47.291  1.00  0.00     0.026 C
BRANCH  29  30
HETATM   30  C19 UNL     1      35.834  -8.637  46.054  1.00  0.00     0.164 C
BRANCH  30  31
HETATM   31  O4  UNL     1      34.823  -7.702  46.284  1.00  0.00    -0.401 OA
ATOM     32  H4  UNL     1      34.299  -7.608  45.498  1.00  0.00     0.209 HD
ENDBRANCH  30  31
ENDBRANCH  29  30
ENDBRANCH  28  29
ENDBRANCH  27  28
ENDBRANCH  16  27
BRANCH  15  33
HETATM   33  O3  UNL     1      32.712  -9.154  47.810  1.00  0.00    -0.360 OA
ATOM     34  H3  UNL     1      33.611  -9.101  48.110  1.00  0.00     0.217 HD
ENDBRANCH  15  33
BRANCH  22  35
HETATM   35  O5  UNL     1      35.753 -15.876  47.150  1.00  0.00    -0.385 OA
BRANCH  35  36
HETATM   36  C26 UNL     1      37.099 -15.689  47.012  1.00  0.00     0.163 C
HETATM   37  C27 UNL     1      37.760 -17.059  46.873  1.00  0.00     0.033 C
ENDBRANCH  35  36
ENDBRANCH  22  35
BRANCH   3  38
HETATM   38  O1  UNL     1      31.694 -18.146  42.618  1.00  0.00    -0.391 OA
ATOM     39  H1  UNL     1      31.818 -18.948  42.125  1.00  0.00     0.210 HD
ENDBRANCH   3  38
TORSDOF 9
ENDMDL