MODEL 1
REMARK VINA RESULT: -6.641666459      0.000      0.000
REMARK  7 active torsions:
REMARK  status: ('A' for Active; 'I' for Inactive)
REMARK    1  A    between atoms: C2_2  and  N1_4
REMARK       I    between atoms: N1_4  and  C4_6
REMARK       I    between atoms: C4_6  and  N2_8
REMARK    2  A    between atoms: N2_8  and  C5_10
REMARK    3  A    between atoms: C6_11  and  C7_12
REMARK    4  A    between atoms: C7_12  and  N3_15
REMARK    5  A    between atoms: N3_15  and  C10_17
REMARK    6  A    between atoms: N5_27  and  C17_28
REMARK    7  A    between atoms: N6_31  and  C20_32
ROOT
HETATM    1  C5  UNL     1      34.545  -2.059  33.978  1.00  0.00     0.138 A
HETATM    2  C6  UNL     1      33.836  -3.251  34.261  1.00  0.00     0.082 A
HETATM    3  N4  UNL     1      33.624  -3.842  33.089  1.00  0.00    -0.350 N
ATOM      4  H4  UNL     1      33.131  -4.727  32.967  1.00  0.00     0.166 HD
HETATM    5  C16 UNL     1      34.137  -3.127  32.101  1.00  0.00     0.185 A
HETATM    6  N5  UNL     1      34.717  -2.008  32.646  1.00  0.00    -0.321 N
ENDROOT
BRANCH   2   7
HETATM    7  C7  UNL     1      33.371  -3.834  35.533  1.00  0.00     0.069 C
HETATM    8  C8  UNL     1      32.432  -2.857  36.205  1.00  0.00     0.045 C
HETATM    9  C9  UNL     1      34.505  -4.129  36.474  1.00  0.00     0.045 C
BRANCH   7  10
HETATM   10  N3  UNL     1      32.667  -5.075  35.270  1.00  0.00    -0.376 N
ATOM     11  H3  UNL     1      31.714  -4.992  34.916  1.00  0.00     0.161 HD
BRANCH  10  12
HETATM   12  C10 UNL     1      33.162  -6.378  35.451  1.00  0.00     0.029 A
HETATM   13  C11 UNL     1      34.079  -6.979  34.643  1.00  0.00     0.030 A
HETATM   14  C12 UNL     1      34.536  -8.289  34.874  1.00  0.00     0.021 A
HETATM   15  C13 UNL     1      34.070  -9.022  35.937  1.00  0.00     0.011 A
HETATM   16 BR1  UNL     1      34.687 -10.797  36.258  1.00  0.00    -0.051 Br
HETATM   17  C14 UNL     1      33.144  -8.425  36.761  1.00  0.00     0.021 A
HETATM   18  C15 UNL     1      32.697  -7.140  36.532  1.00  0.00     0.030 A
ENDBRANCH  10  12
ENDBRANCH   7  10
ENDBRANCH   2   7
BRANCH   1  19
HETATM   19  N2  UNL     1      34.918  -1.210  35.015  1.00  0.00    -0.293 N
HETATM   20  C4  UNL     1      35.938  -0.339  35.341  1.00  0.00     0.322 C
HETATM   21  N1  UNL     1      35.863   0.346  36.641  1.00  0.00    -0.339 N
HETATM   22  O1  UNL     1      36.931  -0.029  34.707  1.00  0.00    -0.247 OA
ATOM     23  H1  UNL     1      35.070   0.163  37.256  1.00  0.00     0.164 HD
ATOM     24  H2  UNL     1      34.227  -1.240  35.764  1.00  0.00     0.172 HD
BRANCH  21  25
HETATM   25  C2  UNL     1      36.873   1.260  37.059  1.00  0.00     0.078 C
HETATM   26  C1  UNL     1      36.290   2.583  37.551  1.00  0.00     0.032 C
HETATM   27  C3  UNL     1      37.788   0.692  38.117  1.00  0.00     0.032 C
ENDBRANCH  21  25
ENDBRANCH   1  19
BRANCH   6  28
HETATM   28  C17 UNL     1      35.367  -1.023  31.872  1.00  0.00     0.122 C
HETATM   29  C18 UNL     1      35.531  -1.393  30.384  1.00  0.00     0.057 C
HETATM   30  C19 UNL     1      35.947  -0.038  29.856  1.00  0.00     0.275 C
HETATM   31  N6  UNL     1      35.129   0.889  30.552  1.00  0.00     0.095 N
HETATM   32  C24 UNL     1      34.465   0.225  31.660  1.00  0.00     0.298 C
BRANCH  31  33
HETATM   33  C20 UNL     1      35.799   2.101  30.908  1.00  0.00     0.223 C
HETATM   34  C21 UNL     1      35.899   2.975  29.646  1.00  0.00     0.036 C
HETATM   35  C22 UNL     1      34.470   3.421  29.992  1.00  0.00     0.004 C
HETATM   36  C23 UNL     1      34.883   3.183  31.453  1.00  0.00     0.036 C
ENDBRANCH  31  33
ENDBRANCH   6  28
TORSDOF 7
ENDMDL