MODEL 2
REMARK VINA RESULT: -6.912428140      2.454      5.175
REMARK  8 active torsions:
REMARK  status: ('A' for Active; 'I' for Inactive)
REMARK    1  A    between atoms: C6_8  and  O3_9
REMARK    2  A    between atoms: C16_20  and  N1_21
REMARK    3  A    between atoms: N1_21  and  C17_23
REMARK    4  A    between atoms: C17_23  and  C18_24
REMARK    5  A    between atoms: C18_24  and  C19_25
REMARK    6  A    between atoms: C19_25  and  C20_26
REMARK    7  A    between atoms: C20_26  and  C21_27
REMARK    8  A    between atoms: C31_38  and  O4_39
ROOT
HETATM    1  C1  UNL     1      39.007  -8.400  44.414  1.00  0.00     0.049 C
HETATM    2  C2  UNL     1      37.524  -8.684  44.261  1.00  0.00     0.095 C
HETATM    3  C3  UNL     1      37.191  -8.572  42.818  1.00  0.00     0.049 C
HETATM    4  O1  UNL     1      36.745  -7.800  45.077  1.00  0.00    -0.307 OA
HETATM    5  C4  UNL     1      35.714  -8.492  45.696  1.00  0.00     0.269 C
HETATM    6  O2  UNL     1      34.960  -8.092  46.605  1.00  0.00    -0.265 OA
HETATM    7  C5  UNL     1      35.697  -9.814  45.047  1.00  0.00     0.151 C
HETATM    8  C6  UNL     1      34.992 -10.898  45.755  1.00  0.00     0.135 C
HETATM    9  C7  UNL     1      34.557 -11.913  44.721  1.00  0.00     0.043 C
HETATM   10  C8  UNL     1      35.578 -12.710  44.067  1.00  0.00    -0.030 C
HETATM   11  C9  UNL     1      35.462 -12.492  42.542  1.00  0.00     0.016 C
HETATM   12  C10 UNL     1      37.016 -12.501  44.370  1.00  0.00    -0.003 C
HETATM   13  C11 UNL     1      37.555 -13.072  45.637  1.00  0.00     0.006 C
HETATM   14  C12 UNL     1      36.971 -14.368  46.066  1.00  0.00     0.006 C
HETATM   15  C13 UNL     1      35.543 -14.488  45.682  1.00  0.00    -0.005 C
HETATM   16  C14 UNL     1      34.981 -15.775  46.184  1.00  0.00     0.007 C
HETATM   17  C15 UNL     1      33.462 -15.666  45.922  1.00  0.00     0.025 C
HETATM   18  C16 UNL     1      33.320 -15.811  44.456  1.00  0.00     0.081 C
HETATM   19  C27 UNL     1      33.934 -14.563  43.741  1.00  0.00     0.035 C
HETATM   20  C28 UNL     1      35.289 -14.224  44.231  1.00  0.00    -0.031 C
HETATM   21  C29 UNL     1      36.259 -15.003  43.354  1.00  0.00     0.016 C
HETATM   22  C30 UNL     1      37.554 -11.154  44.062  1.00  0.00     0.047 C
HETATM   23  C31 UNL     1      37.188 -10.020  44.892  1.00  0.00     0.104 C
ENDROOT
BRANCH  18  24
HETATM   24  N1  UNL     1      32.135 -16.144  43.860  1.00  0.00    -0.398 N
ATOM     25  H1  UNL     1      31.868 -15.573  43.058  1.00  0.00     0.159 HD
BRANCH  24  26
HETATM   26  C17 UNL     1      31.252 -17.150  44.200  1.00  0.00     0.056 C
BRANCH  26  27
HETATM   27  C18 UNL     1      29.795 -17.036  43.915  1.00  0.00     0.044 C
BRANCH  27  28
HETATM   28  C19 UNL     1      29.069 -16.442  45.124  1.00  0.00     0.010 C
BRANCH  28  29
HETATM   29  C20 UNL     1      28.686 -15.001  44.936  1.00  0.00     0.039 C
BRANCH  29  30
HETATM   30  C21 UNL     1      29.518 -14.131  45.849  1.00  0.00    -0.058 A
HETATM   31  C22 UNL     1      30.582 -13.388  45.398  1.00  0.00     0.010 A
HETATM   32  C23 UNL     1      31.307 -12.604  46.272  1.00  0.00     0.043 A
HETATM   33  C24 UNL     1      31.006 -12.527  47.617  1.00  0.00     0.116 A
HETATM   34  F1  UNL     1      31.735 -11.747  48.463  1.00  0.00    -0.206 F
HETATM   35  C25 UNL     1      29.939 -13.272  48.070  1.00  0.00     0.043 A
HETATM   36  C26 UNL     1      29.209 -14.058  47.197  1.00  0.00     0.010 A
ENDBRANCH  29  30
ENDBRANCH  28  29
ENDBRANCH  27  28
ENDBRANCH  26  27
ENDBRANCH  24  26
ENDBRANCH  18  24
BRANCH   8  37
HETATM   37  O3  UNL     1      33.771 -10.336  46.226  1.00  0.00    -0.395 OA
ATOM     38  H3  UNL     1      33.718 -10.553  47.149  1.00  0.00     0.210 HD
ENDBRANCH   8  37
BRANCH  23  39
HETATM   39  O4  UNL     1      37.757  -9.973  46.163  1.00  0.00    -0.386 OA
ATOM     40  H4  UNL     1      38.658  -9.709  46.021  1.00  0.00     0.210 HD
ENDBRANCH  23  39
TORSDOF 8
ENDMDL