MODEL 4
REMARK VINA RESULT: -6.986499064      3.264      7.891
REMARK  9 active torsions:
REMARK  status: ('A' for Active; 'I' for Inactive)
REMARK    1  A    between atoms: C8_8  and  O1_9
REMARK    2  A    between atoms: O1_9  and  C9_10
REMARK    3  A    between atoms: C9_10  and  C10_12
REMARK    4  A    between atoms: C10_12  and  C11_13
REMARK    5  A    between atoms: C17_20  and  O3_21
REMARK    6  A    between atoms: C17_20  and  C18_23
REMARK    7  A    between atoms: C18_23  and  C19_24
REMARK    8  A    between atoms: C19_24  and  C20_25
REMARK    9  A    between atoms: C20_25  and  O4_26
ROOT
HETATM    1  C1  UNL     1      35.739  -5.787  32.431  1.00  0.00     0.010 C
HETATM    2  C2  UNL     1      34.416  -5.348  33.089  1.00  0.00    -0.017 C
HETATM    3  C3  UNL     1      34.682  -4.094  33.802  1.00  0.00     0.010 C
HETATM    4  C4  UNL     1      33.771  -3.726  34.936  1.00  0.00     0.004 C
HETATM    5  C5  UNL     1      34.209  -2.492  35.650  1.00  0.00    -0.024 C
HETATM    6  C6  UNL     1      32.923  -1.772  36.091  1.00  0.00     0.016 C
HETATM    7  C7  UNL     1      34.961  -1.514  34.809  1.00  0.00     0.046 C
HETATM    8  C8  UNL     1      35.698  -0.656  35.880  1.00  0.00     0.167 C
HETATM    9  C17 UNL     1      36.274  -1.711  36.691  1.00  0.00     0.095 C
HETATM   10  C21 UNL     1      35.137  -2.694  36.817  1.00  0.00     0.101 C
HETATM   11  C22 UNL     1      35.510  -4.081  37.088  1.00  0.00     0.135 C
HETATM   12  O5  UNL     1      36.347  -4.318  37.930  1.00  0.00    -0.297 OA
HETATM   13  C23 UNL     1      34.917  -5.274  36.383  1.00  0.00     0.089 C
HETATM   14  C24 UNL     1      33.560  -4.924  35.819  1.00  0.00    -0.026 C
HETATM   15  C25 UNL     1      32.631  -4.730  36.966  1.00  0.00     0.016 C
HETATM   16  C26 UNL     1      32.999  -6.026  34.965  1.00  0.00    -0.039 C
HETATM   17  C27 UNL     1      32.618  -7.233  35.816  1.00  0.00     0.015 C
HETATM   18  C28 UNL     1      31.760  -5.585  34.214  1.00  0.00     0.015 C
HETATM   19  C29 UNL     1      33.971  -6.507  33.915  1.00  0.00     0.013 C
ENDROOT
BRANCH   8  20
HETATM   20  O1  UNL     1      34.808   0.253  36.324  1.00  0.00    -0.313 OA
BRANCH  20  21
HETATM   21  C9  UNL     1      34.952   1.600  36.428  1.00  0.00     0.263 C
HETATM   22  O2  UNL     1      34.158   2.065  37.261  1.00  0.00    -0.265 OA
BRANCH  21  23
HETATM   23  C10 UNL     1      35.892   2.446  35.691  1.00  0.00     0.151 C
BRANCH  23  24
HETATM   24  C11 UNL     1      35.519   2.768  34.313  1.00  0.00    -0.027 A
HETATM   25  C12 UNL     1      34.412   2.206  33.725  1.00  0.00     0.009 A
HETATM   26  C13 UNL     1      34.051   2.477  32.430  1.00  0.00     0.001 A
HETATM   27  C14 UNL     1      34.801   3.338  31.666  1.00  0.00     0.002 A
HETATM   28  C15 UNL     1      35.915   3.916  32.231  1.00  0.00     0.024 A
HETATM   29  C16 UNL     1      36.271   3.627  33.559  1.00  0.00     0.040 A
HETATM   30 CL1  UNL     1      37.695   4.441  34.155  1.00  0.00    -0.084 Cl
ENDBRANCH  23  24
ENDBRANCH  21  23
ENDBRANCH  20  21
ENDBRANCH   8  20
BRANCH   9  31
HETATM   31  O3  UNL     1      36.738  -1.322  37.964  1.00  0.00    -0.386 OA
ATOM     32  H3  UNL     1      36.068  -1.191  38.626  1.00  0.00     0.210 HD
ENDBRANCH   9  31
BRANCH   9  33
HETATM   33  C18 UNL     1      37.525  -2.277  36.077  1.00  0.00     0.043 C
BRANCH  33  34
HETATM   34  C19 UNL     1      38.793  -1.583  36.515  1.00  0.00     0.029 C
BRANCH  34  35
HETATM   35  C20 UNL     1      39.762  -2.648  37.064  1.00  0.00     0.164 C
BRANCH  35  36
HETATM   36  O4  UNL     1      39.101  -3.477  37.959  1.00  0.00    -0.401 OA
ATOM     37  H4  UNL     1      39.505  -4.337  37.967  1.00  0.00     0.209 HD
ENDBRANCH  35  36
ENDBRANCH  34  35
ENDBRANCH  33  34
ENDBRANCH   9  33
TORSDOF 9
ENDMDL