MODEL 4
REMARK VINA RESULT: -6.095405751      2.945      7.302
REMARK  10 active torsions:
REMARK  status: ('A' for Active; 'I' for Inactive)
REMARK    1  A    between atoms: C2_2  and  O2_4
REMARK    2  A    between atoms: O2_4  and  C3_5
REMARK    3  A    between atoms: C3_5  and  C4_6
REMARK    4  A    between atoms: C7_9  and  C8_10
REMARK    5  A    between atoms: C22_25  and  O3_26
REMARK    6  A    between atoms: C22_25  and  C23_28
REMARK    7  A    between atoms: C24_29  and  C25_30
REMARK    8  A    between atoms: C25_30  and  O4_32
REMARK    9  A    between atoms: C28_35  and  C29_36
REMARK   10  A    between atoms: C29_36  and  O5_37
ROOT
HETATM    1  C8  UNL     1      38.395  -2.798  33.072  1.00  0.00     0.004 C
HETATM    2  C9  UNL     1      37.302  -3.375  32.629  1.00  0.00    -0.070 C
HETATM    3  C10 UNL     1      37.286  -4.006  31.277  1.00  0.00     0.035 C
HETATM    4  C11 UNL     1      35.942  -4.350  30.766  1.00  0.00     0.005 C
HETATM    5  C12 UNL     1      34.801  -3.525  31.222  1.00  0.00     0.014 C
HETATM    6  C13 UNL     1      34.867  -2.953  32.584  1.00  0.00     0.007 C
HETATM    7  C14 UNL     1      34.787  -1.442  32.585  1.00  0.00     0.020 C
HETATM    8  C15 UNL     1      36.070  -3.433  33.405  1.00  0.00     0.060 C
HETATM    9  C16 UNL     1      35.638  -4.842  33.698  1.00  0.00    -0.036 A
HETATM   10  C17 UNL     1      36.303  -6.032  33.945  1.00  0.00     0.050 A
HETATM   11  C18 UNL     1      35.613  -7.205  34.188  1.00  0.00     0.117 A
HETATM   12  F1  UNL     1      36.253  -8.385  34.435  1.00  0.00    -0.206 F
HETATM   13  C19 UNL     1      34.237  -7.224  34.190  1.00  0.00     0.043 A
HETATM   14  C20 UNL     1      33.565  -6.062  33.946  1.00  0.00     0.014 A
HETATM   15  C21 UNL     1      34.253  -4.897  33.706  1.00  0.00    -0.012 A
HETATM   16  C22 UNL     1      33.748  -3.528  33.426  1.00  0.00     0.111 C
ENDROOT
BRANCH   1  17
HETATM   17  C7  UNL     1      38.532  -2.148  34.376  1.00  0.00     0.003 C
HETATM   18  C6  UNL     1      38.321  -0.858  34.483  1.00  0.00    -0.079 C
HETATM   19  C5  UNL     1      37.953  -0.089  33.292  1.00  0.00     0.041 C
HETATM   20  C27 UNL     1      38.459  -0.207  35.799  1.00  0.00     0.041 C
HETATM   21  C4  UNL     1      37.793   1.380  33.552  1.00  0.00     0.014 C
HETATM   22  C30 UNL     1      37.090   1.690  34.840  1.00  0.00     0.014 C
HETATM   23  C28 UNL     1      37.475   0.890  36.021  1.00  0.00     0.013 C
BRANCH  21  24
HETATM   24  C3  UNL     1      37.037   1.966  32.386  1.00  0.00     0.183 C
BRANCH  24  25
HETATM   25  O2  UNL     1      35.889   2.663  32.720  1.00  0.00    -0.321 OA
BRANCH  25  26
HETATM   26  C2  UNL     1      34.645   2.327  32.262  1.00  0.00     0.254 C
HETATM   27  C1  UNL     1      34.488   1.845  30.851  1.00  0.00     0.126 C
HETATM   28  O1  UNL     1      33.650   2.425  33.018  1.00  0.00    -0.266 OA
ENDBRANCH  25  26
ENDBRANCH  24  25
ENDBRANCH  21  24
BRANCH  23  29
HETATM   29  C29 UNL     1      36.228   0.396  36.759  1.00  0.00     0.169 C
BRANCH  29  30
HETATM   30  O5  UNL     1      36.610  -0.289  37.916  1.00  0.00    -0.400 OA
ATOM     31  H5  UNL     1      36.680  -1.218  37.727  1.00  0.00     0.209 HD
ENDBRANCH  29  30
ENDBRANCH  23  29
ENDBRANCH   1  17
BRANCH  16  32
HETATM   32  O3  UNL     1      32.529  -3.536  32.774  1.00  0.00    -0.380 OA
ATOM     33  H3  UNL     1      32.608  -3.702  31.841  1.00  0.00     0.211 HD
ENDBRANCH  16  32
BRANCH  16  34
HETATM   34  C23 UNL     1      33.705  -2.801  34.723  1.00  0.00     0.015 C
HETATM   35  C24 UNL     1      32.622  -2.917  35.468  1.00  0.00     0.003 C
BRANCH  35  36
HETATM   36  C25 UNL     1      32.553  -2.205  36.761  1.00  0.00     0.136 C
HETATM   37  C26 UNL     1      33.206  -3.050  37.831  1.00  0.00     0.043 C
BRANCH  36  38
HETATM   38  O4  UNL     1      31.208  -1.967  37.036  1.00  0.00    -0.392 OA
ATOM     39  H4  UNL     1      30.975  -2.491  37.794  1.00  0.00     0.210 HD
ENDBRANCH  36  38
ENDBRANCH  35  36
ENDBRANCH  16  34
TORSDOF 10
ENDMDL