MODEL 5
REMARK VINA RESULT: -7.023331465      0.938      1.727
REMARK  5 active torsions:
REMARK  status: ('A' for Active; 'I' for Inactive)
REMARK    1  A    between atoms: C6_7  and  S1_8
REMARK    2  A    between atoms: S1_8  and  C7_9
REMARK    3  A    between atoms: C10_12  and  N1_13
REMARK    4  A    between atoms: N1_13  and  C11_15
REMARK    5  A    between atoms: C15_19  and  N2_20
ROOT
HETATM    1  C7  UNL     1      -5.321   3.434   0.437  1.00  0.00     0.007 A
HETATM    2  C8  UNL     1      -4.066   3.713   0.888  1.00  0.00     0.021 A
HETATM    3  C9  UNL     1      -3.693   4.990   1.340  1.00  0.00     0.032 A
HETATM    4  C10 UNL     1      -4.645   5.970   1.317  1.00  0.00     0.046 A
HETATM    5  C23 UNL     1      -5.909   5.704   0.868  1.00  0.00     0.038 A
HETATM    6 BR1  UNL     1      -7.278   7.089   0.832  1.00  0.00    -0.049 Br
HETATM    7  C24 UNL     1      -6.261   4.441   0.427  1.00  0.00     0.040 A
ENDROOT
BRANCH   4   8
HETATM    8  N1  UNL     1      -4.346   7.291   1.684  1.00  0.00    -0.380 N
ATOM      9  H1  UNL     1      -4.075   7.887   0.902  1.00  0.00     0.160 HD
BRANCH   8  10
HETATM   10  C11 UNL     1      -4.352   7.951   2.937  1.00  0.00     0.114 C
HETATM   11  C12 UNL     1      -4.852   7.044   4.105  1.00  0.00     0.109 C
HETATM   12  C13 UNL     1      -3.892   7.108   5.116  1.00  0.00    -0.178 C
HETATM   13  C14 UNL     1      -2.886   7.167   6.117  1.00  0.00     0.119 C
HETATM   14  C15 UNL     1      -1.827   8.149   5.535  1.00  0.00     0.255 C
HETATM   15  C21 UNL     1      -2.414   8.998   4.390  1.00  0.00     0.007 C
HETATM   16  C22 UNL     1      -2.898   8.408   3.202  1.00  0.00    -0.003 C
BRANCH  14  17
HETATM   17  N2  UNL     1      -1.086   8.920   6.379  1.00  0.00     0.097 N
HETATM   18  C16 UNL     1      -0.938   8.284   7.682  1.00  0.00     0.273 C
HETATM   19  C17 UNL     1      -0.878   9.224   8.834  1.00  0.00     0.030 C
HETATM   20  C18 UNL     1      -2.114  10.070   8.974  1.00  0.00     0.003 C
HETATM   21  C19 UNL     1      -2.606  10.476   7.588  1.00  0.00     0.030 C
HETATM   22  C20 UNL     1      -1.443  10.275   6.640  1.00  0.00     0.273 C
ENDBRANCH  14  17
ENDBRANCH   8  10
ENDBRANCH   4   8
BRANCH   1  23
HETATM   23  S1  UNL     1      -5.826   1.857  -0.218  1.00  0.00    -0.089 SA
BRANCH  23  24
HETATM   24  C6  UNL     1      -4.443   0.851  -0.717  1.00  0.00     0.027 A
HETATM   25  C1  UNL     1      -3.621   1.297  -1.741  1.00  0.00     0.051 A
HETATM   26 CL1  UNL     1      -3.949   2.834  -2.534  1.00  0.00    -0.083 Cl
HETATM   27  C2  UNL     1      -2.532   0.554  -2.149  1.00  0.00     0.025 A
HETATM   28  C3  UNL     1      -2.230  -0.670  -1.543  1.00  0.00     0.002 A
HETATM   29  C4  UNL     1      -3.050  -1.104  -0.526  1.00  0.00     0.001 A
HETATM   30  C5  UNL     1      -4.144  -0.360  -0.114  1.00  0.00     0.021 A
ENDBRANCH  23  24
ENDBRANCH   1  23
TORSDOF 5
ENDMDL