MODEL 4
REMARK VINA RESULT: -6.995304417      4.808      6.956
REMARK  8 active torsions:
REMARK  status: ('A' for Active; 'I' for Inactive)
REMARK    1  A    between atoms: C2_2  and  O1_3
REMARK    2  A    between atoms: O1_3  and  C3_4
REMARK    3  A    between atoms: C3_4  and  C4_6
REMARK    4  A    between atoms: C19_22  and  C20_23
REMARK    5  A    between atoms: C20_23  and  O3_25
REMARK    6  A    between atoms: C20_23  and  C22_27
REMARK    7  A    between atoms: C22_27  and  C23_28
REMARK    8  A    between atoms: C23_28  and  C24_29
ROOT
HETATM    1  C4  UNL     1      -1.529   7.308   5.813  1.00  0.00     0.079 C
HETATM    2  C5  UNL     1      -0.583   6.103   5.654  1.00  0.00     0.029 C
HETATM    3  C6  UNL     1      -0.604   8.512   5.665  1.00  0.00     0.188 C
HETATM    4  F1  UNL     1       0.524   8.185   6.435  1.00  0.00    -0.248 F
HETATM    5  C7  UNL     1      -0.163   8.770   4.272  1.00  0.00     0.039 C
HETATM    6  C8  UNL     1      -0.977   8.105   3.196  1.00  0.00     0.012 C
HETATM    7  C9  UNL     1      -2.416   8.077   3.575  1.00  0.00    -0.035 C
HETATM    8  C10 UNL     1      -2.864   9.514   3.678  1.00  0.00     0.016 C
HETATM    9  C11 UNL     1      -3.264   7.424   2.468  1.00  0.00    -0.002 C
HETATM   10  C12 UNL     1      -2.656   6.198   1.921  1.00  0.00     0.006 C
HETATM   11  C13 UNL     1      -3.586   5.066   1.551  1.00  0.00     0.010 C
HETATM   12  C14 UNL     1      -4.840   5.582   0.968  1.00  0.00    -0.034 C
HETATM   13  C15 UNL     1      -4.571   6.282  -0.302  1.00  0.00     0.016 C
HETATM   14  C16 UNL     1      -5.498   6.391   2.058  1.00  0.00    -0.001 C
HETATM   15  C17 UNL     1      -6.708   6.890   1.325  1.00  0.00     0.006 C
HETATM   16  C18 UNL     1      -7.130   5.593   0.610  1.00  0.00     0.009 C
HETATM   17  C19 UNL     1      -5.960   4.626   0.776  1.00  0.00     0.028 C
HETATM   18  C27 UNL     1      -4.709   7.343   2.841  1.00  0.00    -0.005 C
HETATM   19  C28 UNL     1      -4.986   7.121   4.309  1.00  0.00     0.006 C
HETATM   20  C29 UNL     1      -4.004   7.517   5.308  1.00  0.00     0.007 C
HETATM   21  C30 UNL     1      -2.606   7.264   4.792  1.00  0.00     0.015 C
ENDROOT
BRANCH  17  22
HETATM   22  C20 UNL     1      -5.980   3.536  -0.162  1.00  0.00     0.059 C
HETATM   23  C21 UNL     1      -5.004   3.740  -1.301  1.00  0.00     0.046 C
BRANCH  22  24
HETATM   24  O3  UNL     1      -5.344   2.448   0.536  1.00  0.00    -0.390 OA
ATOM     25  H3  UNL     1      -4.445   2.459   0.227  1.00  0.00     0.210 HD
ENDBRANCH  22  24
BRANCH  22  26
HETATM   26  C22 UNL     1      -7.275   2.933  -0.588  1.00  0.00     0.041 C
BRANCH  26  27
HETATM   27  C23 UNL     1      -7.764   1.846   0.349  1.00  0.00     0.045 C
BRANCH  27  28
HETATM   28  C24 UNL     1      -8.448   0.729  -0.409  1.00  0.00     0.096 C
HETATM   29  C25 UNL     1      -9.838   1.099  -0.850  1.00  0.00     0.051 C
HETATM   30  C26 UNL     1      -7.612   0.225  -1.554  1.00  0.00     0.051 C
HETATM   31  F2  UNL     1      -8.579  -0.331   0.487  1.00  0.00    -0.244 F
ENDBRANCH  27  28
ENDBRANCH  26  27
ENDBRANCH  22  26
ENDBRANCH  17  22
BRANCH   1  32
HETATM   32  C3  UNL     1      -1.995   7.297   7.218  1.00  0.00     0.270 C
HETATM   33  O2  UNL     1      -1.468   6.527   8.061  1.00  0.00    -0.264 OA
BRANCH  32  34
HETATM   34  O1  UNL     1      -3.014   8.105   7.704  1.00  0.00    -0.321 OA
BRANCH  34  35
HETATM   35  C2  UNL     1      -2.733   9.159   8.632  1.00  0.00     0.174 C
HETATM   36  C1  UNL     1      -2.520  10.451   7.871  1.00  0.00     0.034 C
ENDBRANCH  34  35
ENDBRANCH  32  34
ENDBRANCH   1  32
TORSDOF 8
ENDMDL