MODEL 1
REMARK VINA RESULT: -7.779774585      0.000      0.000
REMARK  5 active torsions:
REMARK  status: ('A' for Active; 'I' for Inactive)
REMARK    1  A    between atoms: C3_3  and  C4_4
REMARK    2  A    between atoms: C8_11  and  C9_12
REMARK    3  A    between atoms: N1_18  and  C15_19
REMARK    4  A    between atoms: C15_19  and  C16_20
REMARK    5  A    between atoms: C22_26  and  C23_27
ROOT
HETATM    1  C1  UNL     1      -1.365   5.464  -0.105  1.00  0.00     0.052 C
HETATM    2  C2  UNL     1      -2.401   4.402  -0.078  1.00  0.00    -0.013 A
HETATM    3  C3  UNL     1      -3.601   4.423  -0.821  1.00  0.00     0.031 A
HETATM    4  C8  UNL     1      -4.282   3.255  -0.532  1.00  0.00     0.030 A
HETATM    5  N1  UNL     1      -3.541   2.518   0.352  1.00  0.00    -0.339 N
HETATM    6  C22 UNL     1      -2.390   3.242   0.620  1.00  0.00     0.119 A
ENDROOT
BRANCH   3   7
HETATM    7  C4  UNL     1      -3.891   5.551  -1.685  1.00  0.00     0.111 A
HETATM    8  O1  UNL     1      -4.372   6.743  -1.343  1.00  0.00    -0.301 OA
HETATM    9  C5  UNL     1      -4.514   7.509  -2.369  1.00  0.00     0.124 A
HETATM   10 BR1  UNL     1      -5.166   9.317  -2.421  1.00  0.00    -0.023 Br
HETATM   11  C6  UNL     1      -4.117   6.827  -3.489  1.00  0.00     0.072 A
HETATM   12  C7  UNL     1      -3.721   5.578  -3.046  1.00  0.00     0.072 A
HETATM   13 CL1  UNL     1      -3.117   4.329  -4.110  1.00  0.00    -0.081 Cl
ENDBRANCH   3   7
BRANCH   4  14
HETATM   14  C9  UNL     1      -5.569   2.858  -1.121  1.00  0.00     0.037 C
HETATM   15  C10 UNL     1      -5.466   1.682  -2.027  1.00  0.00     0.011 C
HETATM   16  C11 UNL     1      -6.765   0.966  -2.361  1.00  0.00     0.001 C
HETATM   17  C12 UNL     1      -7.710   0.860  -1.205  1.00  0.00     0.000 C
HETATM   18  C13 UNL     1      -8.010   2.313  -0.879  1.00  0.00     0.001 C
HETATM   19  C14 UNL     1      -6.709   2.779  -0.155  1.00  0.00     0.011 C
ENDBRANCH   4  14
BRANCH   6  20
HETATM   20  C23 UNL     1      -1.281   2.907   1.511  1.00  0.00     0.227 C
HETATM   21  O2  UNL     1      -1.396   3.226   2.776  1.00  0.00    -0.643 OA
HETATM   22  O3  UNL     1      -0.099   2.298   1.247  1.00  0.00    -0.643 OA
ENDBRANCH   6  20
BRANCH   5  23
HETATM   23  C15 UNL     1      -3.696   1.235   0.937  1.00  0.00     0.168 C
BRANCH  23  24
HETATM   24  C16 UNL     1      -3.289   0.102   0.027  1.00  0.00    -0.040 A
HETATM   25  C17 UNL     1      -2.325   0.221  -0.913  1.00  0.00     0.009 A
HETATM   26  C18 UNL     1      -1.969  -0.859  -1.685  1.00  0.00     0.001 A
HETATM   27  C19 UNL     1      -2.611  -2.064  -1.480  1.00  0.00     0.000 A
HETATM   28  C20 UNL     1      -3.606  -2.213  -0.521  1.00  0.00     0.001 A
HETATM   29  C21 UNL     1      -3.923  -1.094   0.223  1.00  0.00     0.009 A
ENDBRANCH  23  24
ENDBRANCH   5  23
TORSDOF 5
ENDMDL