MODEL 4
REMARK VINA RESULT: -8.118218339      2.849      6.435
REMARK  8 active torsions:
REMARK  status: ('A' for Active; 'I' for Inactive)
REMARK    1  A    between atoms: C6_7  and  C7_8
REMARK    2  A    between atoms: C7_8  and  O2_10
REMARK    3  A    between atoms: O2_10  and  C8_11
REMARK    4  A    between atoms: C11_14  and  O3_15
REMARK    5  A    between atoms: O3_15  and  C12_16
REMARK    6  A    between atoms: C12_16  and  N2_25
REMARK    7  A    between atoms: N1_17  and  C13_19
REMARK    8  A    between atoms: N2_25  and  C19_27
ROOT
HETATM    1  C8  UNL     1      -1.567   3.999  -2.354  1.00  0.00     0.132 C
HETATM    2  C9  UNL     1      -2.816   3.414  -2.917  1.00  0.00     0.035 C
HETATM    3  C10 UNL     1      -3.844   4.413  -3.144  1.00  0.00     0.035 C
HETATM    4  C11 UNL     1      -4.007   5.591  -2.245  1.00  0.00     0.132 C
HETATM    5  C25 UNL     1      -2.729   5.914  -1.490  1.00  0.00     0.035 C
HETATM    6  C26 UNL     1      -1.972   4.669  -1.054  1.00  0.00     0.035 C
ENDROOT
BRANCH   4   7
HETATM    7  O3  UNL     1      -5.058   5.414  -1.346  1.00  0.00    -0.317 OA
BRANCH   7   8
HETATM    8  C12 UNL     1      -5.186   4.677  -0.235  1.00  0.00     0.220 C
HETATM    9  N1  UNL     1      -5.702   5.457   0.738  1.00  0.00    -0.352 N
ATOM     10  H1  UNL     1      -5.851   5.021   1.648  1.00  0.00     0.163 HD
BRANCH   9  11
HETATM   11  C13 UNL     1      -6.056   6.821   0.616  1.00  0.00     0.085 C
HETATM   12  C14 UNL     1      -4.952   7.617   1.308  1.00  0.00     0.025 C
HETATM   13  C15 UNL     1      -4.775   6.937   2.654  1.00  0.00     0.002 C
HETATM   14  C16 UNL     1      -6.072   6.904   3.403  1.00  0.00     0.000 C
HETATM   15  C17 UNL     1      -7.232   7.524   2.704  1.00  0.00     0.002 C
HETATM   16  C18 UNL     1      -7.396   7.140   1.262  1.00  0.00     0.025 C
ENDBRANCH   9  11
BRANCH   8  17
HETATM   17  N2  UNL     1      -4.939   3.351   0.186  1.00  0.00    -0.322 N
ATOM     18  H2  UNL     1      -4.133   3.081   0.749  1.00  0.00     0.169 HD
BRANCH  17  19
HETATM   19  C19 UNL     1      -5.953   2.413  -0.264  1.00  0.00     0.035 A
HETATM   20  C20 UNL     1      -6.943   2.013   0.630  1.00  0.00     0.029 A
HETATM   21  C21 UNL     1      -7.943   1.158   0.232  1.00  0.00     0.002 A
HETATM   22  C22 UNL     1      -7.972   0.697  -1.051  1.00  0.00     0.000 A
HETATM   23  C23 UNL     1      -7.001   1.075  -1.979  1.00  0.00     0.002 A
HETATM   24  C24 UNL     1      -6.016   1.930  -1.540  1.00  0.00     0.029 A
ENDBRANCH  17  19
ENDBRANCH   8  17
ENDBRANCH   7   8
ENDBRANCH   4   7
BRANCH   1  25
HETATM   25  O2  UNL     1      -0.482   3.113  -2.247  1.00  0.00    -0.312 OA
BRANCH  25  26
HETATM   26  C7  UNL     1      -0.348   2.191  -1.222  1.00  0.00     0.295 C
HETATM   27  O1  UNL     1       0.521   2.452  -0.323  1.00  0.00    -0.259 OA
BRANCH  26  28
HETATM   28  C6  UNL     1      -1.164   1.001  -1.202  1.00  0.00     0.061 A
HETATM   29  C5  UNL     1      -0.920  -0.025  -2.082  1.00  0.00     0.021 A
HETATM   30  C4  UNL     1      -1.652  -1.198  -2.140  1.00  0.00     0.025 A
HETATM   31  C3  UNL     1      -2.691  -1.358  -1.270  1.00  0.00     0.041 A
HETATM   32  C2  UNL     1      -2.978  -0.338  -0.354  1.00  0.00    -0.018 A
HETATM   33 CL1  UNL     1      -3.641  -2.828  -1.318  1.00  0.00    -0.084 Cl
HETATM   34  C1  UNL     1      -4.112  -0.575   0.562  1.00  0.00     0.052 C
HETATM   35  C27 UNL     1      -2.222   0.803  -0.338  1.00  0.00     0.058 A
HETATM   36 CL2  UNL     1      -2.644   2.039   0.836  1.00  0.00    -0.083 Cl
ENDBRANCH  26  28
ENDBRANCH  25  26
ENDBRANCH   1  25
TORSDOF 8
ENDMDL