MODEL 3
REMARK VINA RESULT: -7.167547235      4.378      5.763
REMARK  5 active torsions:
REMARK  status: ('A' for Active; 'I' for Inactive)
REMARK    1  A    between atoms: C1_2  and  C2_4
REMARK       I    between atoms: N1_7  and  C5_8
REMARK    2  A    between atoms: C5_8  and  C6_10
REMARK    3  A    between atoms: C8_12  and  C9_13
REMARK    4  A    between atoms: C15_20  and  S1_21
REMARK    5  A    between atoms: S1_21  and  C16_22
ROOT
HETATM    1  C6  UNL     1      -4.861   6.500   2.454  1.00  0.00     0.054 A
HETATM    2  C7  UNL     1      -3.825   5.695   1.996  1.00  0.00     0.027 A
HETATM    3  C8  UNL     1      -4.002   4.891   0.879  1.00  0.00    -0.034 A
HETATM    4  C15 UNL     1      -5.243   4.923   0.242  1.00  0.00     0.014 A
HETATM    5  C22 UNL     1      -6.286   5.713   0.680  1.00  0.00     0.044 A
HETATM    6  C23 UNL     1      -6.065   6.501   1.800  1.00  0.00     0.051 A
HETATM    7 CL2  UNL     1      -7.385   7.505   2.360  1.00  0.00    -0.083 Cl
ENDROOT
BRANCH   1   8
HETATM    8  C5  UNL     1      -4.709   7.354   3.625  1.00  0.00     0.255 C
HETATM    9  N1  UNL     1      -4.319   8.711   3.570  1.00  0.00    -0.348 N
HETATM   10  C4  UNL     1      -4.198   9.466   4.775  1.00  0.00     0.127 C
HETATM   11  C24 UNL     1      -4.045   9.336   2.297  1.00  0.00     0.127 C
HETATM   12  C3  UNL     1      -3.717  10.872   4.559  1.00  0.00     0.035 C
HETATM   13  C2  UNL     1      -2.677  11.023   3.504  1.00  0.00     0.090 C
HETATM   14  C25 UNL     1      -2.715  10.020   2.403  1.00  0.00     0.035 C
HETATM   15  O3  UNL     1      -4.952   6.800   4.749  1.00  0.00    -0.267 OA
BRANCH  13  16
HETATM   16  C1  UNL     1      -2.854  12.391   2.899  1.00  0.00     0.177 C
HETATM   17  O1  UNL     1      -1.874  13.077   2.500  1.00  0.00    -0.648 OA
HETATM   18  O2  UNL     1      -4.128  12.935   2.765  1.00  0.00    -0.648 OA
ENDBRANCH  13  16
ENDBRANCH   1   8
BRANCH   3  19
HETATM   19  C9  UNL     1      -2.901   4.009   0.405  1.00  0.00     0.038 C
HETATM   20  C10 UNL     1      -1.625   4.745   0.192  1.00  0.00     0.011 C
HETATM   21  C11 UNL     1      -0.656   4.751   1.307  1.00  0.00     0.001 C
HETATM   22  C12 UNL     1      -0.361   3.273   1.626  1.00  0.00     0.002 C
HETATM   23  C13 UNL     1      -1.645   2.783   2.250  1.00  0.00     0.021 C
HETATM   24  C14 UNL     1      -2.789   2.804   1.294  1.00  0.00     0.090 C
HETATM   25 CL1  UNL     1      -2.754   1.272   0.386  1.00  0.00    -0.124 Cl
ENDBRANCH   3  19
BRANCH   4  26
HETATM   26  S1  UNL     1      -5.465   3.912  -1.208  1.00  0.00    -0.090 SA
BRANCH  26  27
HETATM   27  C16 UNL     1      -6.525   2.534  -0.894  1.00  0.00     0.005 A
HETATM   28  C17 UNL     1      -6.684   1.575  -1.849  1.00  0.00     0.019 A
HETATM   29  C18 UNL     1      -7.510   0.500  -1.604  1.00  0.00     0.001 A
HETATM   30  C19 UNL     1      -8.184   0.370  -0.407  1.00  0.00     0.000 A
HETATM   31  C20 UNL     1      -8.006   1.343   0.531  1.00  0.00     0.001 A
HETATM   32  C21 UNL     1      -7.187   2.436   0.324  1.00  0.00     0.019 A
ENDBRANCH  26  27
ENDBRANCH   4  26
TORSDOF 5
ENDMDL