MODEL 2
REMARK VINA RESULT: -8.160542224      6.299      8.241
REMARK  5 active torsions:
REMARK  status: ('A' for Active; 'I' for Inactive)
REMARK    1  A    between atoms: C2_2  and  C3_3
REMARK    2  A    between atoms: C3_3  and  C4_4
REMARK       I    between atoms: N1_5  and  C5_7
REMARK    3  A    between atoms: C5_7  and  C6_9
REMARK    4  A    between atoms: C8_11  and  C9_12
REMARK    5  A    between atoms: C17_22  and  C18_23
ROOT
HETATM    1  C6  UNL     1      -4.737   2.647  -0.787  1.00  0.00     0.034 A
HETATM    2  C7  UNL     1      -4.340   3.287  -1.935  1.00  0.00     0.032 A
HETATM    3  C8  UNL     1      -3.812   4.593  -1.947  1.00  0.00     0.006 A
HETATM    4  C15 UNL     1      -3.701   5.231  -0.731  1.00  0.00     0.100 A
HETATM    5  O2  UNL     1      -3.227   6.439  -0.647  1.00  0.00    -0.273 OA
HETATM    6  C16 UNL     1      -3.084   7.126   0.452  1.00  0.00     0.300 A
HETATM    7  O3  UNL     1      -2.601   8.313   0.392  1.00  0.00    -0.259 OA
HETATM    8  C17 UNL     1      -3.459   6.549   1.629  1.00  0.00     0.067 A
HETATM    9  C26 UNL     1      -3.971   5.274   1.628  1.00  0.00     0.034 A
HETATM   10  C27 UNL     1      -4.104   4.585   0.453  1.00  0.00     0.001 A
HETATM   11  C28 UNL     1      -4.611   3.313   0.397  1.00  0.00     0.031 A
ENDROOT
BRANCH   8  12
HETATM   12  C18 UNL     1      -3.336   7.241   2.904  1.00  0.00     0.050 A
HETATM   13  C19 UNL     1      -3.335   6.752   4.185  1.00  0.00     0.044 A
HETATM   14  C20 UNL     1      -3.189   7.795   5.110  1.00  0.00    -0.005 A
HETATM   15  C21 UNL     1      -3.131   7.827   6.488  1.00  0.00     0.040 A
HETATM   16  C25 UNL     1      -3.102   8.930   4.343  1.00  0.00     0.046 A
HETATM   17  C22 UNL     1      -2.981   9.013   7.169  1.00  0.00     0.073 A
HETATM   18 CL1  UNL     1      -2.902   9.107   8.913  1.00  0.00    -0.081 Cl
HETATM   19  C23 UNL     1      -2.894  10.151   6.390  1.00  0.00     0.140 A
HETATM   20  F1  UNL     1      -2.744  11.334   7.047  1.00  0.00    -0.204 F
HETATM   21  C24 UNL     1      -2.949  10.140   5.016  1.00  0.00     0.074 A
HETATM   22  N2  UNL     1      -3.190   8.593   3.048  1.00  0.00    -0.355 N
ATOM     23  H2  UNL     1      -3.153   9.256   2.274  1.00  0.00     0.166 HD
ENDBRANCH   8  12
BRANCH   3  24
HETATM   24  C9  UNL     1      -3.464   5.199  -3.214  1.00  0.00    -0.049 C
HETATM   25  C10 UNL     1      -2.376   4.969  -3.912  1.00  0.00    -0.019 C
HETATM   26  C11 UNL     1      -2.110   5.653  -5.218  1.00  0.00     0.028 C
HETATM   27  C12 UNL     1      -2.321   7.137  -5.019  1.00  0.00     0.004 C
HETATM   28  C13 UNL     1      -3.474   7.439  -4.126  1.00  0.00     0.005 C
HETATM   29  C14 UNL     1      -4.365   6.230  -3.855  1.00  0.00     0.039 C
ENDBRANCH   3  24
BRANCH   1  30
HETATM   30  C5  UNL     1      -5.277   1.286  -0.858  1.00  0.00     0.255 C
HETATM   31  N1  UNL     1      -4.980   0.334   0.150  1.00  0.00    -0.337 N
HETATM   32  C4  UNL     1      -3.971  -0.467   0.080  1.00  0.00     0.064 C
ATOM     33  H1  UNL     1      -5.590   0.280   0.966  1.00  0.00     0.168 HD
HETATM   34  O1  UNL     1      -6.012   0.929  -1.806  1.00  0.00    -0.267 OA
BRANCH  32  35
HETATM   35  C3  UNL     1      -3.078  -0.396  -1.103  1.00  0.00     0.044 C
BRANCH  35  36
HETATM   36  C2  UNL     1      -2.471  -1.781  -1.324  1.00  0.00     0.001 C
HETATM   37  C1  UNL     1      -3.490  -2.804  -0.873  1.00  0.00     0.005 C
ENDBRANCH  35  36
ENDBRANCH  32  35
ENDBRANCH   1  30
TORSDOF 5
ENDMDL