MODEL 1
REMARK VINA RESULT: -7.655083540      0.000      0.000
REMARK  6 active torsions:
REMARK  status: ('A' for Active; 'I' for Inactive)
REMARK    1  A    between atoms: C5_7  and  C6_8
REMARK    2  A    between atoms: C9_11  and  N2_12
REMARK    3  A    between atoms: N2_12  and  C10_14
REMARK    4  A    between atoms: C13_17  and  C14_18
REMARK    5  A    between atoms: C14_18  and  N3_19
REMARK    6  A    between atoms: C17_22  and  C18_23
ROOT
HETATM    1  C10 UNL     1      -2.661   6.402   0.604  1.00  0.00     0.035 A
HETATM    2  C11 UNL     1      -1.959   6.480  -0.584  1.00  0.00     0.030 A
HETATM    3  C12 UNL     1      -1.194   5.386  -0.987  1.00  0.00     0.017 A
HETATM    4  C13 UNL     1      -1.086   4.225  -0.284  1.00  0.00     0.001 A
HETATM    5  C28 UNL     1      -1.806   4.158   0.929  1.00  0.00     0.047 A
HETATM    6 CL1  UNL     1      -1.719   2.694   1.909  1.00  0.00    -0.083 Cl
HETATM    7  C29 UNL     1      -2.551   5.217   1.327  1.00  0.00     0.054 A
ENDROOT
BRANCH   1   8
HETATM    8  N2  UNL     1      -3.477   7.411   1.103  1.00  0.00    -0.342 N
ATOM      9  H2  UNL     1      -3.597   8.245   0.529  1.00  0.00     0.167 HD
BRANCH   8  10
HETATM   10  C9  UNL     1      -4.089   7.376   2.224  1.00  0.00     0.115 A
HETATM   11  C5  UNL     1      -5.460   7.317   2.255  1.00  0.00     0.012 A
HETATM   12  C3  UNL     1      -6.103   7.273   3.511  1.00  0.00     0.017 A
HETATM   13  N1  UNL     1      -5.334   7.289   4.605  1.00  0.00    -0.349 N
HETATM   14  C4  UNL     1      -7.583   7.236   3.568  1.00  0.00     0.069 C
HETATM   15  C2  UNL     1      -3.994   7.348   4.598  1.00  0.00     0.078 A
ATOM     16  H1  UNL     1      -5.801   7.256   5.511  1.00  0.00     0.167 HD
HETATM   17  C1  UNL     1      -3.213   7.367   5.882  1.00  0.00     0.089 C
HETATM   18  N4  UNL     1      -3.403   7.389   3.398  1.00  0.00    -0.332 N
ATOM     19  H4  UNL     1      -2.384   7.433   3.362  1.00  0.00     0.168 HD
BRANCH  11  20
HETATM   20  C6  UNL     1      -6.330   7.251   1.090  1.00  0.00     0.016 C
HETATM   21  C7  UNL     1      -5.837   7.876  -0.182  1.00  0.00     0.015 C
HETATM   22  C8  UNL     1      -6.613   5.772   0.703  1.00  0.00     0.015 C
ENDBRANCH  11  20
ENDBRANCH   8  10
ENDBRANCH   1   8
BRANCH   4  23
HETATM   23  C14 UNL     1      -0.328   3.017  -0.671  1.00  0.00     0.103 C
BRANCH  23  24
HETATM   24  N3  UNL     1      -0.954   2.141  -1.528  1.00  0.00    -0.369 N
HETATM   25  C15 UNL     1      -0.996   0.763  -1.400  1.00  0.00     0.064 C
HETATM   26  C16 UNL     1      -2.417   0.234  -1.511  1.00  0.00     0.049 C
HETATM   27  C17 UNL     1      -3.427   1.282  -1.819  1.00  0.00    -0.004 C
HETATM   28  C26 UNL     1      -2.970   2.192  -2.887  1.00  0.00     0.025 C
HETATM   29  C27 UNL     1      -1.518   2.603  -2.747  1.00  0.00     0.128 C
BRANCH  27  30
HETATM   30  C18 UNL     1      -4.047   1.882  -0.599  1.00  0.00    -0.010 C
HETATM   31  C19 UNL     1      -4.855   3.104  -0.799  1.00  0.00     0.005 C
HETATM   32  C20 UNL     1      -6.045   3.055  -1.682  1.00  0.00     0.000 C
HETATM   33  C21 UNL     1      -7.338   2.818  -0.932  1.00  0.00     0.000 C
HETATM   34  C22 UNL     1      -7.613   1.397  -0.597  1.00  0.00     0.000 C
HETATM   35  C23 UNL     1      -6.840   0.375  -1.322  1.00  0.00     0.000 C
HETATM   36  C24 UNL     1      -5.647  -0.104  -0.557  1.00  0.00     0.000 C
HETATM   37  C25 UNL     1      -4.860   0.884   0.197  1.00  0.00     0.005 C
ENDBRANCH  27  30
ENDBRANCH  23  24
ENDBRANCH   4  23
TORSDOF 6
ENDMDL