MODEL 5
REMARK VINA RESULT: -8.002648637      1.299      1.772
REMARK  6 active torsions:
REMARK  status: ('A' for Active; 'I' for Inactive)
REMARK    1  A    between atoms: O1_1  and  C1_3
REMARK    2  A    between atoms: C1_3  and  C2_4
REMARK    3  A    between atoms: C5_7  and  C6_8
REMARK    4  A    between atoms: N1_20  and  C15_21
REMARK    5  A    between atoms: C15_21  and  C16_22
REMARK    6  A    between atoms: C16_22  and  C17_23
ROOT
HETATM    1  C1  UNL     1      -3.776   7.001   2.760  1.00  0.00     0.096 C
HETATM    2  C12 UNL     1      -5.171   6.675   2.385  1.00  0.00     0.049 C
HETATM    3  C13 UNL     1      -5.708   7.458   1.234  1.00  0.00     0.048 C
HETATM    4  C14 UNL     1      -5.064   7.190  -0.089  1.00  0.00     0.063 C
HETATM    5  N1  UNL     1      -3.797   6.629  -0.114  1.00  0.00    -0.374 N
HETATM    6  C27 UNL     1      -2.737   7.256   0.568  1.00  0.00     0.066 C
HETATM    7  C28 UNL     1      -3.119   7.989   1.806  1.00  0.00     0.088 C
ENDROOT
BRANCH   1   8
HETATM    8  O1  UNL     1      -3.016   5.833   2.708  1.00  0.00    -0.384 OA
ATOM      9  H1  UNL     1      -3.150   5.474   1.838  1.00  0.00     0.211 HD
ENDBRANCH   1   8
BRANCH   1  10
HETATM   10  C2  UNL     1      -3.613   7.536   4.158  1.00  0.00     0.018 A
HETATM   11  C3  UNL     1      -4.018   8.753   4.641  1.00  0.00     0.019 A
HETATM   12  C4  UNL     1      -3.722   9.035   5.922  1.00  0.00     0.021 A
HETATM   13  C5  UNL     1      -3.042   8.078   6.629  1.00  0.00     0.015 A
HETATM   14  S1  UNL     1      -2.840   6.827   5.498  1.00  0.00    -0.091 SA
BRANCH  13  15
HETATM   15  C6  UNL     1      -2.565   8.139   8.025  1.00  0.00    -0.017 A
HETATM   16  C7  UNL     1      -1.628   7.231   8.457  1.00  0.00     0.014 A
HETATM   17  C8  UNL     1      -1.125   7.283   9.755  1.00  0.00     0.026 A
HETATM   18  C9  UNL     1      -1.554   8.250  10.647  1.00  0.00     0.055 A
HETATM   19 CL1  UNL     1      -0.924   8.349  12.288  1.00  0.00    -0.083 Cl
HETATM   20  C10 UNL     1      -2.502   9.153  10.188  1.00  0.00     0.056 A
HETATM   21 CL2  UNL     1      -3.060  10.376  11.318  1.00  0.00    -0.083 Cl
HETATM   22  C11 UNL     1      -3.000   9.095   8.891  1.00  0.00     0.038 A
ENDBRANCH  13  15
ENDBRANCH   1  10
BRANCH   5  23
HETATM   23  C15 UNL     1      -3.609   5.274  -0.489  1.00  0.00     0.128 C
BRANCH  23  24
HETATM   24  C16 UNL     1      -4.718   4.863  -1.423  1.00  0.00     0.029 C
BRANCH  24  25
HETATM   25  C17 UNL     1      -5.432   3.601  -0.894  1.00  0.00    -0.038 C
HETATM   26  C18 UNL     1      -5.226   2.540  -1.826  1.00  0.00     0.014 C
HETATM   27  C19 UNL     1      -5.808   1.207  -1.807  1.00  0.00    -0.013 C
HETATM   28  C20 UNL     1      -7.229   0.977  -1.539  1.00  0.00     0.009 C
HETATM   29  C22 UNL     1      -5.529   0.341  -0.623  1.00  0.00     0.009 C
HETATM   30  C21 UNL     1      -6.864   0.739  -0.117  1.00  0.00    -0.013 C
HETATM   31  C23 UNL     1      -6.992   1.781   0.860  1.00  0.00     0.009 C
HETATM   32  C24 UNL     1      -6.528   3.133   0.784  1.00  0.00    -0.013 C
HETATM   33  C25 UNL     1      -5.076   3.403   0.542  1.00  0.00     0.014 C
HETATM   34  C26 UNL     1      -6.791   3.971  -0.401  1.00  0.00     0.014 C
ENDBRANCH  24  25
ENDBRANCH  23  24
ENDBRANCH   5  23
TORSDOF 6
ENDMDL