MODEL 5
REMARK VINA RESULT: -8.239868333      3.780      7.608
REMARK  5 active torsions:
REMARK  status: ('A' for Active; 'I' for Inactive)
REMARK       I    between atoms: C1_2  and  N1_3
REMARK    1  A    between atoms: C1_2  and  C8_13
REMARK    2  A    between atoms: N1_3  and  C2_5
REMARK    3  A    between atoms: C10_15  and  N2_16
REMARK    4  A    between atoms: C21_27  and  C22_28
REMARK    5  A    between atoms: C22_28  and  C23_30
ROOT
HETATM    1  C8  UNL     1      -4.150   4.700   1.047  1.00  0.00     0.048 A
HETATM    2  C9  UNL     1      -3.690   5.557   2.068  1.00  0.00     0.047 A
HETATM    3  C10 UNL     1      -4.461   6.544   2.601  1.00  0.00     0.031 A
HETATM    4  C19 UNL     1      -5.747   6.636   2.057  1.00  0.00     0.030 A
HETATM    5  C20 UNL     1      -6.225   5.828   1.072  1.00  0.00     0.018 A
HETATM    6  C21 UNL     1      -5.408   4.828   0.540  1.00  0.00     0.026 A
ENDROOT
BRANCH   1   7
HETATM    7  C1  UNL     1      -3.208   3.599   0.722  1.00  0.00     0.257 C
HETATM    8  O1  UNL     1      -2.690   3.008   1.683  1.00  0.00    -0.267 OA
HETATM    9  N1  UNL     1      -2.941   3.252  -0.598  1.00  0.00    -0.323 N
ATOM     10  H1  UNL     1      -3.417   3.802  -1.312  1.00  0.00     0.169 HD
BRANCH   9  11
HETATM   11  C2  UNL     1      -2.090   2.228  -1.067  1.00  0.00     0.036 A
HETATM   12  C3  UNL     1      -0.822   2.448  -1.546  1.00  0.00     0.031 A
HETATM   13  C4  UNL     1      -0.017   1.421  -2.035  1.00  0.00     0.028 A
HETATM   14  C5  UNL     1      -0.472   0.127  -2.055  1.00  0.00     0.055 A
HETATM   15 CL1  UNL     1       0.522  -1.190  -2.668  1.00  0.00    -0.083 Cl
HETATM   16  C6  UNL     1      -1.738  -0.104  -1.578  1.00  0.00     0.058 A
HETATM   17 CL2  UNL     1      -2.362  -1.762  -1.593  1.00  0.00    -0.082 Cl
HETATM   18  C7  UNL     1      -2.528   0.900  -1.098  1.00  0.00     0.055 A
ENDBRANCH   9  11
ENDBRANCH   1   7
BRANCH   6  19
HETATM   19  C22 UNL     1      -5.859   4.043  -0.599  1.00  0.00     0.164 C
HETATM   20  O2  UNL     1      -5.414   4.404  -1.749  1.00  0.00    -0.292 OA
BRANCH  19  21
HETATM   21  C23 UNL     1      -6.750   2.903  -0.638  1.00  0.00     0.060 C
HETATM   22  C24 UNL     1      -6.664   2.091   0.627  1.00  0.00     0.012 C
HETATM   23  C25 UNL     1      -8.035   1.388   0.727  1.00  0.00     0.001 C
HETATM   24  C26 UNL     1      -8.158   0.536  -0.497  1.00  0.00     0.000 C
HETATM   25  C27 UNL     1      -6.989   0.601  -1.439  1.00  0.00     0.001 C
HETATM   26  C28 UNL     1      -6.688   2.037  -1.869  1.00  0.00     0.012 C
ENDBRANCH  19  21
ENDBRANCH   6  19
BRANCH   3  27
HETATM   27  N2  UNL     1      -4.036   7.451   3.597  1.00  0.00    -0.371 N
HETATM   28  C11 UNL     1      -4.209   7.149   5.033  1.00  0.00     0.124 C
HETATM   29  C12 UNL     1      -3.137   7.946   5.728  1.00  0.00     0.022 C
HETATM   30  C13 UNL     1      -2.373   8.627   4.615  1.00  0.00     0.033 C
HETATM   31  C14 UNL     1      -3.449   8.725   3.536  1.00  0.00     0.033 C
HETATM   32  C15 UNL     1      -2.924   9.222   2.240  1.00  0.00     0.031 C
HETATM   33  C18 UNL     1      -4.495   9.745   3.978  1.00  0.00     0.031 C
HETATM   34  C16 UNL     1      -2.964  10.743   2.406  1.00  0.00     0.002 C
HETATM   35  C17 UNL     1      -4.243  10.970   3.176  1.00  0.00     0.002 C
ENDBRANCH   3  27
TORSDOF 5
ENDMDL