MODEL 3
REMARK VINA RESULT: -6.919792501      3.755      5.490
REMARK  8 active torsions:
REMARK  status: ('A' for Active; 'I' for Inactive)
REMARK    1  A    between atoms: C2_2  and  C3_3
REMARK    2  A    between atoms: C3_3  and  O1_4
REMARK    3  A    between atoms: C3_3  and  N1_6
REMARK    4  A    between atoms: C14_18  and  C15_19
REMARK       I    between atoms: C15_19  and  N2_21
REMARK    5  A    between atoms: C19_26  and  C20_27
REMARK       I    between atoms: C20_27  and  N3_29
REMARK    6  A    between atoms: C24_33  and  C25_34
REMARK       I    between atoms: C25_34  and  N4_36
REMARK    7  A    between atoms: N4_36  and  C26_38
REMARK    8  A    between atoms: C26_38  and  C27_39
ROOT
HETATM    1  C15 UNL     1      -9.629 -11.407   0.328  1.00  0.00     0.244 C
HETATM    2  O2  UNL     1      -9.256 -12.595  -0.003  1.00  0.00    -0.271 OA
HETATM    3  N2  UNL     1      -8.509 -10.534   0.362  1.00  0.00    -0.334 N
HETATM    4  C16 UNL     1      -8.601  -9.096   0.532  1.00  0.00     0.130 C
HETATM    5  C17 UNL     1      -7.508  -8.615  -0.463  1.00  0.00     0.060 C
HETATM    6  C18 UNL     1      -6.395  -9.525   0.086  1.00  0.00     0.203 C
HETATM    7  F2  UNL     1      -6.020  -8.892   1.273  1.00  0.00    -0.247 F
HETATM    8  C19 UNL     1      -7.068 -10.822   0.298  1.00  0.00     0.213 C
ENDROOT
BRANCH   1   9
HETATM    9  C14 UNL     1     -11.035 -11.075   0.623  1.00  0.00     0.190 C
HETATM   10  N1  UNL     1     -12.015 -11.726  -0.220  1.00  0.00    -0.350 N
HETATM   11  C4  UNL     1     -11.893 -13.223  -0.088  1.00  0.00     0.125 C
HETATM   12  C5  UNL     1     -12.448 -13.523   1.291  1.00  0.00     0.021 C
HETATM   13  C6  UNL     1     -12.730 -12.198   2.004  1.00  0.00     0.017 C
HETATM   14  C7  UNL     1     -11.465 -11.320   2.052  1.00  0.00     0.025 C
HETATM   15  C8  UNL     1     -10.525 -12.036   2.941  1.00  0.00     0.015 C
HETATM   16  C12 UNL     1     -11.872 -10.035   2.724  1.00  0.00     0.110 C
HETATM   17  C9  UNL     1     -11.124 -12.270   4.323  1.00  0.00     0.001 C
HETATM   18  C10 UNL     1     -11.675 -11.053   4.961  1.00  0.00     0.003 C
HETATM   19  C11 UNL     1     -12.500 -10.200   4.067  1.00  0.00     0.044 C
HETATM   20  C13 UNL     1     -10.733  -9.050   2.861  1.00  0.00     0.053 C
HETATM   21  F1  UNL     1     -12.824  -9.405   1.912  1.00  0.00    -0.242 F
BRANCH  10  22
HETATM   22  C3  UNL     1     -12.994 -11.290  -1.081  1.00  0.00     0.122 C
BRANCH  22  23
HETATM   23  C2  UNL     1     -14.450 -11.320  -1.101  1.00  0.00     0.021 A
HETATM   24  C1  UNL     1     -15.005 -12.128  -2.318  1.00  0.00     0.024 C
HETATM   25  C30 UNL     1     -15.073  -9.917  -1.020  1.00  0.00     0.018 A
HETATM   26  C31 UNL     1     -15.410 -11.038  -0.064  1.00  0.00     0.018 A
ENDBRANCH  22  23
BRANCH  22  27
HETATM   27  O1  UNL     1     -12.533 -10.694  -2.158  1.00  0.00    -0.349 OA
ATOM     28  H1  UNL     1     -12.313  -9.790  -1.968  1.00  0.00     0.219 HD
ENDBRANCH  22  27
ENDBRANCH  10  22
ENDBRANCH   1   9
BRANCH   8  29
HETATM   29  C20 UNL     1      -6.621 -11.592   1.471  1.00  0.00     0.246 C
HETATM   30  O3  UNL     1      -6.800 -10.969   2.597  1.00  0.00    -0.271 OA
HETATM   31  N3  UNL     1      -6.051 -12.847   1.579  1.00  0.00    -0.337 N
HETATM   32  C21 UNL     1      -5.712 -13.455   2.912  1.00  0.00     0.127 C
HETATM   33  C24 UNL     1      -5.577 -13.881   0.694  1.00  0.00     0.179 C
HETATM   34  C22 UNL     1      -4.241 -13.789   2.662  1.00  0.00     0.022 C
HETATM   35  C23 UNL     1      -4.114 -14.010   1.175  1.00  0.00     0.037 C
BRANCH  33  36
HETATM   36  C25 UNL     1      -6.235 -15.186   0.799  1.00  0.00     0.240 C
HETATM   37  O4  UNL     1      -7.510 -15.135   0.984  1.00  0.00    -0.271 OA
HETATM   38  N4  UNL     1      -5.634 -16.454   0.725  1.00  0.00    -0.359 N
ATOM     39  H4  UNL     1      -4.625 -16.524   0.596  1.00  0.00     0.162 HD
BRANCH  38  40
HETATM   40  C26 UNL     1      -6.438 -17.682   0.832  1.00  0.00     0.127 C
BRANCH  40  41
HETATM   41  C27 UNL     1      -5.690 -18.906   0.402  1.00  0.00     0.003 A
HETATM   42  C28 UNL     1      -4.922 -18.945  -0.851  1.00  0.00     0.007 A
HETATM   43  C29 UNL     1      -6.179 -19.770  -0.720  1.00  0.00     0.007 A
ENDBRANCH  40  41
ENDBRANCH  38  40
ENDBRANCH  33  36
ENDBRANCH   8  29
TORSDOF 8
ENDMDL