MODEL 3
REMARK VINA RESULT: -6.807618798      2.281      3.020
REMARK  9 active torsions:
REMARK  status: ('A' for Active; 'I' for Inactive)
REMARK    1  A    between atoms: C2_2  and  N1_3
REMARK    2  A    between atoms: N1_3  and  C3_4
REMARK    3  A    between atoms: N1_3  and  C5_6
REMARK    4  A    between atoms: C5_6  and  O1_7
REMARK    5  A    between atoms: C5_6  and  C6_9
REMARK       I    between atoms: N2_10  and  C7_11
REMARK    6  A    between atoms: C7_11  and  C8_13
REMARK       I    between atoms: N3_15  and  C10_16
REMARK    7  A    between atoms: C13_20  and  C14_21
REMARK       I    between atoms: C14_21  and  N4_23
REMARK    8  A    between atoms: N4_23  and  C15_25
REMARK    9  A    between atoms: C29_39  and  C31_41
ROOT
HETATM    1  C8  UNL     1      -9.959 -11.384   3.631  1.00  0.00     0.111 C
HETATM    2  C9  UNL     1     -10.763 -12.234   4.526  1.00  0.00     0.141 C
HETATM    3  N3  UNL     1     -11.330 -11.241   5.462  1.00  0.00    -0.351 N
HETATM    4  C10 UNL     1     -12.126 -11.529   6.598  1.00  0.00     0.215 C
HETATM    5  C11 UNL     1     -12.448 -12.927   6.922  1.00  0.00     0.117 C
HETATM    6  O3  UNL     1     -12.581 -10.642   7.357  1.00  0.00    -0.274 OA
HETATM    7  C12 UNL     1     -10.951  -9.900   5.059  1.00  0.00     0.140 C
HETATM    8  C13 UNL     1     -10.804 -10.151   3.543  1.00  0.00     0.110 C
ENDROOT
BRANCH   1   9
HETATM    9  C7  UNL     1      -9.463 -11.922   2.377  1.00  0.00     0.231 C
HETATM   10  N2  UNL     1      -8.187 -11.579   1.855  1.00  0.00    -0.316 N
HETATM   11  C6  UNL     1      -7.333 -10.625   2.456  1.00  0.00     0.079 C
HETATM   12  C25 UNL     1      -7.802 -12.373   0.684  1.00  0.00     0.132 C
HETATM   13  C29 UNL     1      -5.862 -11.044   2.366  1.00  0.00     0.065 C
HETATM   14  C27 UNL     1      -5.713 -12.478   1.956  1.00  0.00     0.003 C
HETATM   15  C30 UNL     1      -5.183 -10.912   3.712  1.00  0.00     0.028 C
HETATM   16  C26 UNL     1      -6.410 -12.878   0.723  1.00  0.00     0.026 C
HETATM   17  C28 UNL     1      -6.125 -13.408   3.085  1.00  0.00     0.011 C
HETATM   18  O2  UNL     1     -10.164 -12.746   1.680  1.00  0.00    -0.273 OA
BRANCH  11  19
HETATM   19  C5  UNL     1      -7.491  -9.190   2.267  1.00  0.00     0.162 C
BRANCH  19  20
HETATM   20  N1  UNL     1      -7.585  -8.309   1.209  1.00  0.00    -0.361 N
BRANCH  20  21
HETATM   21  C2  UNL     1      -6.904  -6.986   1.346  1.00  0.00     0.120 C
HETATM   22  C1  UNL     1      -6.320  -6.589   0.008  1.00  0.00     0.026 C
ENDBRANCH  20  21
BRANCH  20  23
HETATM   23  C3  UNL     1      -8.262  -8.474  -0.029  1.00  0.00     0.120 C
HETATM   24  C4  UNL     1      -9.708  -8.880   0.056  1.00  0.00     0.026 C
ENDBRANCH  20  23
ENDBRANCH  19  20
BRANCH  19  25
HETATM   25  O1  UNL     1      -7.567  -8.523   3.432  1.00  0.00    -0.345 OA
ATOM     26  H1  UNL     1      -8.411  -8.093   3.509  1.00  0.00     0.219 HD
ENDBRANCH  19  25
ENDBRANCH  11  19
BRANCH  13  27
HETATM   27  C31 UNL     1      -5.062 -10.182   1.421  1.00  0.00     0.367 C
HETATM   28  F1  UNL     1      -4.105 -10.870   0.712  1.00  0.00    -0.213 F
HETATM   29  F2  UNL     1      -4.364  -9.204   2.152  1.00  0.00    -0.213 F
ENDBRANCH  13  27
ENDBRANCH   1   9
BRANCH   8  30
HETATM   30  C14 UNL     1     -12.166 -10.332   3.040  1.00  0.00     0.224 C
HETATM   31  O4  UNL     1     -13.241 -10.027   3.615  1.00  0.00    -0.273 OA
HETATM   32  N4  UNL     1     -12.353 -10.926   1.744  1.00  0.00    -0.355 N
ATOM     33  H4  UNL     1     -11.524 -11.194   1.213  1.00  0.00     0.162 HD
BRANCH  32  34
HETATM   34  C15 UNL     1     -13.647 -11.162   1.154  1.00  0.00     0.092 C
HETATM   35  C16 UNL     1     -13.911  -9.942   0.260  1.00  0.00     0.009 C
HETATM   36  C17 UNL     1     -15.301 -10.130  -0.297  1.00  0.00     0.011 C
HETATM   37  C21 UNL     1     -12.930  -9.807  -0.854  1.00  0.00     0.011 C
HETATM   38  C18 UNL     1     -15.352 -11.388  -1.147  1.00  0.00    -0.013 C
HETATM   39  C19 UNL     1     -14.361 -11.240  -2.288  1.00  0.00     0.009 C
HETATM   40  C24 UNL     1     -15.009 -12.562  -0.289  1.00  0.00     0.011 C
HETATM   41  C20 UNL     1     -12.979 -11.067  -1.698  1.00  0.00    -0.013 C
HETATM   42  C22 UNL     1     -12.660 -12.275  -0.850  1.00  0.00     0.011 C
HETATM   43  C23 UNL     1     -13.629 -12.378   0.310  1.00  0.00     0.009 C
ENDBRANCH  32  34
ENDBRANCH   8  30
TORSDOF 9
ENDMDL