MODEL 2
REMARK VINA RESULT: -7.194060248      3.547      5.597
REMARK  6 active torsions:
REMARK  status: ('A' for Active; 'I' for Inactive)
REMARK    1  A    between atoms: N2_7  and  C4_8
REMARK    2  A    between atoms: C4_8  and  C5_9
REMARK       I    between atoms: C5_9  and  N3_11
REMARK    3  A    between atoms: C12_20  and  N4_21
REMARK       I    between atoms: N4_21  and  C13_23
REMARK    4  A    between atoms: C13_23  and  C14_25
REMARK       I    between atoms: N5_29  and  C18_30
REMARK    5  A    between atoms: C18_30  and  C19_32
REMARK    6  A    between atoms: C19_32  and  C20_33
ROOT
HETATM    1  N4  UNL     1     -12.721  -8.478   4.143  1.00  0.00    -0.341 N
ATOM      2  H4  UNL     1     -12.476  -9.020   3.315  1.00  0.00     0.163 HD
HETATM    3  C13 UNL     1     -12.457  -7.108   4.199  1.00  0.00     0.241 C
HETATM    4  O3  UNL     1     -12.763  -6.434   5.212  1.00  0.00    -0.271 OA
ENDROOT
BRANCH   1   5
HETATM    5  C12 UNL     1     -13.349  -9.115   5.280  1.00  0.00     0.222 C
HETATM    6  C1  UNL     1     -12.722 -10.420   5.608  1.00  0.00     0.013 C
HETATM    7  N1  UNL     1     -11.475 -10.668   5.331  1.00  0.00    -0.403 N
HETATM    8  C2  UNL     1     -13.560 -11.454   6.265  1.00  0.00     0.074 C
ATOM      9  H12 UNL     1     -11.045 -11.565   5.557  1.00  0.00     0.155 HD
ATOM     10  H11 UNL     1     -10.899  -9.958   4.879  1.00  0.00     0.155 HD
HETATM   11  C3  UNL     1     -14.744 -10.876   7.012  1.00  0.00     0.132 C
HETATM   12  N2  UNL     1     -15.509  -9.982   6.136  1.00  0.00    -0.341 N
HETATM   13  C11 UNL     1     -14.791  -9.370   5.078  1.00  0.00     0.248 C
HETATM   14  O2  UNL     1     -15.327  -9.042   4.001  1.00  0.00    -0.271 OA
BRANCH  12  15
HETATM   15  C4  UNL     1     -16.917  -9.728   6.328  1.00  0.00     0.228 C
BRANCH  15  16
HETATM   16  C5  UNL     1     -17.103  -8.653   7.334  1.00  0.00     0.237 C
HETATM   17  O1  UNL     1     -16.881  -8.941   8.542  1.00  0.00    -0.272 OA
HETATM   18  N3  UNL     1     -17.512  -7.334   7.018  1.00  0.00    -0.351 N
HETATM   19  C6  UNL     1     -17.678  -6.377   8.073  1.00  0.00     0.127 C
HETATM   20  C10 UNL     1     -17.740  -7.032   5.609  1.00  0.00     0.127 C
HETATM   21  C7  UNL     1     -18.996  -5.641   7.981  1.00  0.00     0.040 C
HETATM   22  C8  UNL     1     -19.514  -5.597   6.562  1.00  0.00     0.085 C
HETATM   23 CL1  UNL     1     -20.597  -6.983   6.305  1.00  0.00    -0.125 Cl
HETATM   24  C9  UNL     1     -18.389  -5.666   5.554  1.00  0.00     0.040 C
ENDBRANCH  15  16
ENDBRANCH  12  15
ENDBRANCH   1   5
BRANCH   3  25
HETATM   25  C14 UNL     1     -11.805  -6.394   3.066  1.00  0.00     0.179 C
HETATM   26  C15 UNL     1     -12.691  -5.174   2.741  1.00  0.00     0.037 C
HETATM   27  C16 UNL     1     -13.832  -5.937   2.043  1.00  0.00     0.022 C
HETATM   28  C17 UNL     1     -13.021  -6.753   1.057  1.00  0.00     0.127 C
HETATM   29  N5  UNL     1     -11.905  -7.205   1.842  1.00  0.00    -0.339 N
HETATM   30  C18 UNL     1     -11.025  -8.266   1.518  1.00  0.00     0.221 C
HETATM   31  O4  UNL     1     -10.101  -8.534   2.329  1.00  0.00    -0.273 OA
BRANCH  30  32
HETATM   32  C19 UNL     1     -11.130  -9.072   0.290  1.00  0.00     0.112 C
BRANCH  32  33
HETATM   33  C20 UNL     1     -11.681 -10.446   0.451  1.00  0.00    -0.031 C
HETATM   34  C21 UNL     1     -12.792 -10.450   1.449  1.00  0.00     0.014 C
HETATM   35  C22 UNL     1     -13.347 -11.859   1.546  1.00  0.00    -0.013 C
HETATM   36  C23 UNL     1     -13.926 -12.232   0.217  1.00  0.00     0.009 C
HETATM   37  C27 UNL     1     -12.291 -12.855   1.951  1.00  0.00     0.009 C
HETATM   38  C24 UNL     1     -12.824 -12.232  -0.821  1.00  0.00    -0.013 C
HETATM   39  C25 UNL     1     -11.752 -13.208  -0.445  1.00  0.00     0.009 C
HETATM   40  C29 UNL     1     -12.248 -10.856  -0.903  1.00  0.00     0.014 C
HETATM   41  C26 UNL     1     -11.195 -12.833   0.911  1.00  0.00    -0.013 C
HETATM   42  C28 UNL     1     -10.638 -11.455   0.824  1.00  0.00     0.014 C
ENDBRANCH  32  33
ENDBRANCH  30  32
ENDBRANCH   3  25
TORSDOF 6
ENDMDL