MODEL 5
REMARK VINA RESULT: -5.674339613      1.279      1.526
REMARK  12 active torsions:
REMARK  status: ('A' for Active; 'I' for Inactive)
REMARK    1  A    between atoms: C2_2  and  C5_5
REMARK    2  A    between atoms: C5_5  and  N1_7
REMARK    3  A    between atoms: C5_5  and  C13_17
REMARK       I    between atoms: N1_7  and  C7_9
REMARK    4  A    between atoms: C7_9  and  O2_11
REMARK    5  A    between atoms: O2_11  and  C8_12
REMARK    6  A    between atoms: C13_17  and  O3_18
REMARK    7  A    between atoms: C13_17  and  N2_20
REMARK    8  A    between atoms: C15_22  and  C16_23
REMARK    9  A    between atoms: C18_26  and  C19_27
REMARK   10  A    between atoms: C19_27  and  O4_28
REMARK   11  A    between atoms: C19_27  and  N3_30
REMARK   12  A    between atoms: C21_34  and  C22_35
ROOT
HETATM    1  C13 UNL     1     -11.203 -10.861   0.644  1.00  0.00     0.143 C
ENDROOT
BRANCH   1   2
HETATM    2  C5  UNL     1     -12.456 -11.559   0.590  1.00  0.00     0.102 C
HETATM    3  C6  UNL     1     -12.265 -13.014   0.114  1.00  0.00     0.048 C
BRANCH   2   4
HETATM    4  C2  UNL     1     -13.604 -10.983  -0.167  1.00  0.00    -0.018 C
HETATM    5  C1  UNL     1     -14.584 -10.150   0.580  1.00  0.00     0.017 C
HETATM    6  C3  UNL     1     -14.504 -12.246  -0.561  1.00  0.00     0.017 C
HETATM    7  C4  UNL     1     -13.317 -10.393  -1.508  1.00  0.00     0.017 C
ENDBRANCH   2   4
BRANCH   2   8
HETATM    8  N1  UNL     1     -12.956 -11.809   1.969  1.00  0.00    -0.320 N
HETATM    9  C7  UNL     1     -12.274 -12.260   3.076  1.00  0.00     0.361 C
HETATM   10  O1  UNL     1     -11.093 -12.583   3.215  1.00  0.00    -0.238 OA
ATOM     11  H1  UNL     1     -13.947 -11.617   2.114  1.00  0.00     0.166 HD
BRANCH   9  12
HETATM   12  O2  UNL     1     -13.017 -12.394   4.293  1.00  0.00    -0.299 OA
BRANCH  12  13
HETATM   13  C8  UNL     1     -12.383 -12.774   5.499  1.00  0.00     0.133 C
HETATM   14  C9  UNL     1     -12.415 -11.557   6.409  1.00  0.00     0.032 C
HETATM   15  C10 UNL     1     -13.024 -12.017   7.709  1.00  0.00     0.002 C
HETATM   16  C11 UNL     1     -14.021 -13.049   7.243  1.00  0.00     0.002 C
HETATM   17  C12 UNL     1     -13.234 -13.811   6.195  1.00  0.00     0.032 C
ENDBRANCH  12  13
ENDBRANCH   9  12
ENDBRANCH   2   8
ENDBRANCH   1   2
BRANCH   1  18
HETATM   18  O3  UNL     1     -10.185 -11.591   0.162  1.00  0.00    -0.347 OA
ATOM     19  H3  UNL     1      -9.515 -11.758   0.814  1.00  0.00     0.219 HD
ENDBRANCH   1  18
BRANCH   1  20
HETATM   20  N2  UNL     1     -10.726  -9.616   1.063  1.00  0.00    -0.351 N
HETATM   21  C14 UNL     1     -10.168  -8.670   0.054  1.00  0.00     0.131 C
HETATM   22  C15 UNL     1      -9.667  -7.481   0.761  1.00  0.00     0.016 C
HETATM   23  C17 UNL     1      -9.608  -7.844   2.202  1.00  0.00     0.040 C
HETATM   24  C18 UNL     1     -10.608  -9.013   2.341  1.00  0.00     0.161 C
BRANCH  22  25
HETATM   25  C16 UNL     1      -8.230  -7.116   0.351  1.00  0.00     0.091 C
HETATM   26 BR1  UNL     1      -7.389  -8.728  -0.312  1.00  0.00    -0.096 Br
ENDBRANCH  22  25
BRANCH  24  27
HETATM   27  C19 UNL     1     -11.735  -8.514   3.075  1.00  0.00     0.144 C
BRANCH  27  28
HETATM   28  O4  UNL     1     -11.691  -8.822   4.353  1.00  0.00    -0.348 OA
ATOM     29  H4  UNL     1     -10.909  -8.500   4.785  1.00  0.00     0.219 HD
ENDBRANCH  27  28
BRANCH  27  30
HETATM   30  N3  UNL     1     -12.896  -7.769   2.776  1.00  0.00    -0.302 N
HETATM   31  C20 UNL     1     -13.273  -7.007   1.559  1.00  0.00     0.256 A
HETATM   32  N4  UNL     1     -14.429  -6.736   2.226  1.00  0.00    -0.362 N
HETATM   33  C21 UNL     1     -14.130  -7.383   3.266  1.00  0.00     0.093 A
ATOM     34  H4  UNL     1     -15.254  -6.194   1.970  1.00  0.00     0.162 HD
BRANCH  33  35
HETATM   35  C22 UNL     1     -14.982  -7.600   4.490  1.00  0.00     0.161 C
HETATM   36 BR2  UNL     1     -15.280  -9.481   4.826  1.00  0.00    -0.088 Br
ENDBRANCH  33  35
ENDBRANCH  27  30
ENDBRANCH  24  27
ENDBRANCH   1  20
TORSDOF 12
ENDMDL