MODEL 5
REMARK VINA RESULT: -6.999674726      1.754      2.244
REMARK  6 active torsions:
REMARK  status: ('A' for Active; 'I' for Inactive)
REMARK    1  A    between atoms: C2_2  and  N1_3
REMARK    2  A    between atoms: C2_2  and  C20_28
REMARK    3  A    between atoms: N1_3  and  C3_6
REMARK       I    between atoms: N2_8  and  C5_9
REMARK    4  A    between atoms: C5_9  and  C6_11
REMARK    5  A    between atoms: C13_19  and  C14_20
REMARK       I    between atoms: C14_20  and  N3_22
REMARK       I    between atoms: C20_28  and  N4_30
REMARK    6  A    between atoms: C24_34  and  C25_35
REMARK       I    between atoms: C25_35  and  N5_37
ROOT
HETATM    1  C3  UNL     1     -11.668  -8.152   0.103  1.00  0.00     0.219 C
HETATM    2  C4  UNL     1     -10.651  -7.237   0.766  1.00  0.00     0.160 C
HETATM    3  N2  UNL     1      -9.548  -8.101   1.105  1.00  0.00    -0.345 N
HETATM    4  C5  UNL     1      -8.178  -7.740   1.040  1.00  0.00     0.256 C
HETATM    5  O1  UNL     1      -7.843  -6.565   0.658  1.00  0.00    -0.267 OA
HETATM    6  C12 UNL     1     -10.153  -9.355   1.500  1.00  0.00     0.142 C
HETATM    7  C13 UNL     1     -11.144  -9.528   0.341  1.00  0.00     0.128 C
ENDROOT
BRANCH   1   8
HETATM    8  N1  UNL     1     -12.994  -7.925   0.657  1.00  0.00    -0.056 N
ATOM      9  H12 UNL     1     -13.522  -8.788   0.795  1.00  0.00     0.278 HD
ATOM     10  H11 UNL     1     -13.632  -7.484  -0.005  1.00  0.00     0.278 HD
BRANCH   8  11
HETATM   11  C2  UNL     1     -12.826  -7.165   1.874  1.00  0.00     0.273 C
HETATM   12  C1  UNL     1     -13.707  -5.940   1.752  1.00  0.00     0.050 C
BRANCH  11  13
HETATM   13  C20 UNL     1     -13.297  -7.956   3.087  1.00  0.00     0.251 C
HETATM   14  O3  UNL     1     -14.281  -8.689   2.818  1.00  0.00    -0.271 OA
HETATM   15  N4  UNL     1     -12.629  -7.793   4.283  1.00  0.00    -0.337 N
HETATM   16  C21 UNL     1     -11.426  -6.926   4.431  1.00  0.00     0.127 C
HETATM   17  C24 UNL     1     -12.749  -8.264   5.617  1.00  0.00     0.179 C
HETATM   18  C22 UNL     1     -10.490  -7.937   5.108  1.00  0.00     0.022 C
HETATM   19  C23 UNL     1     -11.411  -9.000   5.727  1.00  0.00     0.037 C
BRANCH  17  20
HETATM   20  C25 UNL     1     -13.888  -9.007   6.062  1.00  0.00     0.242 C
HETATM   21  O4  UNL     1     -13.869 -10.214   6.400  1.00  0.00    -0.271 OA
HETATM   22  N5  UNL     1     -15.171  -8.391   6.149  1.00  0.00    -0.350 N
HETATM   23  C26 UNL     1     -15.361  -7.023   5.783  1.00  0.00     0.126 C
HETATM   24  C30 UNL     1     -16.297  -9.159   6.631  1.00  0.00     0.126 C
HETATM   25  C27 UNL     1     -16.698  -6.730   5.116  1.00  0.00     0.020 C
HETATM   26  C28 UNL     1     -17.784  -7.336   5.965  1.00  0.00     0.003 C
HETATM   27  C29 UNL     1     -17.568  -8.854   5.879  1.00  0.00     0.020 C
ENDBRANCH  17  20
ENDBRANCH  11  13
ENDBRANCH   8  11
ENDBRANCH   1   8
BRANCH   7  28
HETATM   28  C14 UNL     1     -12.131 -10.573   0.603  1.00  0.00     0.227 C
HETATM   29  O2  UNL     1     -12.156 -11.038   1.792  1.00  0.00    -0.273 OA
HETATM   30  N3  UNL     1     -13.050 -11.103  -0.331  1.00  0.00    -0.352 N
HETATM   31  C15 UNL     1     -13.987 -12.140   0.099  1.00  0.00     0.125 C
HETATM   32  C19 UNL     1     -13.132 -10.707  -1.714  1.00  0.00     0.125 C
HETATM   33  C16 UNL     1     -15.250 -12.020  -0.721  1.00  0.00     0.020 C
HETATM   34  C17 UNL     1     -14.942 -12.401  -2.158  1.00  0.00     0.003 C
HETATM   35  C18 UNL     1     -13.595 -11.871  -2.570  1.00  0.00     0.020 C
ENDBRANCH   7  28
BRANCH   4  36
HETATM   36  C6  UNL     1      -7.067  -8.611   1.380  1.00  0.00     0.070 A
HETATM   37  C7  UNL     1      -6.517  -8.551   2.650  1.00  0.00     0.020 A
HETATM   38  C8  UNL     1      -5.464  -9.376   2.963  1.00  0.00     0.001 A
HETATM   39  C9  UNL     1      -4.971 -10.250   2.011  1.00  0.00     0.003 A
HETATM   40  C10 UNL     1      -5.527 -10.299   0.756  1.00  0.00     0.043 A
HETATM   41  C11 UNL     1      -6.594  -9.477   0.408  1.00  0.00     0.132 A
HETATM   42  F1  UNL     1      -7.169  -9.507  -0.826  1.00  0.00    -0.205 F
ENDBRANCH   4  36
TORSDOF 6
ENDMDL