MODEL 4
REMARK VINA RESULT: -7.211787516      2.901      4.679
REMARK  8 active torsions:
REMARK  status: ('A' for Active; 'I' for Inactive)
REMARK    1  A    between atoms: C2_2  and  N1_4
REMARK    2  A    between atoms: C4_6  and  C5_7
REMARK    3  A    between atoms: C4_6  and  O4_39
REMARK    4  A    between atoms: C5_7  and  N2_8
REMARK       I    between atoms: N2_8  and  C7_10
REMARK    5  A    between atoms: C7_10  and  C8_12
REMARK    6  A    between atoms: C10_14  and  C11_15
REMARK       I    between atoms: C11_15  and  N3_17
REMARK    7  A    between atoms: N3_17  and  C12_19
REMARK       I    between atoms: N4_30  and  C23_31
REMARK       I    between atoms: C23_31  and  N5_33
REMARK    8  A    between atoms: O4_39  and  C27_40
ROOT
HETATM    1  C8  UNL     1     -13.504  -9.800   3.919  1.00  0.00     0.182 C
HETATM    2  C9  UNL     1     -14.256  -9.510   5.228  1.00  0.00     0.051 C
HETATM    3  C10 UNL     1     -14.505  -8.053   5.245  1.00  0.00     0.098 C
HETATM    4  C22 UNL     1     -14.323  -7.629   3.831  1.00  0.00     0.142 C
HETATM    5  N4  UNL     1     -13.262  -8.460   3.352  1.00  0.00    -0.320 N
HETATM    6  C23 UNL     1     -12.212  -8.101   2.493  1.00  0.00     0.321 C
HETATM    7  O3  UNL     1     -11.384  -9.027   2.161  1.00  0.00    -0.247 OA
HETATM    8  N5  UNL     1     -11.963  -6.816   1.946  1.00  0.00    -0.323 N
HETATM    9  C24 UNL     1     -12.543  -5.502   1.971  1.00  0.00     0.208 C
HETATM   10  C25 UNL     1     -11.686  -5.008   0.849  1.00  0.00     0.275 C
HETATM   11  F1  UNL     1     -10.901  -3.907   1.162  1.00  0.00    -0.203 F
HETATM   12  F2  UNL     1     -12.288  -4.848  -0.363  1.00  0.00    -0.203 F
HETATM   13  C26 UNL     1     -10.916  -6.267   1.055  1.00  0.00     0.208 C
ENDROOT
BRANCH   1  14
HETATM   14  C7  UNL     1     -12.242 -10.485   4.246  1.00  0.00     0.242 C
HETATM   15  N2  UNL     1     -11.859 -11.688   3.658  1.00  0.00    -0.347 N
HETATM   16  C6  UNL     1     -10.560 -12.247   4.060  1.00  0.00     0.153 C
HETATM   17  O1  UNL     1     -11.497  -9.931   5.093  1.00  0.00    -0.271 OA
BRANCH  15  18
HETATM   18  C5  UNL     1     -12.652 -12.384   2.695  1.00  0.00     0.209 C
BRANCH  18  19
HETATM   19  C4  UNL     1     -12.371 -12.044   1.262  1.00  0.00     0.132 C
HETATM   20  N1  UNL     1     -13.193 -11.333   0.673  1.00  0.00    -0.369 N
ATOM     21  H1  UNL     1     -13.937 -11.113   1.334  1.00  0.00     0.161 HD
BRANCH  20  22
HETATM   22  C2  UNL     1     -13.504 -10.720  -0.521  1.00  0.00     0.075 C
HETATM   23  C1  UNL     1     -14.913 -10.058  -0.417  1.00  0.00     0.032 C
HETATM   24  C3  UNL     1     -13.623 -11.658  -1.716  1.00  0.00     0.032 C
ENDBRANCH  20  22
BRANCH  19  25
HETATM   25  O4  UNL     1     -11.253 -12.498   0.615  1.00  0.00    -0.333 OA
BRANCH  25  26
HETATM   26  C27 UNL     1     -10.602 -13.724   0.766  1.00  0.00     0.122 C
HETATM   27  C28 UNL     1     -11.086 -14.673  -0.322  1.00  0.00     0.040 C
HETATM   28  C29 UNL     1      -9.085 -13.518   0.584  1.00  0.00     0.040 C
ENDBRANCH  25  26
ENDBRANCH  19  25
ENDBRANCH  18  19
ENDBRANCH  15  18
ENDBRANCH   1  14
BRANCH   3  29
HETATM   29  C11 UNL     1     -15.852  -7.699   5.794  1.00  0.00     0.224 C
HETATM   30  O2  UNL     1     -16.350  -8.514   6.601  1.00  0.00    -0.273 OA
HETATM   31  N3  UNL     1     -16.504  -6.503   5.402  1.00  0.00    -0.351 N
ATOM     32  H3  UNL     1     -16.021  -5.902   4.735  1.00  0.00     0.163 HD
BRANCH  31  33
HETATM   33  C12 UNL     1     -17.779  -6.073   5.867  1.00  0.00     0.034 C
HETATM   34  C13 UNL     1     -18.330  -4.909   5.035  1.00  0.00     0.035 C
HETATM   35  C14 UNL     1     -19.647  -4.458   5.614  1.00  0.00    -0.012 C
HETATM   36  C15 UNL     1     -19.436  -3.915   6.995  1.00  0.00     0.009 C
HETATM   37  C19 UNL     1     -20.669  -5.575   5.656  1.00  0.00     0.009 C
HETATM   38  C16 UNL     1     -18.915  -5.040   7.866  1.00  0.00    -0.012 C
HETATM   39  C17 UNL     1     -19.874  -6.199   7.929  1.00  0.00     0.009 C
HETATM   40  C21 UNL     1     -17.631  -5.516   7.283  1.00  0.00     0.035 C
HETATM   41  C18 UNL     1     -20.086  -6.687   6.517  1.00  0.00    -0.012 C
HETATM   42  C20 UNL     1     -18.826  -7.157   5.857  1.00  0.00     0.035 C
ENDBRANCH  31  33
ENDBRANCH   3  29
TORSDOF 8
ENDMDL