MODEL 1
REMARK VINA RESULT: -8.112141861      0.000      0.000
REMARK  6 active torsions:
REMARK  status: ('A' for Active; 'I' for Inactive)
REMARK    1  A    between atoms: C5_5  and  C6_6
REMARK    2  A    between atoms: C6_6  and  N1_7
REMARK    3  A    between atoms: C9_10  and  N2_11
REMARK       I    between atoms: N2_11  and  C10_13
REMARK    4  A    between atoms: C10_13  and  C11_15
REMARK    5  A    between atoms: N4_27  and  C21_28
REMARK    6  A    between atoms: C21_28  and  C22_29
ROOT
HETATM    1  C11 UNL     1     -10.869 -12.219   3.065  1.00  0.00     0.186 C
HETATM    2  C12 UNL     1     -10.169 -10.887   2.727  1.00  0.00     0.061 C
HETATM    3  C13 UNL     1     -11.177 -10.035   2.044  1.00  0.00     0.012 C
HETATM    4  C14 UNL     1     -10.650  -9.124   0.984  1.00  0.00     0.036 C
HETATM    5  C15 UNL     1      -9.145  -9.107   1.075  1.00  0.00     0.224 C
HETATM    6  C16 UNL     1      -8.520  -8.368  -0.101  1.00  0.00     0.037 C
HETATM    7  C17 UNL     1      -7.187  -9.077  -0.225  1.00  0.00     0.032 C
HETATM    8  C18 UNL     1      -7.273 -10.289   0.681  1.00  0.00     0.274 C
HETATM    9  N3  UNL     1      -8.697 -10.459   0.808  1.00  0.00     0.107 N
HETATM   10  C19 UNL     1      -9.077 -11.396   1.824  1.00  0.00     0.321 C
HETATM   11  C20 UNL     1      -9.767 -12.523   1.129  1.00  0.00     0.255 C
HETATM   12  O2  UNL     1      -9.304 -13.175   0.147  1.00  0.00    -0.271 OA
HETATM   13  N4  UNL     1     -11.056 -12.756   1.760  1.00  0.00    -0.332 N
ENDROOT
BRANCH   1  14
HETATM   14  C10 UNL     1     -12.021 -12.043   3.916  1.00  0.00     0.241 C
HETATM   15  N2  UNL     1     -12.639 -10.771   4.010  1.00  0.00    -0.355 N
ATOM     16  H2  UNL     1     -12.261  -9.992   3.471  1.00  0.00     0.162 HD
HETATM   17  O1  UNL     1     -12.499 -12.976   4.581  1.00  0.00    -0.271 OA
BRANCH  15  18
HETATM   18  C9  UNL     1     -13.789 -10.554   4.849  1.00  0.00     0.087 C
HETATM   19  C8  UNL     1     -14.750  -9.586   4.182  1.00  0.00     0.055 C
HETATM   20  C7  UNL     1     -16.024  -9.458   4.990  1.00  0.00     0.274 C
HETATM   21  N1  UNL     1     -15.745  -9.320   6.408  1.00  0.00     0.088 N
HETATM   22  C29 UNL     1     -14.411  -8.844   6.587  1.00  0.00     0.274 C
HETATM   23  C28 UNL     1     -13.465  -9.991   6.195  1.00  0.00     0.055 C
BRANCH  21  24
HETATM   24  C6  UNL     1     -16.774  -8.575   7.055  1.00  0.00     0.277 C
BRANCH  24  25
HETATM   25  C5  UNL     1     -17.344  -7.463   6.245  1.00  0.00     0.025 C
HETATM   26  C4  UNL     1     -18.823  -7.656   6.091  1.00  0.00     0.008 C
HETATM   27  C3  UNL     1     -19.642  -6.455   6.540  1.00  0.00     0.017 C
HETATM   28  C2  UNL     1     -19.447  -5.373   5.509  1.00  0.00     0.075 C
HETATM   29  C1  UNL     1     -20.252  -4.131   5.769  1.00  0.00     0.024 C
HETATM   30  S1  UNL     1     -17.711  -4.906   5.591  1.00  0.00     0.019 S
HETATM   31  C30 UNL     1     -16.987  -6.085   6.743  1.00  0.00     0.115 C
HETATM   32  O3  UNL     1     -16.998  -5.093   4.080  1.00  0.00    -0.258 OA
ENDBRANCH  24  25
ENDBRANCH  21  24
ENDBRANCH  15  18
ENDBRANCH   1  14
BRANCH  13  33
HETATM   33  C21 UNL     1     -12.111 -13.388   1.043  1.00  0.00     0.165 C
BRANCH  33  34
HETATM   34  C22 UNL     1     -12.884 -12.371   0.246  1.00  0.00    -0.034 A
HETATM   35  C23 UNL     1     -12.433 -12.130  -1.049  1.00  0.00     0.051 A
HETATM   36  C24 UNL     1     -13.083 -11.210  -1.867  1.00  0.00     0.119 A
HETATM   37  F1  UNL     1     -12.633 -10.983  -3.123  1.00  0.00    -0.206 F
HETATM   38  C25 UNL     1     -14.195 -10.518  -1.400  1.00  0.00     0.084 A
HETATM   39  C26 UNL     1     -14.607 -10.784  -0.119  1.00  0.00     0.119 A
HETATM   40  F2  UNL     1     -15.700 -10.102   0.336  1.00  0.00    -0.206 F
HETATM   41  C27 UNL     1     -13.970 -11.698   0.710  1.00  0.00     0.051 A
ENDBRANCH  33  34
ENDBRANCH  13  33
TORSDOF 6
ENDMDL