MODEL 4
REMARK VINA RESULT: -6.651764002      5.418     11.222
REMARK  6 active torsions:
REMARK  status: ('A' for Active; 'I' for Inactive)
REMARK       I    between atoms: C2_2  and  N1_4
REMARK    1  A    between atoms: C5_7  and  C6_8
REMARK    2  A    between atoms: C9_11  and  C10_12
REMARK       I    between atoms: C10_12  and  N2_14
REMARK    3  A    between atoms: N2_14  and  C11_16
REMARK    4  A    between atoms: C11_16  and  C12_17
REMARK       I    between atoms: N3_24  and  C17_25
REMARK    5  A    between atoms: C17_25  and  C18_27
REMARK    6  A    between atoms: C21_30  and  N4_31
ROOT
HETATM    1  C1  UNL     1     -14.180  -6.175   3.249  1.00  0.00     0.119 C
HETATM    2  C2  UNL     1     -15.417  -6.641   3.988  1.00  0.00     0.239 C
HETATM    3  O1  UNL     1     -16.418  -5.918   3.670  1.00  0.00    -0.272 OA
HETATM    4  N1  UNL     1     -15.374  -7.696   4.874  1.00  0.00    -0.224 N
HETATM    5  C3  UNL     1     -16.424  -8.015   5.852  1.00  0.00     0.040 C
HETATM    6  C4  UNL     1     -17.499  -6.981   6.022  1.00  0.00     0.071 C
HETATM    7  C5  UNL     1     -16.399  -9.090   6.584  1.00  0.00    -0.030 C
HETATM    8  C15 UNL     1     -15.208 -10.038   6.418  1.00  0.00     0.062 C
HETATM    9  C16 UNL     1     -13.974  -9.180   6.121  1.00  0.00     0.157 C
HETATM   10  N3  UNL     1     -14.339  -8.636   4.794  1.00  0.00    -0.251 N
HETATM   11  C17 UNL     1     -13.783  -9.180   3.649  1.00  0.00     0.242 C
HETATM   12  O3  UNL     1     -14.241  -8.985   2.484  1.00  0.00    -0.271 OA
ENDROOT
BRANCH   7  13
HETATM   13  C6  UNL     1     -17.376  -9.525   7.580  1.00  0.00    -0.071 C
HETATM   14  C7  UNL     1     -17.259 -11.027   7.877  1.00  0.00     0.036 C
HETATM   15  C8  UNL     1     -18.148 -11.447   9.034  1.00  0.00     0.018 C
HETATM   16  C9  UNL     1     -17.770 -10.746  10.311  1.00  0.00     0.078 C
HETATM   17  C13 UNL     1     -17.145  -9.400  10.028  1.00  0.00     0.018 C
HETATM   18  C14 UNL     1     -17.826  -8.847   8.771  1.00  0.00     0.036 C
BRANCH  16  19
HETATM   19  C10 UNL     1     -18.988 -10.522  11.112  1.00  0.00     0.221 C
HETATM   20  O2  UNL     1     -19.984 -11.256  10.929  1.00  0.00    -0.273 OA
HETATM   21  N2  UNL     1     -19.079  -9.500  12.092  1.00  0.00    -0.357 N
ATOM     22  H2  UNL     1     -18.259  -8.909  12.229  1.00  0.00     0.162 HD
BRANCH  21  23
HETATM   23  C11 UNL     1     -20.226  -9.231  12.902  1.00  0.00     0.171 C
BRANCH  23  24
HETATM   24  C12 UNL     1     -20.457  -7.753  13.165  1.00  0.00     0.259 C
HETATM   25  F1  UNL     1     -21.820  -7.470  12.994  1.00  0.00    -0.236 F
HETATM   26 BR1  UNL     1     -19.446  -6.684  11.914  1.00  0.00    -0.054 Br
ENDBRANCH  23  24
ENDBRANCH  21  23
ENDBRANCH  16  19
ENDBRANCH   7  13
BRANCH  11  27
HETATM   27  C18 UNL     1     -12.558 -10.070   3.678  1.00  0.00     0.080 C
HETATM   28  C19 UNL     1     -11.545  -9.626   2.690  1.00  0.00     0.016 C
HETATM   29  C20 UNL     1     -11.474 -10.427   1.417  1.00  0.00     0.036 C
HETATM   30  C21 UNL     1     -11.266 -11.884   1.842  1.00  0.00     0.223 C
HETATM   31  C26 UNL     1     -12.569 -12.293   2.462  1.00  0.00     0.036 C
HETATM   32  C27 UNL     1     -12.922 -11.512   3.676  1.00  0.00     0.016 C
BRANCH  30  33
HETATM   33  N4  UNL     1     -10.992 -12.712   0.684  1.00  0.00     0.093 N
HETATM   34  C22 UNL     1      -9.628 -13.208   0.695  1.00  0.00     0.273 C
HETATM   35  C23 UNL     1      -9.696 -14.481  -0.092  1.00  0.00     0.032 C
HETATM   36  C24 UNL     1     -11.147 -14.817  -0.257  1.00  0.00     0.032 C
HETATM   37  C25 UNL     1     -11.824 -13.882   0.751  1.00  0.00     0.273 C
ENDBRANCH  30  33
ENDBRANCH  11  27
TORSDOF 6
ENDMDL