MODEL 4
REMARK VINA RESULT: -7.332838537      2.292      2.821
REMARK  6 active torsions:
REMARK  status: ('A' for Active; 'I' for Inactive)
REMARK    1  A    between atoms: C4_5  and  C5_6
REMARK       I    between atoms: C5_6  and  N1_8
REMARK    2  A    between atoms: N1_8  and  C6_10
REMARK    3  A    between atoms: N2_13  and  C9_14
REMARK    4  A    between atoms: C12_17  and  N3_18
REMARK    5  A    between atoms: C21_28  and  C22_29
REMARK       I    between atoms: C22_29  and  N4_31
REMARK    6  A    between atoms: C25_34  and  C26_35
ROOT
HETATM    1  C5  UNL     1     -14.309  -9.751   3.696  1.00  0.00     0.223 C
HETATM    2  O1  UNL     1     -14.539  -8.677   3.057  1.00  0.00    -0.273 OA
HETATM    3  N1  UNL     1     -15.083  -9.946   4.858  1.00  0.00    -0.356 N
ATOM      4  H1  UNL     1     -14.933 -10.792   5.407  1.00  0.00     0.162 HD
ENDROOT
BRANCH   3   5
HETATM    5  C6  UNL     1     -16.083  -8.994   5.306  1.00  0.00     0.087 C
HETATM    6  C7  UNL     1     -15.416  -7.958   6.189  1.00  0.00     0.044 C
HETATM    7  C8  UNL     1     -16.386  -6.842   6.539  1.00  0.00     0.119 C
HETATM    8  N2  UNL     1     -17.679  -7.328   6.885  1.00  0.00    -0.408 N
HETATM    9  C19 UNL     1     -17.793  -8.717   7.121  1.00  0.00     0.119 C
HETATM   10  C20 UNL     1     -17.230  -9.609   6.036  1.00  0.00     0.044 C
BRANCH   8  11
HETATM   11  C9  UNL     1     -18.683  -6.698   6.096  1.00  0.00     0.079 C
HETATM   12  C10 UNL     1     -18.328  -5.263   5.930  1.00  0.00     0.027 C
HETATM   13  C11 UNL     1     -19.446  -4.362   5.485  1.00  0.00     0.027 C
HETATM   14  C12 UNL     1     -20.705  -4.599   6.292  1.00  0.00     0.087 C
HETATM   15  C17 UNL     1     -21.091  -6.038   6.008  1.00  0.00     0.027 C
HETATM   16  C18 UNL     1     -20.080  -6.964   6.593  1.00  0.00     0.027 C
BRANCH  14  17
HETATM   17  N3  UNL     1     -21.748  -3.716   5.874  1.00  0.00    -0.347 N
HETATM   18  C13 UNL     1     -21.811  -2.880   4.690  1.00  0.00     0.127 C
HETATM   19  C14 UNL     1     -22.413  -1.605   5.288  1.00  0.00     0.029 C
HETATM   20  C15 UNL     1     -23.568  -2.198   6.091  1.00  0.00     0.104 C
HETATM   21  C16 UNL     1     -22.976  -3.475   6.567  1.00  0.00     0.220 C
HETATM   22  O2  UNL     1     -23.444  -4.255   7.439  1.00  0.00    -0.273 OA
ENDBRANCH  14  17
ENDBRANCH   8  11
ENDBRANCH   3   5
BRANCH   1  23
HETATM   23  C4  UNL     1     -13.286 -10.690   3.204  1.00  0.00     0.094 C
HETATM   24  C3  UNL     1     -13.027 -11.768   4.263  1.00  0.00     0.036 C
HETATM   25  C2  UNL     1     -11.738 -11.041   4.579  1.00  0.00     0.028 C
HETATM   26  C1  UNL     1     -10.635 -12.024   4.756  1.00  0.00     0.028 C
HETATM   27 BR1  UNL     1     -11.943  -9.994   6.213  1.00  0.00    -0.085 Br
HETATM   28  C21 UNL     1     -11.852 -10.245   3.340  1.00  0.00     0.110 C
BRANCH  28  29
HETATM   29  C22 UNL     1     -10.968 -10.555   2.206  1.00  0.00     0.226 C
HETATM   30  O3  UNL     1      -9.756 -10.158   2.266  1.00  0.00    -0.273 OA
HETATM   31  N4  UNL     1     -11.327 -11.259   1.041  1.00  0.00    -0.352 N
HETATM   32  C23 UNL     1     -12.633 -11.803   0.740  1.00  0.00     0.126 C
HETATM   33  C28 UNL     1     -10.333 -11.489   0.013  1.00  0.00     0.126 C
HETATM   34  C24 UNL     1     -12.488 -13.304   0.776  1.00  0.00     0.027 C
HETATM   35  C25 UNL     1     -11.463 -13.692  -0.267  1.00  0.00     0.017 C
HETATM   36  C27 UNL     1     -10.162 -12.980  -0.097  1.00  0.00     0.027 C
BRANCH  35  37
HETATM   37  C26 UNL     1     -11.182 -15.176  -0.142  1.00  0.00     0.227 C
HETATM   38  F1  UNL     1     -10.466 -15.607  -1.216  1.00  0.00    -0.255 F
ENDBRANCH  35  37
ENDBRANCH  28  29
ENDBRANCH   1  23
TORSDOF 6
ENDMDL