MODEL 4
REMARK VINA RESULT: -7.724397878      2.416      3.054
REMARK  8 active torsions:
REMARK  status: ('A' for Active; 'I' for Inactive)
REMARK       I    between atoms: C1_2  and  N1_3
REMARK    1  A    between atoms: C1_2  and  C28_40
REMARK    2  A    between atoms: N1_3  and  C2_5
REMARK    3  A    between atoms: C5_8  and  C6_9
REMARK       I    between atoms: C6_9  and  N2_11
REMARK    4  A    between atoms: N3_16  and  C11_17
REMARK    5  A    between atoms: C11_17  and  C12_18
REMARK    6  A    between atoms: N4_27  and  C19_28
REMARK    7  A    between atoms: C19_28  and  O4_29
REMARK    8  A    between atoms: C19_28  and  C20_31
ROOT
HETATM    1  C6  UNL     1     -14.700  -8.671   3.870  1.00  0.00     0.226 C
HETATM    2  O2  UNL     1     -15.145  -7.506   3.934  1.00  0.00    -0.273 OA
HETATM    3  N2  UNL     1     -13.798  -9.085   2.818  1.00  0.00    -0.317 N
HETATM    4  C7  UNL     1     -13.418 -10.459   2.828  1.00  0.00     0.170 C
HETATM    5  C8  UNL     1     -12.160 -10.644   1.980  1.00  0.00     0.133 C
HETATM    6  C9  UNL     1     -11.802 -12.078   1.977  1.00  0.00     0.063 C
HETATM    7  C10 UNL     1     -10.285 -12.128   1.919  1.00  0.00     0.129 C
HETATM    8  N3  UNL     1      -9.861 -10.865   2.503  1.00  0.00    -0.345 N
HETATM    9  C18 UNL     1     -11.000 -10.056   2.753  1.00  0.00     0.250 C
HETATM   10  O3  UNL     1     -10.973  -9.052   3.494  1.00  0.00    -0.270 OA
HETATM   11  N4  UNL     1     -12.381  -9.959   0.766  1.00  0.00    -0.341 N
HETATM   12  C24 UNL     1     -12.314  -8.469   0.944  1.00  0.00     0.185 C
HETATM   13  C25 UNL     1     -13.393  -8.057   1.898  1.00  0.00     0.292 C
HETATM   14  F2  UNL     1     -14.482  -7.487   1.227  1.00  0.00    -0.225 F
ENDROOT
BRANCH   1  15
HETATM   15  C5  UNL     1     -15.139  -9.627   4.939  1.00  0.00     0.078 C
HETATM   16  C4  UNL     1     -16.589  -9.347   5.226  1.00  0.00     0.016 C
HETATM   17  C3  UNL     1     -16.995  -9.845   6.601  1.00  0.00     0.026 C
HETATM   18  C2  UNL     1     -16.316  -9.029   7.679  1.00  0.00     0.084 C
HETATM   19  C27 UNL     1     -15.148  -8.304   7.066  1.00  0.00     0.026 C
HETATM   20  C26 UNL     1     -14.370  -9.309   6.230  1.00  0.00     0.016 C
BRANCH  18  21
HETATM   21  N1  UNL     1     -17.209  -8.068   8.283  1.00  0.00    -0.356 N
HETATM   22  C1  UNL     1     -17.884  -8.298   9.499  1.00  0.00     0.222 C
HETATM   23  O1  UNL     1     -17.672  -9.417  10.064  1.00  0.00    -0.273 OA
ATOM     24  H1  UNL     1     -17.359  -7.180   7.805  1.00  0.00     0.162 HD
BRANCH  22  25
HETATM   25  C28 UNL     1     -18.784  -7.299  10.083  1.00  0.00     0.078 C
HETATM   26  C29 UNL     1     -18.082  -6.104  10.730  1.00  0.00     0.014 C
HETATM   27  C30 UNL     1     -19.164  -5.221  10.117  1.00  0.00     0.002 C
HETATM   28  C31 UNL     1     -19.317  -6.317   9.061  1.00  0.00     0.014 C
ENDBRANCH  22  25
ENDBRANCH  18  21
ENDBRANCH   1  15
BRANCH  11  29
HETATM   29  C19 UNL     1     -12.679 -10.400  -0.499  1.00  0.00     0.118 C
BRANCH  29  30
HETATM   30  O4  UNL     1     -11.637 -10.602  -1.272  1.00  0.00    -0.349 OA
ATOM     31  H4  UNL     1     -11.755 -11.275  -1.932  1.00  0.00     0.219 HD
ENDBRANCH  29  30
BRANCH  29  32
HETATM   32  C20 UNL     1     -13.943 -10.693  -1.178  1.00  0.00     0.060 C
HETATM   33  C21 UNL     1     -13.782 -11.740  -2.322  1.00  0.00     0.013 C
HETATM   34  C22 UNL     1     -15.174 -12.198  -1.950  1.00  0.00     0.002 C
HETATM   35  C23 UNL     1     -14.845 -11.733  -0.549  1.00  0.00     0.013 C
ENDBRANCH  29  32
ENDBRANCH  11  29
BRANCH   8  36
HETATM   36  C11 UNL     1      -8.463 -10.577   2.765  1.00  0.00     0.167 C
BRANCH  36  37
HETATM   37  C12 UNL     1      -7.965  -9.595   1.750  1.00  0.00    -0.002 A
HETATM   38  C13 UNL     1      -7.912  -8.231   2.016  1.00  0.00     0.012 A
HETATM   39  C14 UNL     1      -7.440  -7.364   1.055  1.00  0.00     0.001 A
HETATM   40  C15 UNL     1      -7.014  -7.799  -0.179  1.00  0.00     0.003 A
HETATM   41  C16 UNL     1      -7.060  -9.153  -0.462  1.00  0.00     0.043 A
HETATM   42  C17 UNL     1      -7.540 -10.023   0.521  1.00  0.00     0.124 A
HETATM   43  F1  UNL     1      -7.589 -11.364   0.254  1.00  0.00    -0.205 F
ENDBRANCH  36  37
ENDBRANCH   8  36
TORSDOF 8
ENDMDL