MODEL 1
REMARK VINA RESULT: -9.169465242      0.000      0.000
REMARK  3 active torsions:
REMARK  status: ('A' for Active; 'I' for Inactive)
REMARK    1  A    between atoms: C8_12  and  N4_13
REMARK       I    between atoms: N4_13  and  C9_15
REMARK       I    between atoms: C9_15  and  N6_19
REMARK    2  A    between atoms: N6_19  and  C10_21
REMARK    3  A    between atoms: C12_25  and  C13_26
ROOT
HETATM    1  C1  UNL     1      -0.111 -35.054  38.169  1.00  0.00     0.071 C
HETATM    2  C2  UNL     1       1.037 -35.726  37.511  1.00  0.00     0.041 A
HETATM    3  N1  UNL     1       1.502 -36.965  37.623  1.00  0.00    -0.302 N
ATOM      4  H1  UNL     1       1.100 -37.682  38.227  1.00  0.00     0.187 HD
HETATM    5  N2  UNL     1       2.575 -37.148  36.832  1.00  0.00    -0.294 N
HETATM    6  C3  UNL     1       3.329 -38.386  36.712  1.00  0.00     0.178 C
HETATM    7  C4  UNL     1       2.854 -35.996  36.157  1.00  0.00     0.090 A
HETATM    8  C5  UNL     1       3.827 -35.641  35.237  1.00  0.00     0.077 A
HETATM    9  C6  UNL     1       4.801 -36.657  34.854  1.00  0.00     0.102 C
HETATM   10  N3  UNL     1       5.606 -37.460  34.523  1.00  0.00    -0.191 NA
HETATM   11  C7  UNL     1       3.964 -34.415  34.647  1.00  0.00     0.063 A
HETATM   12  C8  UNL     1       3.198 -33.307  34.828  1.00  0.00     0.092 A
HETATM   13  S1  UNL     1       1.927 -33.526  35.934  1.00  0.00    -0.068 SA
HETATM   14  C19 UNL     1       1.876 -35.105  36.594  1.00  0.00     0.060 A
ENDROOT
BRANCH  12  15
HETATM   15  N4  UNL     1       3.429 -32.211  34.214  1.00  0.00    -0.185 N
HETATM   16  C9  UNL     1       2.632 -31.934  33.067  1.00  0.00     0.691 C
HETATM   17  N5  UNL     1       3.110 -31.585  31.929  1.00  0.00    -0.234 N
HETATM   18  N6  UNL     1       1.224 -32.061  33.230  1.00  0.00    -0.022 N
ATOM     19  H52 UNL     1       4.119 -31.494  31.812  1.00  0.00     0.174 HD
ATOM     20  H51 UNL     1       2.540 -31.387  31.107  1.00  0.00     0.174 HD
ATOM     21  H6  UNL     1       0.815 -32.957  33.494  1.00  0.00     0.203 HD
ATOM     22  H4  UNL     1       4.150 -31.565  34.531  1.00  0.00     0.185 HD
BRANCH  18  23
HETATM   23  C10 UNL     1       0.463 -31.021  33.040  1.00  0.00     0.697 A
HETATM   24  N7  UNL     1      -0.882 -31.045  33.062  1.00  0.00    -0.199 N
HETATM   25  C11 UNL     1      -1.363 -29.801  32.828  1.00  0.00     0.137 A
ATOM     26  H7  UNL     1      -1.452 -31.874  33.231  1.00  0.00     0.183 HD
HETATM   27  C12 UNL     1      -0.277 -28.968  32.653  1.00  0.00     0.075 A
HETATM   28  N8  UNL     1       0.807 -29.752  32.791  1.00  0.00    -0.189 N
ATOM     29  H8  UNL     1       1.769 -29.421  32.715  1.00  0.00     0.184 HD
BRANCH  27  30
HETATM   30  C13 UNL     1      -0.302 -27.535  32.378  1.00  0.00    -0.007 A
HETATM   31  C14 UNL     1      -1.027 -26.645  33.139  1.00  0.00     0.014 A
HETATM   32  C15 UNL     1      -1.038 -25.279  32.860  1.00  0.00     0.001 A
HETATM   33  C16 UNL     1      -0.316 -24.793  31.807  1.00  0.00     0.000 A
HETATM   34  C17 UNL     1       0.414 -25.658  31.035  1.00  0.00     0.001 A
HETATM   35  C18 UNL     1       0.418 -27.015  31.322  1.00  0.00     0.014 A
ENDBRANCH  27  30
ENDBRANCH  18  23
ENDBRANCH  12  15
TORSDOF 3
ENDMDL