MODEL 4
REMARK VINA RESULT: -8.628800106      1.615      1.726
REMARK  2 active torsions:
REMARK  status: ('A' for Active; 'I' for Inactive)
REMARK    1  A    between atoms: C11_17  and  N3_18
REMARK       I    between atoms: N3_18  and  C12_20
REMARK    2  A    between atoms: C12_20  and  C13_22
ROOT
HETATM    1  N1  UNL     1       3.328 -39.226  37.366  1.00  0.00    -0.191 NA
HETATM    2  C1  UNL     1       2.887 -38.264  36.901  1.00  0.00     0.099 C
HETATM    3  C2  UNL     1       2.330 -37.055  36.342  1.00  0.00     0.046 A
HETATM    4  C3  UNL     1       3.142 -36.180  35.632  1.00  0.00     0.023 A
HETATM    5  C4  UNL     1       2.651 -35.020  35.087  1.00  0.00     0.015 A
HETATM    6  C5  UNL     1       1.326 -34.734  35.256  1.00  0.00    -0.002 A
HETATM    7  C6  UNL     1       0.454 -35.586  35.965  1.00  0.00     0.092 A
HETATM    8  C7  UNL     1       0.995 -36.742  36.496  1.00  0.00     0.048 A
HETATM    9  S1  UNL     1      -1.258 -35.433  36.272  1.00  0.00     0.260 S
HETATM   10  O1  UNL     1      -1.456 -35.018  37.711  1.00  0.00    -0.200 OA
HETATM   11  O2  UNL     1      -1.939 -36.775  36.041  1.00  0.00    -0.200 OA
HETATM   12  N2  UNL     1      -2.039 -34.298  35.291  1.00  0.00    -0.311 N
ATOM     13  H2  UNL     1      -2.882 -33.818  35.606  1.00  0.00     0.172 HD
HETATM   14  C8  UNL     1      -1.476 -34.037  34.007  1.00  0.00     0.171 C
HETATM   15  C9  UNL     1      -0.294 -33.161  34.050  1.00  0.00    -0.026 A
HETATM   16  C10 UNL     1      -0.469 -31.913  33.480  1.00  0.00     0.039 A
HETATM   17  C11 UNL     1       0.529 -30.975  33.470  1.00  0.00     0.035 A
HETATM   18  C18 UNL     1       1.741 -31.354  34.076  1.00  0.00     0.030 A
HETATM   19  C19 UNL     1       1.968 -32.578  34.657  1.00  0.00     0.015 A
HETATM   20  C20 UNL     1       0.939 -33.475  34.635  1.00  0.00    -0.016 A
ENDROOT
BRANCH  17  21
HETATM   21  N3  UNL     1       0.432 -29.678  32.893  1.00  0.00    -0.323 N
HETATM   22  C12 UNL     1      -0.220 -28.565  33.425  1.00  0.00     0.256 C
HETATM   23  O3  UNL     1      -0.838 -28.543  34.532  1.00  0.00    -0.267 OA
ATOM     24  H3  UNL     1       0.888 -29.547  31.990  1.00  0.00     0.169 HD
BRANCH  22  25
HETATM   25  C13 UNL     1      -0.195 -27.298  32.646  1.00  0.00     0.035 A
HETATM   26  C14 UNL     1      -0.907 -26.244  33.186  1.00  0.00     0.034 A
HETATM   27  C15 UNL     1      -0.941 -25.029  32.515  1.00  0.00     0.088 A
HETATM   28  N4  UNL     1      -0.279 -24.910  31.362  1.00  0.00    -0.375 N
HETATM   29  C16 UNL     1       0.420 -25.933  30.827  1.00  0.00     0.088 A
ATOM     30  H4  UNL     1      -0.302 -24.017  30.869  1.00  0.00     0.164 HD
HETATM   31  C17 UNL     1       0.484 -27.170  31.460  1.00  0.00     0.034 A
ENDBRANCH  22  25
ENDBRANCH  17  21
TORSDOF 2
ENDMDL