MODEL 4
REMARK VINA RESULT: -7.832968563      3.306      7.021
REMARK  5 active torsions:
REMARK  status: ('A' for Active; 'I' for Inactive)
REMARK    1  A    between atoms: C2_2  and  N1_5
REMARK    2  A    between atoms: C5_6  and  N2_7
REMARK    3  A    between atoms: N2_7  and  N3_9
REMARK    4  A    between atoms: N3_9  and  C6_11
REMARK    5  A    between atoms: C6_11  and  N4_13
ROOT
HETATM    1  N1  UNL     1       0.073 -30.812  34.373  1.00  0.00    -0.156 N
HETATM    2  C5  UNL     1      -0.573 -30.791  35.566  1.00  0.00     0.702 A
HETATM    3  N6  UNL     1      -1.076 -29.560  35.758  1.00  0.00    -0.186 N
ATOM      4  H6  UNL     1      -1.611 -29.250  36.569  1.00  0.00     0.184 HD
HETATM    5  C12 UNL     1      -0.741 -28.801  34.674  1.00  0.00     0.095 A
HETATM    6  C13 UNL     1      -1.032 -27.481  34.418  1.00  0.00     0.049 A
HETATM    7  C14 UNL     1      -0.567 -26.940  33.223  1.00  0.00     0.010 A
HETATM    8  C15 UNL     1      -0.834 -25.607  32.914  1.00  0.00     0.016 A
HETATM    9  C16 UNL     1      -0.354 -25.119  31.724  1.00  0.00     0.018 A
HETATM   10  C17 UNL     1       0.363 -25.949  30.888  1.00  0.00     0.090 A
HETATM   11  N7  UNL     1       0.616 -27.229  31.192  1.00  0.00    -0.352 N
ATOM     12  H7  UNL     1       1.151 -27.815  30.551  1.00  0.00     0.166 HD
HETATM   13  C18 UNL     1       0.151 -27.740  32.368  1.00  0.00     0.117 A
HETATM   14  N8  UNL     1       0.414 -29.045  32.669  1.00  0.00    -0.325 N
ATOM     15  H8  UNL     1       0.950 -29.613  32.012  1.00  0.00     0.169 HD
HETATM   16  C19 UNL     1      -0.021 -29.594  33.812  1.00  0.00     0.153 A
ENDROOT
BRANCH   2  17
HETATM   17  N2  UNL     1      -0.699 -31.774  36.395  1.00  0.00    -0.129 N
ATOM     18  H2  UNL     1      -0.008 -32.524  36.420  1.00  0.00     0.205 HD
BRANCH  17  19
HETATM   19  N3  UNL     1      -1.795 -31.792  37.255  1.00  0.00    -0.262 N
ATOM     20  H3  UNL     1      -2.228 -30.919  37.556  1.00  0.00     0.190 HD
BRANCH  19  21
HETATM   21  C6  UNL     1      -2.299 -33.025  37.701  1.00  0.00     0.191 C
HETATM   22  S1  UNL     1      -2.995 -33.164  39.173  1.00  0.00    -0.039 SA
BRANCH  21  23
HETATM   23  N4  UNL     1      -2.215 -34.179  36.885  1.00  0.00    -0.332 N
HETATM   24  C7  UNL     1      -2.999 -34.293  35.888  1.00  0.00     0.036 A
HETATM   25  C8  UNL     1      -3.911 -33.312  35.611  1.00  0.00     0.046 A
HETATM   26  C11 UNL     1      -2.931 -35.403  35.089  1.00  0.00     0.046 A
HETATM   27  C9  UNL     1      -4.747 -33.467  34.523  1.00  0.00     0.090 A
HETATM   28  N5  UNL     1      -4.670 -34.557  33.748  1.00  0.00    -0.375 N
HETATM   29  C10 UNL     1      -3.784 -35.537  33.996  1.00  0.00     0.090 A
ATOM     30  H5  UNL     1      -5.299 -34.646  32.951  1.00  0.00     0.164 HD
ATOM     31  H4  UNL     1      -1.535 -34.909  37.093  1.00  0.00     0.168 HD
ENDBRANCH  21  23
ENDBRANCH  19  21
ENDBRANCH  17  19
ENDBRANCH   2  17
BRANCH   1  32
HETATM   32  C2  UNL     1       0.752 -31.928  33.783  1.00  0.00     0.045 C
HETATM   33  C1  UNL     1       0.473 -33.238  34.460  1.00  0.00     0.039 C
HETATM   34  C3  UNL     1       2.243 -31.680  33.753  1.00  0.00     0.039 C
HETATM   35  C4  UNL     1       0.298 -32.084  32.325  1.00  0.00     0.039 C
ENDBRANCH   1  32
TORSDOF 5
ENDMDL