MODEL 3
REMARK VINA RESULT: -8.711503767      3.373      6.716
REMARK  1 active torsions:
REMARK  status: ('A' for Active; 'I' for Inactive)
REMARK    1  A    between atoms: N2_5  and  C3_6
ROOT
HETATM    1  C1  UNL     1      -0.981 -28.672  34.728  1.00  0.00     0.071 C
HETATM    2  C2  UNL     1      -1.129 -30.098  35.176  1.00  0.00     0.040 A
HETATM    3  N1  UNL     1      -0.592 -30.705  36.216  1.00  0.00    -0.297 N
ATOM      4  H1  UNL     1       0.028 -30.250  36.885  1.00  0.00     0.187 HD
HETATM    5  N2  UNL     1      -0.964 -32.007  36.288  1.00  0.00    -0.252 N
HETATM    6  C13 UNL     1      -1.767 -32.204  35.240  1.00  0.00     0.087 A
HETATM    7  C14 UNL     1      -1.908 -31.025  34.497  1.00  0.00     0.085 A
HETATM    8  C15 UNL     1      -2.682 -30.951  33.364  1.00  0.00     0.260 A
HETATM    9  O3  UNL     1      -2.774 -29.870  32.735  1.00  0.00    -0.267 OA
HETATM   10  N5  UNL     1      -3.343 -32.014  32.915  1.00  0.00    -0.322 N
ATOM     11  H5  UNL     1      -3.920 -31.964  32.075  1.00  0.00     0.169 HD
HETATM   12  C16 UNL     1      -3.223 -33.152  33.609  1.00  0.00     0.047 A
HETATM   13  C17 UNL     1      -3.927 -34.257  33.121  1.00  0.00     0.030 A
HETATM   14  C18 UNL     1      -3.841 -35.450  33.792  1.00  0.00     0.002 A
HETATM   15  C19 UNL     1      -3.090 -35.610  34.931  1.00  0.00     0.001 A
HETATM   16  C20 UNL     1      -2.392 -34.496  35.407  1.00  0.00     0.016 A
HETATM   17  C21 UNL     1      -2.455 -33.294  34.765  1.00  0.00     0.021 A
ENDROOT
BRANCH   5  18
HETATM   18  C3  UNL     1      -0.503 -32.849  37.331  1.00  0.00     0.084 A
HETATM   19  C4  UNL     1      -0.945 -32.778  38.645  1.00  0.00     0.034 A
HETATM   20  C5  UNL     1      -0.449 -33.552  39.656  1.00  0.00     0.003 A
HETATM   21  C6  UNL     1       0.542 -34.462  39.392  1.00  0.00     0.015 A
HETATM   22  C7  UNL     1       1.025 -34.577  38.097  1.00  0.00     0.011 A
HETATM   23  C8  UNL     1       1.995 -35.380  37.525  1.00  0.00     0.077 A
HETATM   24  C10 UNL     1       0.510 -33.786  37.091  1.00  0.00     0.073 A
HETATM   25  C9  UNL     1       2.061 -35.073  36.191  1.00  0.00     0.118 A
HETATM   26  C12 UNL     1       2.948 -36.421  37.872  1.00  0.00     0.261 A
HETATM   27  N3  UNL     1       1.146 -34.103  35.963  1.00  0.00    -0.348 N
HETATM   28  C11 UNL     1       3.098 -35.947  35.640  1.00  0.00     0.276 A
ATOM     29  H3  UNL     1       0.968 -33.673  35.056  1.00  0.00     0.166 HD
HETATM   30  O1  UNL     1       3.441 -35.945  34.420  1.00  0.00    -0.266 OA
HETATM   31  N4  UNL     1       3.631 -36.763  36.668  1.00  0.00    -0.288 N
ATOM     32  H4  UNL     1       4.366 -37.463  36.565  1.00  0.00     0.172 HD
HETATM   33  O2  UNL     1       3.176 -36.957  38.973  1.00  0.00    -0.267 OA
ENDBRANCH   5  18
TORSDOF 1
ENDMDL