MODEL 2
REMARK VINA RESULT: -8.756195291      2.463      4.126
REMARK  2 active torsions:
REMARK  status: ('A' for Active; 'I' for Inactive)
REMARK       I    between atoms: C1_2  and  N1_3
REMARK       I    between atoms: C1_2  and  N4_15
REMARK    1  A    between atoms: N1_3  and  C2_5
REMARK    2  A    between atoms: C8_20  and  C9_21
ROOT
HETATM    1  O1  UNL     1       1.803 -31.991  34.476  1.00  0.00    -0.246 OA
HETATM    2  C1  UNL     1       1.064 -31.603  33.530  1.00  0.00     0.340 C
HETATM    3  N1  UNL     1       1.377 -30.478  32.724  1.00  0.00    -0.141 N
ATOM      4  H1  UNL     1       2.117 -30.529  32.025  1.00  0.00     0.189 HD
HETATM    5  N4  UNL     1      -0.122 -32.352  33.294  1.00  0.00    -0.293 N
ATOM      6  H4  UNL     1      -0.518 -32.368  32.355  1.00  0.00     0.172 HD
HETATM    7  C7  UNL     1      -0.713 -33.014  34.240  1.00  0.00     0.123 A
HETATM    8  N5  UNL     1      -0.259 -33.048  35.502  1.00  0.00    -0.327 N
ATOM      9  H5  UNL     1       0.590 -32.527  35.719  1.00  0.00     0.169 HD
HETATM   10  C8  UNL     1      -0.859 -33.732  36.504  1.00  0.00     0.119 A
HETATM   11  N7  UNL     1      -1.971 -34.408  36.192  1.00  0.00    -0.341 N
ATOM     12  H7  UNL     1      -2.442 -34.932  36.930  1.00  0.00     0.167 HD
HETATM   13  C14 UNL     1      -2.506 -34.433  34.938  1.00  0.00     0.047 A
HETATM   14  C15 UNL     1      -3.657 -35.152  34.676  1.00  0.00     0.030 A
HETATM   15  C16 UNL     1      -4.138 -35.130  33.386  1.00  0.00     0.002 A
HETATM   16  C17 UNL     1      -3.483 -34.412  32.401  1.00  0.00     0.001 A
HETATM   17  C18 UNL     1      -2.342 -33.706  32.676  1.00  0.00     0.017 A
HETATM   18  C19 UNL     1      -1.857 -33.724  33.965  1.00  0.00     0.035 A
ENDROOT
BRANCH  10  19
HETATM   19  C9  UNL     1      -0.290 -33.710  37.856  1.00  0.00     0.023 A
HETATM   20  C10 UNL     1       1.066 -33.803  38.003  1.00  0.00     0.018 A
HETATM   21  C11 UNL     1       1.561 -33.776  39.313  1.00  0.00     0.018 A
HETATM   22  C12 UNL     1       0.748 -33.665  40.396  1.00  0.00     0.087 A
HETATM   23  N6  UNL     1      -0.580 -33.576  40.189  1.00  0.00    -0.374 N
HETATM   24  C13 UNL     1      -1.115 -33.596  38.961  1.00  0.00     0.102 A
ATOM     25  H6  UNL     1      -1.199 -33.490  40.995  1.00  0.00     0.164 HD
ENDBRANCH  10  19
BRANCH   3  26
HETATM   26  C2  UNL     1       0.694 -29.369  32.897  1.00  0.00     0.687 A
HETATM   27  N2  UNL     1       0.778 -28.265  32.128  1.00  0.00    -0.189 N
HETATM   28  C3  UNL     1      -0.079 -27.304  32.605  1.00  0.00     0.084 A
ATOM     29  H2  UNL     1       1.385 -28.159  31.315  1.00  0.00     0.184 HD
HETATM   30  C4  UNL     1      -0.446 -26.046  32.298  1.00  0.00     0.040 A
HETATM   31  C6  UNL     1      -0.669 -27.888  33.687  1.00  0.00     0.117 A
HETATM   32  C5  UNL     1      -1.387 -25.452  33.101  1.00  0.00     0.054 A
HETATM   33  S1  UNL     1      -1.720 -26.669  34.248  1.00  0.00    -0.081 SA
HETATM   34  N3  UNL     1      -0.202 -29.161  33.878  1.00  0.00    -0.183 N
ATOM     35  H3  UNL     1      -0.476 -29.814  34.611  1.00  0.00     0.185 HD
ENDBRANCH   3  26
TORSDOF 2
ENDMDL