MODEL 5
REMARK VINA RESULT: -8.507858475      4.090      9.765
REMARK  4 active torsions:
REMARK  status: ('A' for Active; 'I' for Inactive)
REMARK       I    between atoms: C1_4  and  N2_5
REMARK       I    between atoms: C1_4  and  N6_27
REMARK    1  A    between atoms: N2_5  and  C2_7
REMARK    2  A    between atoms: C5_16  and  C6_17
REMARK    3  A    between atoms: C7_18  and  C8_19
REMARK       I    between atoms: N6_27  and  C15_29
REMARK    4  A    between atoms: C15_29  and  C16_31
ROOT
HETATM    1  C2  UNL     1      -1.596 -32.485  36.911  1.00  0.00     0.166 A
HETATM    2  N3  UNL     1      -0.538 -33.275  36.724  1.00  0.00    -0.320 N
ATOM      3  H3  UNL     1      -0.452 -34.162  37.221  1.00  0.00     0.169 HD
HETATM    4  C3  UNL     1       0.390 -32.880  35.882  1.00  0.00     0.141 A
HETATM    5  N4  UNL     1       1.546 -33.548  35.559  1.00  0.00    -0.285 N
ATOM      6  H4  UNL     1       1.739 -34.449  35.997  1.00  0.00     0.188 HD
HETATM    7  N5  UNL     1       2.394 -33.064  34.713  1.00  0.00    -0.309 N
ATOM      8  H5  UNL     1       3.224 -33.629  34.534  1.00  0.00     0.186 HD
HETATM    9  C4  UNL     1       2.310 -31.903  34.041  1.00  0.00     0.129 A
HETATM   10  C5  UNL     1       1.155 -31.183  34.333  1.00  0.00     0.056 A
HETATM   11  C14 UNL     1       0.222 -31.689  35.248  1.00  0.00     0.074 A
HETATM   12  S1  UNL     1      -1.274 -31.162  35.880  1.00  0.00    -0.048 SA
ENDROOT
BRANCH   1  13
HETATM   13  N2  UNL     1      -2.624 -32.693  37.701  1.00  0.00    -0.170 N
HETATM   14  C1  UNL     1      -2.543 -32.254  39.032  1.00  0.00     0.680 C
HETATM   15  N1  UNL     1      -1.755 -31.283  39.327  1.00  0.00    -0.234 N
HETATM   16  N6  UNL     1      -3.304 -32.848  40.071  1.00  0.00    -0.156 N
ATOM     17  H12 UNL     1      -1.208 -30.856  38.580  1.00  0.00     0.174 HD
ATOM     18  H11 UNL     1      -1.696 -30.965  40.295  1.00  0.00     0.174 HD
HETATM   19  C15 UNL     1      -4.180 -33.912  39.790  1.00  0.00     0.269 C
ATOM     20  H6  UNL     1      -3.216 -32.501  41.026  1.00  0.00     0.187 HD
HETATM   21  O1  UNL     1      -4.268 -34.322  38.584  1.00  0.00    -0.267 OA
ATOM     22  H2  UNL     1      -3.461 -33.161  37.356  1.00  0.00     0.186 HD
BRANCH  19  23
HETATM   23  C16 UNL     1      -5.009 -34.590  40.807  1.00  0.00     0.032 A
HETATM   24  C17 UNL     1      -5.652 -33.890  41.801  1.00  0.00     0.017 A
HETATM   25  C18 UNL     1      -6.420 -34.580  42.723  1.00  0.00     0.001 A
HETATM   26  C19 UNL     1      -6.554 -35.948  42.668  1.00  0.00     0.000 A
HETATM   27  C20 UNL     1      -5.904 -36.637  41.665  1.00  0.00     0.001 A
HETATM   28  C21 UNL     1      -5.143 -35.971  40.750  1.00  0.00     0.017 A
ENDBRANCH  19  23
ENDBRANCH   1  13
BRANCH  10  29
HETATM   29  C6  UNL     1       0.843 -29.919  33.745  1.00  0.00    -0.059 C
HETATM   30  C7  UNL     1       0.563 -28.849  33.263  1.00  0.00    -0.061 C
BRANCH  30  31
HETATM   31  C8  UNL     1       0.208 -27.580  32.701  1.00  0.00     0.018 A
HETATM   32  C9  UNL     1      -0.650 -26.736  33.372  1.00  0.00     0.020 A
HETATM   33  C10 UNL     1      -1.013 -25.509  32.862  1.00  0.00     0.001 A
HETATM   34  C11 UNL     1      -0.506 -25.100  31.632  1.00  0.00     0.000 A
HETATM   35  C12 UNL     1       0.355 -25.928  30.941  1.00  0.00     0.001 A
HETATM   36  C13 UNL     1       0.698 -27.153  31.485  1.00  0.00     0.020 A
ENDBRANCH  30  31
ENDBRANCH  10  29
TORSDOF 4
ENDMDL