MODEL 4
REMARK VINA RESULT: -8.381422558      1.325      1.461
REMARK  4 active torsions:
REMARK  status: ('A' for Active; 'I' for Inactive)
REMARK    1  A    between atoms: C12_15  and  C13_16
REMARK    2  A    between atoms: C14_17  and  C15_18
REMARK    3  A    between atoms: C15_18  and  N3_19
REMARK       I    between atoms: N3_19  and  C16_20
REMARK       I    between atoms: C16_20  and  N4_22
REMARK    4  A    between atoms: N4_22  and  C17_24
ROOT
HETATM    1  C1  UNL     1       0.967 -27.916  33.740  1.00  0.00     0.157 C
HETATM    2  N1  UNL     1      -0.175 -28.765  33.623  1.00  0.00    -0.345 N
HETATM    3  C2  UNL     1      -1.426 -28.274  33.398  1.00  0.00     0.183 A
HETATM    4  N2  UNL     1      -2.306 -29.261  33.337  1.00  0.00    -0.350 N
ATOM      5  H2  UNL     1      -3.309 -29.162  33.179  1.00  0.00     0.166 HD
HETATM    6  C3  UNL     1      -1.641 -30.427  33.522  1.00  0.00     0.072 A
HETATM    7  C4  UNL     1      -2.082 -31.725  33.556  1.00  0.00     0.004 A
HETATM    8  C5  UNL     1      -3.433 -31.989  33.369  1.00  0.00     0.014 A
HETATM    9  C6  UNL     1      -3.870 -33.278  33.398  1.00  0.00     0.001 A
HETATM   10  C7  UNL     1      -2.969 -34.314  33.616  1.00  0.00     0.001 A
HETATM   11  C8  UNL     1      -1.626 -34.068  33.804  1.00  0.00     0.013 A
HETATM   12  C9  UNL     1      -1.183 -32.765  33.773  1.00  0.00    -0.012 A
HETATM   13  C10 UNL     1       0.135 -32.414  33.945  1.00  0.00    -0.011 A
HETATM   14  C11 UNL     1       1.073 -33.407  34.172  1.00  0.00     0.034 A
HETATM   15  C12 UNL     1       2.435 -33.146  34.364  1.00  0.00     0.019 A
HETATM   16  C18 UNL     1       2.827 -31.855  34.321  1.00  0.00     0.021 A
HETATM   17  C19 UNL     1       1.924 -30.808  34.096  1.00  0.00     0.016 A
HETATM   18  C20 UNL     1       0.607 -31.100  33.915  1.00  0.00     0.004 A
HETATM   19  C21 UNL     1      -0.300 -30.078  33.699  1.00  0.00     0.074 A
ENDROOT
BRANCH  15  20
HETATM   20  C13 UNL     1       3.304 -34.255  34.612  1.00  0.00    -0.060 C
HETATM   21  C14 UNL     1       4.018 -35.204  34.799  1.00  0.00    -0.041 C
BRANCH  21  22
HETATM   22  C15 UNL     1       4.876 -36.396  35.004  1.00  0.00     0.252 C
BRANCH  22  23
HETATM   23  N3  UNL     1       4.169 -37.596  34.921  1.00  0.00    -0.355 NA
HETATM   24  C16 UNL     1       3.498 -38.731  34.842  1.00  0.00     0.412 C
HETATM   25  O1  UNL     1       3.567 -39.764  35.550  1.00  0.00    -0.229 OA
HETATM   26  N4  UNL     1       2.488 -38.885  33.773  1.00  0.00    -0.126 N
ATOM     27  H4  UNL     1       1.495 -38.845  34.001  1.00  0.00     0.190 HD
BRANCH  26  28
HETATM   28  C17 UNL     1       2.860 -39.068  32.566  1.00  0.00     0.730 A
HETATM   29  N5  UNL     1       4.054 -39.262  31.992  1.00  0.00    -0.069 N
HETATM   30  O2  UNL     1       3.456 -39.338  30.843  1.00  0.00    -0.127 OA
ATOM     31  H5  UNL     1       5.018 -39.322  32.318  1.00  0.00     0.215 HD
HETATM   32  N6  UNL     1       2.279 -39.154  31.360  1.00  0.00    -0.069 N
ATOM     33  H6  UNL     1       1.325 -39.100  31.003  1.00  0.00     0.215 HD
ENDBRANCH  26  28
ENDBRANCH  22  23
ENDBRANCH  21  22
ENDBRANCH  15  20
TORSDOF 4
ENDMDL