MODEL 1
REMARK VINA RESULT: -8.376552480      0.000      0.000
REMARK  6 active torsions:
REMARK  status: ('A' for Active; 'I' for Inactive)
REMARK    1  A    between atoms: C2_2  and  N1_5
REMARK    2  A    between atoms: C6_10  and  C7_11
REMARK    3  A    between atoms: C7_11  and  C8_12
REMARK    4  A    between atoms: C8_12  and  C9_13
REMARK    5  A    between atoms: C17_23  and  C18_24
REMARK    6  A    between atoms: C22_32  and  N6_33
ROOT
HETATM    1  N1  UNL     1      -0.845 -33.216  37.686  1.00  0.00    -0.366 N
ATOM      2  H1  UNL     1      -0.614 -34.141  38.050  1.00  0.00     0.162 HD
HETATM    3  C5  UNL     1      -0.189 -32.921  36.675  1.00  0.00     0.133 A
HETATM    4  N2  UNL     1      -0.326 -31.761  36.027  1.00  0.00    -0.320 N
ATOM      5  H2  UNL     1      -1.000 -31.079  36.376  1.00  0.00     0.169 HD
HETATM    6  C6  UNL     1       0.399 -31.456  34.924  1.00  0.00     0.164 A
HETATM    7  N3  UNL     1       1.279 -32.333  34.459  1.00  0.00    -0.333 N
ATOM      8  H3  UNL     1       1.820 -32.093  33.628  1.00  0.00     0.168 HD
HETATM    9  C15 UNL     1       1.486 -33.544  35.055  1.00  0.00     0.066 A
HETATM   10  C16 UNL     1       2.408 -34.428  34.541  1.00  0.00     0.048 A
HETATM   11  C17 UNL     1       2.611 -35.665  35.161  1.00  0.00     0.023 A
HETATM   12  C22 UNL     1       1.843 -35.916  36.280  1.00  0.00     0.110 A
HETATM   13  N7  UNL     1       0.936 -35.013  36.760  1.00  0.00    -0.337 N
ATOM     14  H7  UNL     1       0.396 -35.253  37.592  1.00  0.00     0.167 HD
HETATM   15  C23 UNL     1       0.732 -33.823  36.176  1.00  0.00     0.105 A
ENDROOT
BRANCH   6  16
HETATM   16  C7  UNL     1       0.211 -30.180  34.260  1.00  0.00    -0.025 C
BRANCH  16  17
HETATM   17  C8  UNL     1       0.074 -29.112  33.713  1.00  0.00    -0.059 C
BRANCH  17  18
HETATM   18  C9  UNL     1      -0.082 -27.833  33.075  1.00  0.00     0.018 A
HETATM   19  C10 UNL     1       0.576 -27.491  31.911  1.00  0.00     0.020 A
HETATM   20  C11 UNL     1       0.429 -26.267  31.298  1.00  0.00     0.001 A
HETATM   21  C12 UNL     1      -0.412 -25.347  31.870  1.00  0.00     0.000 A
HETATM   22  C13 UNL     1      -1.080 -25.673  33.037  1.00  0.00     0.001 A
HETATM   23  C14 UNL     1      -0.916 -26.912  33.638  1.00  0.00     0.020 A
ENDBRANCH  17  18
ENDBRANCH  16  17
ENDBRANCH   6  16
BRANCH   1  24
HETATM   24  C2  UNL     1      -1.836 -32.565  38.448  1.00  0.00     0.021 C
HETATM   25  C1  UNL     1      -2.226 -31.196  38.006  1.00  0.00     0.037 C
HETATM   26  C3  UNL     1      -3.092 -33.447  38.436  1.00  0.00     0.037 C
HETATM   27  C4  UNL     1      -1.442 -32.482  39.939  1.00  0.00     0.037 C
ENDBRANCH   1  24
BRANCH  11  28
HETATM   28  C18 UNL     1       3.586 -36.616  34.624  1.00  0.00     0.009 A
HETATM   29  C19 UNL     1       3.175 -37.748  33.955  1.00  0.00     0.102 A
HETATM   30  N4  UNL     1       4.098 -38.622  33.464  1.00  0.00    -0.361 N
HETATM   31  C20 UNL     1       5.419 -38.411  33.616  1.00  0.00     0.180 A
ATOM     32  H4  UNL     1       3.781 -39.456  32.969  1.00  0.00     0.166 HD
HETATM   33  N5  UNL     1       5.785 -37.291  34.277  1.00  0.00    -0.361 N
HETATM   34  C21 UNL     1       4.931 -36.405  34.776  1.00  0.00     0.102 A
ATOM     35  H5  UNL     1       6.783 -37.115  34.401  1.00  0.00     0.166 HD
ENDBRANCH  11  28
BRANCH  12  36
HETATM   36  N6  UNL     1       1.984 -37.043  36.903  1.00  0.00    -0.385 N
ATOM     37  H62 UNL     1       2.859 -37.555  36.792  1.00  0.00     0.157 HD
ATOM     38  H61 UNL     1       1.221 -37.388  37.485  1.00  0.00     0.157 HD
ENDBRANCH  12  36
TORSDOF 6
ENDMDL