MODEL 1
REMARK VINA RESULT: -8.101946458      0.000      0.000
REMARK  4 active torsions:
REMARK  status: ('A' for Active; 'I' for Inactive)
REMARK       I    between atoms: C2_2  and  N1_4
REMARK    1  A    between atoms: N1_4  and  C3_6
REMARK    2  A    between atoms: C4_9  and  C5_10
REMARK    3  A    between atoms: C9_15  and  C10_16
REMARK    4  A    between atoms: C11_17  and  C12_18
ROOT
HETATM    1  C12 UNL     1      -1.214 -28.266  34.321  1.00  0.00     0.041 A
HETATM    2  C13 UNL     1      -1.884 -27.097  34.598  1.00  0.00     0.024 A
HETATM    3  C14 UNL     1      -1.714 -25.978  33.821  1.00  0.00     0.033 A
HETATM    4  C15 UNL     1      -0.858 -26.007  32.736  1.00  0.00     0.061 A
HETATM    5  N3  UNL     1      -0.509 -25.068  31.820  1.00  0.00    -0.350 N
ATOM      6  H3  UNL     1      -0.843 -24.106  31.771  1.00  0.00     0.166 HD
HETATM    7  C16 UNL     1       0.367 -25.661  30.992  1.00  0.00     0.181 A
HETATM    8  N4  UNL     1       0.555 -26.932  31.384  1.00  0.00    -0.349 N
ATOM      9  H4  UNL     1       1.172 -27.604  30.928  1.00  0.00     0.166 HD
HETATM   10  C17 UNL     1      -0.200 -27.182  32.477  1.00  0.00     0.082 A
HETATM   11  C18 UNL     1      -0.364 -28.309  33.250  1.00  0.00     0.092 A
HETATM   12  C19 UNL     1       0.327 -29.533  32.975  1.00  0.00     0.103 C
HETATM   13  N5  UNL     1       0.878 -30.527  32.747  1.00  0.00    -0.191 NA
ENDROOT
BRANCH   1  14
HETATM   14  C11 UNL     1      -1.411 -29.437  35.158  1.00  0.00    -0.059 C
HETATM   15  C10 UNL     1      -1.581 -30.395  35.868  1.00  0.00    -0.051 C
BRANCH  15  16
HETATM   16  C9  UNL     1      -1.779 -31.574  36.705  1.00  0.00     0.090 A
HETATM   17  C4  UNL     1      -2.182 -32.839  36.359  1.00  0.00     0.077 A
HETATM   18  N2  UNL     1      -2.280 -33.723  37.311  1.00  0.00    -0.334 N
HETATM   19  C3  UNL     1      -1.992 -33.367  38.551  1.00  0.00     0.153 A
ATOM     20  H2  UNL     1      -2.576 -34.676  37.102  1.00  0.00     0.168 HD
HETATM   21  S2  UNL     1      -1.562 -31.728  38.404  1.00  0.00    -0.042 SA
BRANCH  17  22
HETATM   22  C5  UNL     1      -2.484 -33.134  34.922  1.00  0.00     0.033 A
HETATM   23  C6  UNL     1      -3.717 -33.241  34.334  1.00  0.00     0.021 A
HETATM   24  C7  UNL     1      -3.756 -33.513  33.023  1.00  0.00     0.008 A
HETATM   25  C8  UNL     1      -2.550 -33.663  32.381  1.00  0.00     0.050 A
HETATM   26  S1  UNL     1      -1.420 -33.417  33.635  1.00  0.00    -0.100 SA
ENDBRANCH  17  22
BRANCH  19  27
HETATM   27  N1  UNL     1      -2.031 -34.108  39.634  1.00  0.00    -0.307 N
HETATM   28  C2  UNL     1      -2.985 -33.836  40.650  1.00  0.00     0.219 C
HETATM   29  C1  UNL     1      -4.449 -33.860  40.432  1.00  0.00     0.117 C
HETATM   30  O1  UNL     1      -2.522 -33.557  41.802  1.00  0.00    -0.274 OA
ATOM     31  H1  UNL     1      -1.375 -34.881  39.746  1.00  0.00     0.171 HD
ENDBRANCH  19  27
ENDBRANCH  15  16
ENDBRANCH   1  14
TORSDOF 4
ENDMDL