MODEL 5
REMARK VINA RESULT: -5.401206486      1.111      1.167
REMARK  3 active torsions:
REMARK  status: ('A' for Active; 'I' for Inactive)
REMARK    1  A    between atoms: C1_2  and  C2_3
REMARK    2  A    between atoms: C2_3  and  O2_4
REMARK    3  A    between atoms: C13_16  and  C14_17
ROOT
HETATM    1  C2  UNL     1      -3.457   1.366  11.357  1.00  0.00     0.111 C
HETATM    2  C3  UNL     1      -4.930   1.492  11.514  1.00  0.00     0.050 C
HETATM    3  C4  UNL     1      -5.470   1.867  10.127  1.00  0.00    -0.006 C
HETATM    4  C5  UNL     1      -5.660   0.549   9.404  1.00  0.00     0.005 C
HETATM    5  C6  UNL     1      -5.763   0.671   7.951  1.00  0.00     0.007 C
HETATM    6  C7  UNL     1      -4.956   1.683   7.228  1.00  0.00     0.009 C
HETATM    7  C8  UNL     1      -5.684   2.039   5.966  1.00  0.00    -0.005 A
HETATM    8  C9  UNL     1      -5.062   2.536   4.743  1.00  0.00     0.010 A
HETATM    9  C10 UNL     1      -5.939   3.423   5.646  1.00  0.00    -0.010 A
HETATM   10  C11 UNL     1      -5.194   4.456   6.433  1.00  0.00     0.006 C
HETATM   11  C12 UNL     1      -5.266   4.044   7.896  1.00  0.00     0.022 C
HETATM   12  C13 UNL     1      -4.422   2.808   8.029  1.00  0.00     0.056 C
HETATM   13  C15 UNL     1      -4.298   2.525   9.505  1.00  0.00     0.012 C
HETATM   14  C16 UNL     1      -3.155   1.641   9.878  1.00  0.00     0.051 C
ENDROOT
BRANCH   1  15
HETATM   15  C1  UNL     1      -2.900   0.047  11.720  1.00  0.00     0.269 C
HETATM   16  O1  UNL     1      -2.109  -0.531  10.991  1.00  0.00    -0.304 OA
ENDBRANCH   1  15
BRANCH   1  17
HETATM   17  O2  UNL     1      -2.848   2.341  12.145  1.00  0.00    -0.383 OA
ATOM     18  H2  UNL     1      -1.935   2.408  11.895  1.00  0.00     0.211 HD
ENDBRANCH   1  17
BRANCH  12  19
HETATM   19  C14 UNL     1      -3.020   3.178   7.632  1.00  0.00     0.182 C
HETATM   20  O3  UNL     1      -2.324   2.515   6.851  1.00  0.00    -0.647 OA
HETATM   21  O4  UNL     1      -2.507   4.328   8.191  1.00  0.00    -0.647 OA
ENDBRANCH  12  19
TORSDOF 3
ENDMDL