MODEL 2
REMARK VINA RESULT: -6.220717802      6.215      7.577
REMARK  3 active torsions:
REMARK  status: ('A' for Active; 'I' for Inactive)
REMARK    1  A    between atoms: C4_5  and  C5_6
REMARK       I    between atoms: C5_6  and  N2_8
REMARK    2  A    between atoms: N2_8  and  C6_9
REMARK    3  A    between atoms: C14_17  and  O2_18
ROOT
HETATM    1  C1  UNL     1      -0.531  -4.383  13.180  1.00  0.00     0.060 C
HETATM    2  C2  UNL     1      -0.692  -2.894  13.046  1.00  0.00     0.025 C
HETATM    3  C3  UNL     1      -0.005  -2.274  11.947  1.00  0.00     0.095 C
HETATM    4  N1  UNL     1       0.566  -1.790  11.041  1.00  0.00    -0.192 NA
HETATM    5  C4  UNL     1      -1.433  -2.276  13.928  1.00  0.00     0.107 C
ENDROOT
BRANCH   5   6
HETATM    6  C5  UNL     1      -1.657  -0.768  13.876  1.00  0.00     0.312 C
HETATM    7  O1  UNL     1      -0.879  -0.133  14.601  1.00  0.00    -0.252 OA
HETATM    8  N2  UNL     1      -2.641  -0.353  13.073  1.00  0.00    -0.406 NA
BRANCH   8   9
HETATM    9  C6  UNL     1      -3.669   0.088  12.234  1.00  0.00     0.171 C
HETATM   10  C7  UNL     1      -3.459   1.543  11.923  1.00  0.00     0.044 C
HETATM   11  C8  UNL     1      -4.076   2.061  10.684  1.00  0.00    -0.008 C
HETATM   12  C9  UNL     1      -5.396   1.495  10.310  1.00  0.00     0.009 C
HETATM   13  C16 UNL     1      -3.053   1.982   9.559  1.00  0.00     0.042 C
HETATM   14  C10 UNL     1      -5.378   0.228   9.523  1.00  0.00    -0.011 C
HETATM   15  C11 UNL     1      -4.985  -0.974  10.354  1.00  0.00     0.012 C
HETATM   16  C15 UNL     1      -4.411   0.344   8.386  1.00  0.00     0.042 C
HETATM   17  C12 UNL     1      -3.637  -0.786  10.989  1.00  0.00     0.025 C
HETATM   18  C13 UNL     1      -2.612  -0.369   9.999  1.00  0.00     0.045 C
HETATM   19  C14 UNL     1      -3.042   0.598   8.953  1.00  0.00     0.059 C
BRANCH  19  20
HETATM   20  O2  UNL     1      -2.074   0.619   7.951  1.00  0.00    -0.390 OA
ATOM     21  H2  UNL     1      -1.865   1.525   7.757  1.00  0.00     0.210 HD
ENDBRANCH  19  20
ENDBRANCH   8   9
ENDBRANCH   5   6
TORSDOF 3
ENDMDL