MODEL 1
REMARK VINA RESULT: -5.227932512      0.000      0.000
REMARK  4 active torsions:
REMARK  status: ('A' for Active; 'I' for Inactive)
REMARK    1  A    between atoms: C2_2  and  C4_4
REMARK    2  A    between atoms: C5_6  and  C7_8
REMARK    3  A    between atoms: C11_12  and  O2_13
REMARK    4  A    between atoms: C16_19  and  O3_20
ROOT
HETATM    1  C4  UNL     1      -5.177   2.760   8.077  1.00  0.00     0.097 C
HETATM    2  O1  UNL     1      -4.657   3.996   7.873  1.00  0.00    -0.366 OA
HETATM    3  C5  UNL     1      -3.326   4.188   7.782  1.00  0.00     0.065 C
HETATM    4  C6  UNL     1      -2.833   4.375   6.341  1.00  0.00     0.046 C
HETATM    5  C10 UNL     1      -2.431   3.186   8.428  1.00  0.00     0.078 C
HETATM    6  C11 UNL     1      -2.927   1.785   8.377  1.00  0.00     0.089 C
HETATM    7  C12 UNL     1      -3.256   1.398   9.830  1.00  0.00     0.041 C
HETATM    8  C13 UNL     1      -4.255   2.376  10.393  1.00  0.00     0.010 C
HETATM    9  C14 UNL     1      -5.477   2.356   9.482  1.00  0.00     0.019 C
HETATM   10  C15 UNL     1      -6.614   3.014  10.172  1.00  0.00     0.013 C
HETATM   11  C16 UNL     1      -4.179   1.666   7.591  1.00  0.00     0.188 C
ENDROOT
BRANCH   3  12
HETATM   12  C7  UNL     1      -3.013   5.541   8.454  1.00  0.00     0.020 A
HETATM   13  C8  UNL     1      -3.560   5.631   9.881  1.00  0.00     0.008 A
HETATM   14  C9  UNL     1      -2.100   5.604   9.589  1.00  0.00     0.008 A
ENDBRANCH   3  12
BRANCH   1  15
HETATM   15  C2  UNL     1      -6.427   2.631   7.232  1.00  0.00     0.015 C
HETATM   16  C1  UNL     1      -7.235   3.875   7.081  1.00  0.00     0.012 C
HETATM   17  C3  UNL     1      -6.169   2.075   5.850  1.00  0.00     0.012 C
ENDBRANCH   1  15
BRANCH   6  18
HETATM   18  O2  UNL     1      -1.934   0.921   7.967  1.00  0.00    -0.387 OA
ATOM     19  H2  UNL     1      -2.140   0.025   8.205  1.00  0.00     0.210 HD
ENDBRANCH   6  18
BRANCH  11  20
HETATM   20  O3  UNL     1      -4.751   0.431   7.883  1.00  0.00    -0.389 OA
ATOM     21  H3  UNL     1      -4.169  -0.235   7.538  1.00  0.00     0.210 HD
ENDBRANCH  11  20
TORSDOF 4
ENDMDL