MODEL 5
REMARK VINA RESULT: -6.370126359      1.885      3.240
REMARK  4 active torsions:
REMARK  status: ('A' for Active; 'I' for Inactive)
REMARK    1  A    between atoms: C1_2  and  C2_4
REMARK    2  A    between atoms: N1_8  and  C6_9
REMARK    3  A    between atoms: C6_9  and  C7_14
REMARK    4  A    between atoms: N2_10  and  O3_12
ROOT
HETATM    1  C6  UNL     1      -3.097   4.908   7.737  1.00  0.00     0.114 C
HETATM    2  N2  UNL     1      -3.044   5.529   6.615  1.00  0.00    -0.256 N
ATOM      3  H2  UNL     1      -2.506   6.396   6.607  1.00  0.00     0.195 HD
ENDROOT
BRANCH   1   4
HETATM    4  N1  UNL     1      -3.808   3.708   7.869  1.00  0.00    -0.367 N
HETATM    5  C5  UNL     1      -5.248   3.752   7.932  1.00  0.00     0.124 C
HETATM    6  C4  UNL     1      -5.632   3.025   9.210  1.00  0.00     0.021 C
HETATM    7  C3  UNL     1      -5.248   1.598   9.030  1.00  0.00     0.019 C
HETATM    8  C2  UNL     1      -3.853   1.337   8.597  1.00  0.00     0.105 C
HETATM    9  C14 UNL     1      -3.126   2.452   7.939  1.00  0.00     0.139 C
BRANCH   8  10
HETATM   10  C1  UNL     1      -3.073   0.830   9.777  1.00  0.00     0.178 C
HETATM   11  O1  UNL     1      -3.116   1.443  10.871  1.00  0.00    -0.648 OA
HETATM   12  O2  UNL     1      -2.329  -0.318   9.586  1.00  0.00    -0.648 OA
ENDBRANCH   8  10
ENDBRANCH   1   4
BRANCH   1  13
HETATM   13  C7  UNL     1      -2.343   5.528   8.902  1.00  0.00     0.124 C
HETATM   14  C8  UNL     1      -2.918   4.958  10.239  1.00  0.00     0.050 C
HETATM   15  C9  UNL     1      -3.762   5.998  10.972  1.00  0.00    -0.029 C
HETATM   16  C10 UNL     1      -3.248   7.265  11.397  1.00  0.00    -0.030 C
HETATM   17  C11 UNL     1      -3.307   8.523  10.531  1.00  0.00     0.038 C
HETATM   18  C12 UNL     1      -2.559   8.316   9.168  1.00  0.00     0.084 C
HETATM   19  C13 UNL     1      -2.427   6.929   9.004  1.00  0.00    -0.170 C
ENDBRANCH   1  13
BRANCH   2  20
HETATM   20  O3  UNL     1      -3.610   5.176   5.451  1.00  0.00    -0.288 OA
ATOM     21  H3  UNL     1      -3.591   5.648   4.626  1.00  0.00     0.244 HD
ENDBRANCH   2  20
TORSDOF 4
ENDMDL