MODEL 4
REMARK VINA RESULT: -5.995831402      1.604      2.929
REMARK  3 active torsions:
REMARK  status: ('A' for Active; 'I' for Inactive)
REMARK    1  A    between atoms: O1_1  and  C1_3
REMARK    2  A    between atoms: C1_3  and  C2_4
REMARK    3  A    between atoms: N1_8  and  C6_9
ROOT
HETATM    1  C1  UNL     1      -3.240   3.055   7.588  1.00  0.00     0.065 C
HETATM    2  C11 UNL     1      -4.244   2.078   7.076  1.00  0.00     0.040 C
HETATM    3  C12 UNL     1      -5.421   2.756   6.363  1.00  0.00     0.036 C
HETATM    4  C13 UNL     1      -4.993   3.224   4.983  1.00  0.00     0.186 C
HETATM    5  C14 UNL     1      -5.327   4.691   4.836  1.00  0.00     0.035 C
HETATM    6  C15 UNL     1      -3.969   5.337   4.683  1.00  0.00     0.035 C
HETATM    7  C16 UNL     1      -3.088   4.339   5.430  1.00  0.00     0.189 C
HETATM    8  C17 UNL     1      -3.347   4.414   6.911  1.00  0.00     0.071 C
HETATM    9  N2  UNL     1      -3.564   3.088   4.858  1.00  0.00    -0.067 N
ATOM     10  H21 UNL     1      -3.231   2.889   3.916  1.00  0.00     0.278 HD
ATOM     11  H22 UNL     1      -3.173   2.244   5.279  1.00  0.00     0.278 HD
ENDROOT
BRANCH   1  12
HETATM   12  O1  UNL     1      -1.945   2.592   7.249  1.00  0.00    -0.389 OA
ATOM     13  H1  UNL     1      -2.046   1.678   7.012  1.00  0.00     0.210 HD
ENDBRANCH   1  12
BRANCH   1  14
HETATM   14  C2  UNL     1      -3.235   3.248   9.063  1.00  0.00     0.038 C
HETATM   15  C3  UNL     1      -3.520   1.916   9.735  1.00  0.00     0.014 C
HETATM   16  C4  UNL     1      -3.193   2.128  11.204  1.00  0.00     0.045 C
HETATM   17  C5  UNL     1      -4.105   3.215  11.709  1.00  0.00     0.058 C
HETATM   18  N1  UNL     1      -4.123   4.409  10.968  1.00  0.00    -0.388 N
HETATM   19  C10 UNL     1      -4.160   4.330   9.555  1.00  0.00     0.130 C
BRANCH  18  20
HETATM   20  C6  UNL     1      -3.562   5.563  11.513  1.00  0.00     0.083 C
HETATM   21  C7  UNL     1      -3.263   6.710  10.538  1.00  0.00     0.025 C
HETATM   22  C8  UNL     1      -3.446   7.628  11.758  1.00  0.00     0.004 C
HETATM   23  C9  UNL     1      -4.410   6.541  12.263  1.00  0.00     0.025 C
ENDBRANCH  18  20
ENDBRANCH   1  14
TORSDOF 3
ENDMDL