MODEL 5
REMARK VINA RESULT: -4.999248816      2.707      4.387
REMARK  5 active torsions:
REMARK  status: ('A' for Active; 'I' for Inactive)
REMARK    1  A    between atoms: C2_2  and  C5_5
REMARK    2  A    between atoms: C6_6  and  C7_7
REMARK    3  A    between atoms: N1_8  and  N2_10
REMARK    4  A    between atoms: N2_10  and  C8_12
REMARK    5  A    between atoms: C8_12  and  N3_14
ROOT
HETATM    1  N2  UNL     1      -2.224   3.297   8.627  1.00  0.00    -0.277 N
ATOM      2  H2  UNL     1      -1.743   4.121   8.987  1.00  0.00     0.189 HD
ENDROOT
BRANCH   1   3
HETATM    3  N1  UNL     1      -1.855   2.770   7.398  1.00  0.00    -0.310 N
HETATM    4  C7  UNL     1      -2.102   3.485   6.322  1.00  0.00     0.107 C
ATOM      5  H1  UNL     1      -1.407   1.857   7.332  1.00  0.00     0.186 HD
BRANCH   4   6
HETATM    6  C6  UNL     1      -2.739   4.763   6.504  1.00  0.00     0.015 C
HETATM    7  C5  UNL     1      -3.939   5.027   6.062  1.00  0.00    -0.017 C
BRANCH   7   8
HETATM    8  C2  UNL     1      -4.754   4.046   5.339  1.00  0.00    -0.034 C
HETATM    9  C1  UNL     1      -6.009   4.784   4.826  1.00  0.00     0.018 C
HETATM   10  C3  UNL     1      -3.988   3.490   4.154  1.00  0.00     0.018 C
HETATM   11  C4  UNL     1      -5.292   2.924   6.196  1.00  0.00     0.018 C
ENDBRANCH   7   8
ENDBRANCH   4   6
ENDBRANCH   1   3
BRANCH   1  12
HETATM   12  C8  UNL     1      -3.257   2.707   9.384  1.00  0.00     0.188 C
HETATM   13  S1  UNL     1      -4.606   3.546   9.780  1.00  0.00    -0.039 SA
BRANCH  12  14
HETATM   14  N3  UNL     1      -3.135   1.365   9.815  1.00  0.00    -0.356 N
HETATM   15  C9  UNL     1      -2.993   0.284   8.846  1.00  0.00     0.135 C
HETATM   16  C10 UNL     1      -4.351  -0.424   8.765  1.00  0.00     0.093 C
HETATM   17  S2  UNL     1      -4.701  -0.989  10.475  1.00  0.00    -0.166 SA
HETATM   18  C11 UNL     1      -3.275  -0.401  11.469  1.00  0.00     0.093 C
HETATM   19  C12 UNL     1      -3.155   1.101  11.240  1.00  0.00     0.135 C
ENDBRANCH  12  14
ENDBRANCH   1  12
TORSDOF 5
ENDMDL