MODEL 1
REMARK VINA RESULT: -6.031826700      0.000      0.000
REMARK  2 active torsions:
REMARK  status: ('A' for Active; 'I' for Inactive)
REMARK       I    between atoms: N1_2  and  C2_4
REMARK       I    between atoms: N3_6  and  C3_8
REMARK    1  A    between atoms: C3_8  and  C4_10
REMARK    2  A    between atoms: C5_11  and  C6_12
ROOT
HETATM    1  C4  UNL     1      -4.431   0.435   8.459  1.00  0.00     0.074 C
HETATM    2  C5  UNL     1      -5.111   1.434   8.036  1.00  0.00     0.008 C
ENDROOT
BRANCH   2   3
HETATM    3  C6  UNL     1      -4.700   2.824   8.005  1.00  0.00     0.032 C
HETATM    4  C7  UNL     1      -4.143   3.337   6.878  1.00  0.00     0.047 C
HETATM    5  C8  UNL     1      -3.675   4.731   6.692  1.00  0.00     0.067 C
HETATM    6  O2  UNL     1      -3.891   2.694   5.678  1.00  0.00    -0.344 OA
HETATM    7  C9  UNL     1      -3.878   4.940   5.187  1.00  0.00     0.045 C
HETATM    8  C10 UNL     1      -4.016   3.590   4.587  1.00  0.00     0.068 C
HETATM    9  C11 UNL     1      -3.021   3.311   3.501  1.00  0.00     0.038 C
HETATM   10  C15 UNL     1      -5.452   3.447   4.087  1.00  0.00     0.038 C
HETATM   11  C12 UNL     1      -3.284   2.076   2.738  1.00  0.00     0.003 C
HETATM   12  C13 UNL     1      -4.731   1.782   2.474  1.00  0.00     0.000 C
HETATM   13  C14 UNL     1      -5.594   1.988   3.703  1.00  0.00     0.003 C
ENDBRANCH   2   3
BRANCH   1  14
HETATM   14  C3  UNL     1      -3.116   0.453   8.999  1.00  0.00     0.247 C
HETATM   15  N3  UNL     1      -2.877   0.525  10.427  1.00  0.00    -0.298 N
HETATM   16  C2  UNL     1      -3.359  -0.367  11.223  1.00  0.00     0.190 C
ATOM     17  H3  UNL     1      -2.321   1.291  10.807  1.00  0.00     0.171 HD
HETATM   18  N1  UNL     1      -3.146  -0.331  12.628  1.00  0.00    -0.369 N
HETATM   19  N2  UNL     1      -4.126  -1.418  10.655  1.00  0.00    -0.063 NA
HETATM   20  C1  UNL     1      -1.941  -0.936  13.136  1.00  0.00     0.148 C
ATOM     21  H1  UNL     1      -3.822   0.107  13.254  1.00  0.00     0.161 HD
HETATM   22  O1  UNL     1      -2.077   0.410   8.313  1.00  0.00    -0.268 OA
ENDBRANCH   1  14
TORSDOF 2
ENDMDL