MODEL 3
REMARK VINA RESULT: -5.708555259      1.399      2.131
REMARK  3 active torsions:
REMARK  status: ('A' for Active; 'I' for Inactive)
REMARK    1  A    between atoms: C2_2  and  C3_3
REMARK    2  A    between atoms: N2_6  and  N3_8
REMARK       I    between atoms: N3_8  and  C5_10
REMARK       I    between atoms: C5_10  and  N4_12
REMARK    3  A    between atoms: N4_12  and  C6_14
ROOT
HETATM    1  C3  UNL     1      -1.825  -2.413  11.254  1.00  0.00     0.105 C
HETATM    2  C4  UNL     1      -2.309  -3.419  12.188  1.00  0.00     0.114 C
HETATM    3  N1  UNL     1      -2.700  -4.204  12.939  1.00  0.00    -0.190 NA
HETATM    4  N2  UNL     1      -2.548  -2.025  10.270  1.00  0.00    -0.290 N
ATOM      5  H2  UNL     1      -3.479  -2.416  10.125  1.00  0.00     0.187 HD
ENDROOT
BRANCH   1   6
HETATM    6  C2  UNL     1      -0.479  -1.822  11.435  1.00  0.00     0.066 C
HETATM    7  C1  UNL     1       0.553  -2.919  11.254  1.00  0.00     0.012 C
ENDBRANCH   1   6
BRANCH   4   8
HETATM    8  N3  UNL     1      -2.043  -1.060   9.401  1.00  0.00    -0.251 N
HETATM    9  C5  UNL     1      -2.814   0.101   9.155  1.00  0.00     0.335 C
HETATM   10  O1  UNL     1      -3.918   0.217   9.728  1.00  0.00    -0.246 OA
HETATM   11  N4  UNL     1      -2.282   1.095   8.254  1.00  0.00    -0.333 N
ATOM     12  H4  UNL     1      -1.372   0.920   7.828  1.00  0.00     0.165 HD
ATOM     13  H3  UNL     1      -1.137  -1.188   8.950  1.00  0.00     0.191 HD
BRANCH  11  14
HETATM   14  C6  UNL     1      -2.964   2.314   7.923  1.00  0.00     0.035 C
HETATM   15  C7  UNL     1      -2.130   3.070   6.914  1.00  0.00     0.035 C
HETATM   16  C8  UNL     1      -2.795   4.331   6.479  1.00  0.00    -0.012 C
HETATM   17  C9  UNL     1      -4.117   4.036   5.846  1.00  0.00     0.009 C
HETATM   18  C13 UNL     1      -2.947   5.206   7.709  1.00  0.00     0.009 C
HETATM   19  C10 UNL     1      -4.965   3.294   6.857  1.00  0.00    -0.012 C
HETATM   20  C11 UNL     1      -5.206   4.190   8.042  1.00  0.00     0.009 C
HETATM   21  C15 UNL     1      -4.295   2.008   7.226  1.00  0.00     0.035 C
HETATM   22  C12 UNL     1      -3.849   4.488   8.659  1.00  0.00    -0.012 C
HETATM   23  C14 UNL     1      -3.285   3.168   9.129  1.00  0.00     0.035 C
ENDBRANCH  11  14
ENDBRANCH   4   8
TORSDOF 3
ENDMDL