MODEL 5
REMARK VINA RESULT: -5.010670729      2.315      5.585
REMARK  3 active torsions:
REMARK  status: ('A' for Active; 'I' for Inactive)
REMARK    1  A    between atoms: C10_10  and  C11_11
REMARK    2  A    between atoms: C12_13  and  C13_14
REMARK    3  A    between atoms: C15_18  and  O4_19
ROOT
HETATM    1  C1  UNL     1      -7.928   0.297   5.222  1.00  0.00     0.016 C
HETATM    2  C2  UNL     1      -7.636   1.651   4.563  1.00  0.00    -0.035 C
HETATM    3  C3  UNL     1      -8.268   2.755   5.305  1.00  0.00     0.010 C
HETATM    4  C4  UNL     1      -7.324   3.196   6.403  1.00  0.00     0.011 C
HETATM    5  C5  UNL     1      -6.062   3.751   5.858  1.00  0.00    -0.026 C
HETATM    6  C6  UNL     1      -6.355   5.044   5.159  1.00  0.00     0.016 C
HETATM    7  C7  UNL     1      -5.397   2.711   5.018  1.00  0.00     0.002 C
HETATM    8  C8  UNL     1      -4.232   3.368   4.295  1.00  0.00     0.007 C
HETATM    9  C9  UNL     1      -3.380   4.182   5.174  1.00  0.00     0.013 C
HETATM   10  C10 UNL     1      -3.712   4.251   6.625  1.00  0.00     0.062 C
HETATM   11  C12 UNL     1      -5.115   4.061   7.018  1.00  0.00     0.106 C
HETATM   12  C14 UNL     1      -6.214   1.846   4.170  1.00  0.00     0.027 C
HETATM   13  C15 UNL     1      -6.644   2.250   2.810  1.00  0.00     0.124 C
HETATM   14  C16 UNL     1      -7.977   1.534   3.081  1.00  0.00     0.041 C
ENDROOT
BRANCH  11  15
HETATM   15  C13 UNL     1      -5.361   3.198   8.201  1.00  0.00     0.178 C
HETATM   16  O2  UNL     1      -5.645   3.585   9.353  1.00  0.00    -0.648 OA
HETATM   17  O3  UNL     1      -5.285   1.786   8.109  1.00  0.00    -0.648 OA
ENDBRANCH  11  15
BRANCH  10  18
HETATM   18  C11 UNL     1      -2.776   3.383   7.400  1.00  0.00     0.236 C
HETATM   19  O1  UNL     1      -1.782   2.904   6.879  1.00  0.00    -0.306 OA
ENDBRANCH  10  18
BRANCH  13  20
HETATM   20  O4  UNL     1      -6.878   3.542   2.489  1.00  0.00    -0.395 OA
ATOM     21  H4  UNL     1      -6.186   4.194   2.493  1.00  0.00     0.210 HD
ENDBRANCH  13  20
TORSDOF 3
ENDMDL