MODEL 4
REMARK VINA RESULT: -5.599996260      2.400      4.000
REMARK  3 active torsions:
REMARK  status: ('A' for Active; 'I' for Inactive)
REMARK    1  A    between atoms: C2_2  and  N1_4
REMARK    2  A    between atoms: C6_7  and  C7_8
REMARK    3  A    between atoms: C8_11  and  O3_12
ROOT
HETATM    1  N1  UNL     1      -4.309   4.534   9.329  1.00  0.00     0.092 N
HETATM    2  C4  UNL     1      -3.005   4.685   8.773  1.00  0.00     0.274 C
HETATM    3  C5  UNL     1      -3.190   5.269   7.365  1.00  0.00     0.054 C
HETATM    4  C6  UNL     1      -3.809   4.229   6.441  1.00  0.00     0.081 C
HETATM    5  C8  UNL     1      -4.750   4.966   5.525  1.00  0.00     0.138 C
HETATM    6  C9  UNL     1      -5.707   4.110   4.796  1.00  0.00     0.041 C
HETATM    7  C10 UNL     1      -6.316   2.993   5.568  1.00  0.00    -0.045 C
HETATM    8  C11 UNL     1      -6.733   1.936   4.531  1.00  0.00     0.015 C
HETATM    9  C12 UNL     1      -7.614   3.404   6.267  1.00  0.00     0.015 C
HETATM   10  C13 UNL     1      -5.379   2.299   6.513  1.00  0.00     0.016 C
HETATM   11  C14 UNL     1      -4.490   3.207   7.288  1.00  0.00     0.036 C
HETATM   12  C15 UNL     1      -5.235   3.868   8.445  1.00  0.00     0.279 C
ENDROOT
BRANCH   1  13
HETATM   13  C2  UNL     1      -4.324   4.015  10.667  1.00  0.00     0.215 C
HETATM   14  C1  UNL     1      -3.254   2.986  10.825  1.00  0.00     0.042 C
HETATM   15  C3  UNL     1      -5.646   3.497  11.124  1.00  0.00     0.042 C
ENDBRANCH   1  13
BRANCH   4  16
HETATM   16  C7  UNL     1      -2.700   3.645   5.643  1.00  0.00     0.185 C
HETATM   17  O1  UNL     1      -2.943   3.141   4.516  1.00  0.00    -0.647 OA
HETATM   18  O2  UNL     1      -1.393   3.621   6.075  1.00  0.00    -0.647 OA
ENDBRANCH   4  16
BRANCH   5  19
HETATM   19  O3  UNL     1      -3.956   5.646   4.594  1.00  0.00    -0.394 OA
ATOM     20  H3  UNL     1      -4.024   6.571   4.802  1.00  0.00     0.210 HD
ENDBRANCH   5  19
TORSDOF 3
ENDMDL