MODEL 2
REMARK VINA RESULT: -7.301981595      3.778      8.298
REMARK  14 active torsions:
REMARK  status: ('A' for Active; 'I' for Inactive)
REMARK    1  A    between atoms: O1_2  and  N1_3
REMARK    2  A    between atoms: C2_5  and  C3_6
REMARK    3  A    between atoms: C2_5  and  N2_20
REMARK    4  A    between atoms: C4_7  and  C5_8
REMARK    5  A    between atoms: C5_8  and  C6_9
REMARK    6  A    between atoms: C6_9  and  O2_10
REMARK    7  A    between atoms: O2_10  and  C7_11
REMARK    8  A    between atoms: C7_11  and  C8_13
REMARK    9  A    between atoms: C8_13  and  O4_15
REMARK   10  A    between atoms: C8_13  and  C10_17
REMARK   11  A    between atoms: C10_17  and  O5_18
REMARK   12  A    between atoms: N2_20  and  N3_22
REMARK   13  A    between atoms: C14_27  and  O6_28
REMARK   14  A    between atoms: C14_27  and  C15_30
ROOT
HETATM    1  N1  UNL     1       5.704  12.392  18.342  1.00  0.00    -0.242 N
ATOM      2  H1  UNL     1       5.607  13.406  18.275  1.00  0.00     0.196 HD
HETATM    3  C2  UNL     1       4.737  11.619  17.969  1.00  0.00     0.196 C
ENDROOT
BRANCH   3   4
HETATM    4  C3  UNL     1       4.821  10.188  18.041  1.00  0.00    -0.027 C
HETATM    5  C4  UNL     1       4.909   8.989  18.091  1.00  0.00    -0.096 C
BRANCH   5   6
HETATM    6  C5  UNL     1       5.037   7.511  18.137  1.00  0.00     0.121 C
BRANCH   6   7
HETATM    7  C6  UNL     1       6.367   7.126  18.691  1.00  0.00     0.191 C
BRANCH   7   8
HETATM    8  O2  UNL     1       7.125   6.252  17.919  1.00  0.00    -0.318 OA
BRANCH   8   9
HETATM    9  C7  UNL     1       7.488   6.548  16.628  1.00  0.00     0.295 C
HETATM   10  O3  UNL     1       8.234   7.528  16.401  1.00  0.00    -0.262 OA
BRANCH   9  11
HETATM   11  C8  UNL     1       7.023   5.737  15.467  1.00  0.00     0.162 C
HETATM   12  C9  UNL     1       5.969   6.501  14.707  1.00  0.00     0.059 C
BRANCH  11  13
HETATM   13  O4  UNL     1       6.484   4.555  15.924  1.00  0.00    -0.378 OA
ATOM     14  H4  UNL     1       6.675   3.862  15.303  1.00  0.00     0.211 HD
ENDBRANCH  11  13
BRANCH  11  15
HETATM   15  C10 UNL     1       8.164   5.445  14.513  1.00  0.00     0.212 C
BRANCH  15  16
HETATM   16  O5  UNL     1       8.735   4.215  14.719  1.00  0.00    -0.397 OA
ATOM     17  H5  UNL     1       8.863   3.726  13.915  1.00  0.00     0.209 HD
ENDBRANCH  15  16
ENDBRANCH  11  15
ENDBRANCH   9  11
ENDBRANCH   8   9
ENDBRANCH   7   8
ENDBRANCH   6   7
ENDBRANCH   5   6
ENDBRANCH   3   4
BRANCH   3  18
HETATM   18  N2  UNL     1       3.569  12.237  17.474  1.00  0.00    -0.277 N
ATOM     19  H2  UNL     1       3.633  12.870  16.677  1.00  0.00     0.189 HD
BRANCH  18  20
HETATM   20  N3  UNL     1       2.332  11.996  18.057  1.00  0.00    -0.307 N
HETATM   21  C11 UNL     1       1.313  12.726  17.834  1.00  0.00     0.007 C
HETATM   22  C12 UNL     1       1.275  13.920  16.943  1.00  0.00     0.057 C
HETATM   23  C16 UNL     1      -0.041  12.526  18.424  1.00  0.00     0.103 C
HETATM   24  C13 UNL     1       0.137  14.717  17.596  1.00  0.00     0.055 C
HETATM   25  C14 UNL     1      -0.889  13.632  17.793  1.00  0.00     0.150 C
ATOM     26  H3  UNL     1       2.236  11.202  18.691  1.00  0.00     0.186 HD
BRANCH  25  27
HETATM   27  O6  UNL     1      -1.333  13.243  16.533  1.00  0.00    -0.378 OA
ATOM     28  H6  UNL     1      -1.721  12.380  16.621  1.00  0.00     0.211 HD
ENDBRANCH  25  27
BRANCH  25  29
HETATM   29  C15 UNL     1      -2.020  14.024  18.628  1.00  0.00     0.209 C
HETATM   30  O7  UNL     1      -2.677  13.166  19.255  1.00  0.00    -0.646 OA
HETATM   31  O8  UNL     1      -2.369  15.352  18.727  1.00  0.00    -0.646 OA
ENDBRANCH  25  29
ENDBRANCH  18  20
ENDBRANCH   3  18
BRANCH   1  32
HETATM   32  O1  UNL     1       6.851  11.844  18.825  1.00  0.00    -0.283 OA
HETATM   33  C1  UNL     1       8.074  12.027  18.112  1.00  0.00     0.237 C
ENDBRANCH   1  32
TORSDOF 14
ENDMDL