MODEL 2
REMARK VINA RESULT: -8.079811826      3.473      5.201
REMARK  11 active torsions:
REMARK  status: ('A' for Active; 'I' for Inactive)
REMARK    1  A    between atoms: C2_2  and  O1_3
REMARK    2  A    between atoms: O1_3  and  N1_4
REMARK    3  A    between atoms: N1_4  and  C3_5
REMARK    4  A    between atoms: C3_5  and  O2_6
REMARK    5  A    between atoms: C3_5  and  C4_8
REMARK       I    between atoms: C4_8  and  N2_10
REMARK    6  A    between atoms: C5_14  and  C6_15
REMARK    7  A    between atoms: C6_15  and  N5_16
REMARK    8  A    between atoms: C6_15  and  O4_21
REMARK    9  A    between atoms: N5_16  and  N6_18
REMARK   10  A    between atoms: O4_21  and  C7_22
REMARK   11  A    between atoms: C10_25  and  N7_26
ROOT
HETATM    1  C4  UNL     1       2.419  13.270  17.846  1.00  0.00     0.329 C
HETATM    2  O3  UNL     1       1.402  12.926  18.285  1.00  0.00    -0.261 OA
HETATM    3  N2  UNL     1       3.719  12.874  17.796  1.00  0.00    -0.242 N
ATOM      4  H2  UNL     1       4.252  13.607  17.326  1.00  0.00     0.192 HD
HETATM    5  N3  UNL     1       4.526  11.942  18.109  1.00  0.00    -0.185 N
HETATM    6  N4  UNL     1       5.952  11.909  17.754  1.00  0.00    -0.096 NA
HETATM    7  C5  UNL     1       6.138  11.027  18.902  1.00  0.00     0.245 C
HETATM    8  C13 UNL     1       4.842  10.696  18.666  1.00  0.00     0.159 C
HETATM    9  N8  UNL     1       3.929   9.650  18.575  1.00  0.00    -0.082 NA
ENDROOT
BRANCH   7  10
HETATM   10  C6  UNL     1       6.947   9.835  18.471  1.00  0.00     0.166 C
BRANCH  10  11
HETATM   11  N5  UNL     1       8.287  10.171  18.576  1.00  0.00    -0.288 N
ATOM     12  H5  UNL     1       8.847   9.742  19.312  1.00  0.00     0.188 HD
BRANCH  11  13
HETATM   13  N6  UNL     1       8.863  11.028  17.755  1.00  0.00    -0.343 N
ATOM     14  H62 UNL     1       8.455  11.960  17.677  1.00  0.00     0.176 HD
ATOM     15  H61 UNL     1       9.689  10.786  17.209  1.00  0.00     0.176 HD
ENDBRANCH  11  13
ENDBRANCH  10  11
BRANCH  10  16
HETATM   16  O4  UNL     1       6.996   8.695  18.042  1.00  0.00    -0.294 OA
BRANCH  16  17
HETATM   17  C7  UNL     1       7.069   8.045  16.866  1.00  0.00     0.077 A
HETATM   18  C8  UNL     1       7.772   6.823  16.672  1.00  0.00     0.040 A
HETATM   19  C9  UNL     1       7.738   6.195  15.423  1.00  0.00     0.039 A
HETATM   20  C10 UNL     1       7.032   6.743  14.368  1.00  0.00     0.103 A
HETATM   21  C11 UNL     1       6.311   7.971  14.591  1.00  0.00     0.039 A
HETATM   22  C12 UNL     1       6.344   8.567  15.798  1.00  0.00     0.040 A
BRANCH  20  23
HETATM   23  N7  UNL     1       7.293   6.349  13.073  1.00  0.00    -0.116 N
HETATM   24  O5  UNL     1       6.343   6.455  12.173  1.00  0.00    -0.532 OA
HETATM   25  O6  UNL     1       8.448   5.919  12.581  1.00  0.00    -0.532 OA
ENDBRANCH  20  23
ENDBRANCH  16  17
ENDBRANCH  10  16
ENDBRANCH   7  10
BRANCH   1  26
HETATM   26  C3  UNL     1       2.466  14.652  16.993  1.00  0.00     0.317 C
BRANCH  26  27
HETATM   27  N1  UNL     1       2.124  14.453  15.781  1.00  0.00    -0.249 NA
BRANCH  27  28
HETATM   28  O1  UNL     1       1.762  14.287  14.596  1.00  0.00    -0.207 OA
BRANCH  28  29
HETATM   29  C2  UNL     1       0.536  13.505  14.618  1.00  0.00     0.213 C
HETATM   30  C1  UNL     1      -0.519  14.635  14.848  1.00  0.00     0.037 C
ENDBRANCH  28  29
ENDBRANCH  27  28
ENDBRANCH  26  27
BRANCH  26  31
HETATM   31  O2  UNL     1       2.864  15.417  17.971  1.00  0.00    -0.329 OA
ATOM     32  H2  UNL     1       3.445  15.627  18.693  1.00  0.00     0.220 HD
ENDBRANCH  26  31
ENDBRANCH   1  26
TORSDOF 11
ENDMDL