MODEL 3
REMARK VINA RESULT: -6.922583800      1.167      1.317
REMARK  11 active torsions:
REMARK  status: ('A' for Active; 'I' for Inactive)
REMARK    1  A    between atoms: C2_2  and  O1_3
REMARK    2  A    between atoms: O1_3  and  C3_4
REMARK    3  A    between atoms: C3_4  and  C4_6
REMARK    4  A    between atoms: C4_6  and  C5_11
REMARK    5  A    between atoms: N1_7  and  O3_9
REMARK    6  A    between atoms: C6_15  and  C7_16
REMARK    7  A    between atoms: C7_16  and  C8_17
REMARK    8  A    between atoms: C8_17  and  N5_23
REMARK    9  A    between atoms: N3_18  and  N4_20
REMARK   10  A    between atoms: N5_23  and  N6_25
REMARK   11  A    between atoms: N6_25  and  S1_27
ROOT
HETATM    1  C5  UNL     1       7.034   8.396  17.489  1.00  0.00     0.262 C
HETATM    2  N2  UNL     1       8.085   9.177  16.836  1.00  0.00    -0.050 N
ATOM      3  H21 UNL     1       7.991   9.253  15.823  1.00  0.00     0.279 HD
ATOM      4  H22 UNL     1       9.001   8.728  16.822  1.00  0.00     0.279 HD
HETATM    5  C6  UNL     1       8.045  10.432  17.537  1.00  0.00     0.255 C
HETATM    6  S2  UNL     1       6.224  10.746  17.544  1.00  0.00    -0.124 SA
HETATM    7  C9  UNL     1       5.754   9.006  17.072  1.00  0.00     0.037 C
HETATM    8  C10 UNL     1       4.604   8.654  17.981  1.00  0.00     0.029 C
HETATM    9  C11 UNL     1       5.403   9.081  15.647  1.00  0.00     0.029 C
ENDROOT
BRANCH   5  10
HETATM   10  C7  UNL     1       8.762  11.575  16.937  1.00  0.00     0.123 C
BRANCH  10  11
HETATM   11  C8  UNL     1      10.063  11.929  17.466  1.00  0.00     0.113 C
HETATM   12  N3  UNL     1      10.231  12.934  18.289  1.00  0.00    -0.294 N
ATOM     13  H3  UNL     1      11.154  13.169  18.652  1.00  0.00     0.187 HD
BRANCH  12  14
HETATM   14  N4  UNL     1       9.104  13.669  18.652  1.00  0.00    -0.344 N
ATOM     15  H42 UNL     1       8.532  13.375  19.443  1.00  0.00     0.176 HD
ATOM     16  H41 UNL     1       8.882  14.499  18.101  1.00  0.00     0.176 HD
ENDBRANCH  12  14
BRANCH  11  17
HETATM   17  N5  UNL     1      11.234  11.215  17.129  1.00  0.00    -0.278 N
ATOM     18  H5  UNL     1      12.031  11.723  16.747  1.00  0.00     0.189 HD
BRANCH  17  19
HETATM   19  N6  UNL     1      11.334   9.837  17.303  1.00  0.00    -0.212 N
ATOM     20  H6  UNL     1      11.490   9.145  16.571  1.00  0.00     0.201 HD
BRANCH  19  21
HETATM   21  S1  UNL     1      11.145   9.520  18.992  1.00  0.00     0.373 S
HETATM   22  O4  UNL     1      12.438   9.137  19.640  1.00  0.00    -0.186 OA
HETATM   23  O5  UNL     1      10.125   8.462  19.256  1.00  0.00    -0.186 OA
ENDBRANCH  19  21
ENDBRANCH  17  19
ENDBRANCH  11  17
ENDBRANCH  10  11
ENDBRANCH   5  10
BRANCH   1  24
HETATM   24  C4  UNL     1       7.210   6.977  17.478  1.00  0.00     0.139 C
HETATM   25  N1  UNL     1       7.290   6.328  18.629  1.00  0.00    -0.265 N
ATOM     26  H1  UNL     1       7.407   5.314  18.633  1.00  0.00     0.194 HD
BRANCH  24  27
HETATM   27  C3  UNL     1       7.309   6.071  16.346  1.00  0.00     0.309 C
HETATM   28  O2  UNL     1       6.657   5.017  16.348  1.00  0.00    -0.258 OA
BRANCH  27  29
HETATM   29  O1  UNL     1       8.103   6.297  15.225  1.00  0.00    -0.317 OA
BRANCH  29  30
HETATM   30  C2  UNL     1       7.838   5.692  13.974  1.00  0.00     0.175 C
HETATM   31  C1  UNL     1       6.795   6.490  13.192  1.00  0.00     0.034 C
ENDBRANCH  29  30
ENDBRANCH  27  29
ENDBRANCH  24  27
BRANCH  25  32
HETATM   32  O3  UNL     1       7.217   7.002  19.803  1.00  0.00    -0.290 OA
ATOM     33  H3  UNL     1       7.562   6.616  20.600  1.00  0.00     0.244 HD
ENDBRANCH  25  32
ENDBRANCH   1  24
TORSDOF 11
ENDMDL