MODEL 3
REMARK VINA RESULT: -7.467132955      1.504      2.031
REMARK  14 active torsions:
REMARK  status: ('A' for Active; 'I' for Inactive)
REMARK    1  A    between atoms: C2_2  and  O1_3
REMARK    2  A    between atoms: O1_3  and  C3_4
REMARK    3  A    between atoms: C3_4  and  C4_6
REMARK    4  A    between atoms: C4_6  and  O3_7
REMARK    5  A    between atoms: C4_6  and  C5_9
REMARK    6  A    between atoms: C6_10  and  C7_11
REMARK    7  A    between atoms: C7_11  and  O4_12
REMARK    8  A    between atoms: C7_11  and  O5_14
REMARK    9  A    between atoms: C9_18  and  N2_19
REMARK   10  A    between atoms: N3_22  and  C10_23
REMARK   11  A    between atoms: C10_23  and  O6_24
REMARK   12  A    between atoms: C10_23  and  C11_26
REMARK   13  A    between atoms: C11_26  and  C12_27
REMARK       I    between atoms: C12_27  and  N4_29
REMARK   14  A    between atoms: N4_29  and  N5_30
REMARK       I    between atoms: N5_30  and  C13_32
ROOT
HETATM    1  C5  UNL     1       6.774  11.162  18.543  1.00  0.00     0.106 A
HETATM    2  C6  UNL     1       6.634  12.509  18.256  1.00  0.00     0.134 A
HETATM    3  N1  UNL     1       5.329  12.721  17.910  1.00  0.00    -0.185 N
ATOM      4  H1  UNL     1       4.918  13.613  17.632  1.00  0.00     0.184 HD
HETATM    5  C9  UNL     1       4.702  11.577  17.997  1.00  0.00     0.685 A
HETATM    6  N3  UNL     1       5.607  10.566  18.411  1.00  0.00    -0.128 N
ENDROOT
BRANCH   6   7
HETATM    7  C10 UNL     1       4.982   9.377  18.881  1.00  0.00     0.149 C
BRANCH   7   8
HETATM    8  O6  UNL     1       4.540   9.506  20.114  1.00  0.00    -0.348 OA
ATOM      9  H6  UNL     1       4.944  10.240  20.562  1.00  0.00     0.219 HD
ENDBRANCH   7   8
BRANCH   7  10
HETATM   10  C11 UNL     1       4.789   8.081  18.254  1.00  0.00     0.206 C
BRANCH  10  11
HETATM   11  C12 UNL     1       5.961   7.168  18.724  1.00  0.00     0.320 C
HETATM   12  O7  UNL     1       5.938   7.069  19.984  1.00  0.00    -0.255 OA
HETATM   13  N4  UNL     1       6.742   6.670  17.857  1.00  0.00    -0.284 NA
BRANCH  13  14
HETATM   14  N5  UNL     1       7.587   6.131  16.917  1.00  0.00    -0.200 N
HETATM   15  C13 UNL     1       7.167   6.020  15.544  1.00  0.00     0.242 C
HETATM   16  C14 UNL     1       7.997   5.448  14.491  1.00  0.00     0.119 C
HETATM   17  O8  UNL     1       5.999   6.449  15.220  1.00  0.00    -0.271 OA
ATOM     18  H5  UNL     1       8.515   5.808  17.193  1.00  0.00     0.205 HD
ENDBRANCH  13  14
ENDBRANCH  10  11
ENDBRANCH   7  10
ENDBRANCH   6   7
BRANCH   1  19
HETATM   19  C4  UNL     1       8.072  10.390  18.640  1.00  0.00     0.270 C
BRANCH  19  20
HETATM   20  C3  UNL     1       8.394   9.684  17.377  1.00  0.00     0.293 C
HETATM   21  O2  UNL     1       7.650   9.427  16.460  1.00  0.00    -0.262 OA
BRANCH  20  22
HETATM   22  O1  UNL     1       9.736   9.243  17.217  1.00  0.00    -0.320 OA
BRANCH  22  23
HETATM   23  C2  UNL     1      10.818  10.051  17.633  1.00  0.00     0.174 C
HETATM   24  C1  UNL     1      11.325   9.441  18.923  1.00  0.00     0.034 C
ENDBRANCH  22  23
ENDBRANCH  20  22
ENDBRANCH  19  20
BRANCH  19  25
HETATM   25  O3  UNL     1       7.787   9.351  19.586  1.00  0.00    -0.379 OA
ATOM     26  H3  UNL     1       6.896   9.080  19.395  1.00  0.00     0.211 HD
ENDBRANCH  19  25
ENDBRANCH   1  19
BRANCH   5  27
HETATM   27  N2  UNL     1       3.449  11.400  17.740  1.00  0.00    -0.234 N
ATOM     28  H22 UNL     1       2.738  12.132  17.732  1.00  0.00     0.174 HD
ATOM     29  H21 UNL     1       3.020  10.502  17.517  1.00  0.00     0.174 HD
ENDBRANCH   5  27
BRANCH   2  30
HETATM   30  C7  UNL     1       7.599  13.588  18.387  1.00  0.00     0.208 C
BRANCH  30  31
HETATM   31  O4  UNL     1       7.523  14.287  19.482  1.00  0.00    -0.339 OA
ATOM     32  H4  UNL     1       8.060  15.070  19.511  1.00  0.00     0.220 HD
ENDBRANCH  30  31
BRANCH  30  33
HETATM   33  O5  UNL     1       8.583  13.991  17.564  1.00  0.00    -0.334 OA
HETATM   34  C8  UNL     1       8.979  13.375  16.359  1.00  0.00     0.212 C
ENDBRANCH  30  33
ENDBRANCH   2  30
TORSDOF 14
ENDMDL