MODEL 1
REMARK VINA RESULT: -9.398300606      0.000      0.000
REMARK  9 active torsions:
REMARK  status: ('A' for Active; 'I' for Inactive)
REMARK    1  A    between atoms: O1_2  and  C2_3
REMARK    2  A    between atoms: C2_3  and  C3_5
REMARK    3  A    between atoms: C3_5  and  N1_6
REMARK    4  A    between atoms: N1_6  and  N2_7
REMARK       I    between atoms: N2_7  and  C4_9
REMARK    5  A    between atoms: C4_9  and  C5_11
REMARK    6  A    between atoms: C6_14  and  N4_15
REMARK    7  A    between atoms: N4_15  and  N5_17
REMARK    8  A    between atoms: C7_19  and  C8_20
REMARK    9  A    between atoms: C11_23  and  N6_24
ROOT
HETATM    1  C5  UNL     1       6.394  11.921  18.442  1.00  0.00     0.205 A
HETATM    2  N3  UNL     1       6.198  10.645  18.872  1.00  0.00    -0.169 N
ATOM      3  H3  UNL     1       6.971  10.112  19.270  1.00  0.00     0.186 HD
HETATM    4  C6  UNL     1       4.982  10.094  18.768  1.00  0.00     0.713 A
HETATM    5  N7  UNL     1       3.957  10.794  18.241  1.00  0.00    -0.021 N
ATOM      6  H7  UNL     1       3.038  10.357  18.169  1.00  0.00     0.203 HD
HETATM    7  C14 UNL     1       4.121  12.048  17.811  1.00  0.00     0.692 A
HETATM    8  N8  UNL     1       3.152  12.716  17.312  1.00  0.00    -0.234 N
ATOM      9  H81 UNL     1       3.278  13.673  16.984  1.00  0.00     0.174 HD
ATOM     10  H82 UNL     1       2.222  12.305  17.228  1.00  0.00     0.174 HD
HETATM   11  N9  UNL     1       5.366  12.598  17.924  1.00  0.00    -0.170 N
ATOM     12  H9  UNL     1       5.515  13.554  17.601  1.00  0.00     0.186 HD
ENDROOT
BRANCH   4  13
HETATM   13  N4  UNL     1       4.766   8.883  19.170  1.00  0.00    -0.132 N
ATOM     14  H4  UNL     1       3.836   8.483  19.047  1.00  0.00     0.205 HD
BRANCH  13  15
HETATM   15  N5  UNL     1       5.730   8.126  19.747  1.00  0.00    -0.297 N
HETATM   16  C7  UNL     1       6.576   7.304  19.353  1.00  0.00     0.119 C
ATOM     17  H5  UNL     1       5.773   8.265  20.757  1.00  0.00     0.186 HD
BRANCH  16  18
HETATM   18  C8  UNL     1       6.804   6.862  17.988  1.00  0.00    -0.019 A
HETATM   19  C9  UNL     1       7.572   7.659  17.118  1.00  0.00     0.015 A
HETATM   20  C10 UNL     1       7.831   7.310  15.816  1.00  0.00     0.037 A
HETATM   21  C11 UNL     1       7.347   6.141  15.276  1.00  0.00     0.102 A
HETATM   22  C12 UNL     1       6.593   5.346  16.109  1.00  0.00     0.037 A
HETATM   23  C13 UNL     1       6.332   5.703  17.431  1.00  0.00     0.015 A
BRANCH  21  24
HETATM   24  N6  UNL     1       7.612   5.776  13.923  1.00  0.00    -0.116 N
HETATM   25  O4  UNL     1       8.656   5.129  13.667  1.00  0.00    -0.532 OA
HETATM   26  O5  UNL     1       6.707   6.150  12.967  1.00  0.00    -0.532 OA
ENDBRANCH  21  24
ENDBRANCH  16  18
ENDBRANCH  13  15
ENDBRANCH   4  13
BRANCH   1  27
HETATM   27  C4  UNL     1       7.714  12.510  18.565  1.00  0.00     0.302 C
HETATM   28  N2  UNL     1       8.850  11.895  18.032  1.00  0.00    -0.267 N
ATOM     29  H2  UNL     1       8.774  11.004  17.540  1.00  0.00     0.185 HD
HETATM   30  O3  UNL     1       7.819  13.611  19.175  1.00  0.00    -0.263 OA
BRANCH  28  31
HETATM   31  N1  UNL     1      10.080  12.513  18.182  1.00  0.00    -0.129 NA
BRANCH  31  32
HETATM   32  C3  UNL     1      11.203  11.720  17.781  1.00  0.00     0.246 C
BRANCH  32  33
HETATM   33  C2  UNL     1      10.974  10.275  17.974  1.00  0.00     0.274 C
HETATM   34  O2  UNL     1      10.772   9.527  16.983  1.00  0.00    -0.264 OA
BRANCH  33  35
HETATM   35  O1  UNL     1      10.972   9.693  19.231  1.00  0.00    -0.325 OA
HETATM   36  C1  UNL     1      10.117   8.580  19.487  1.00  0.00     0.213 C
ENDBRANCH  33  35
ENDBRANCH  32  33
ENDBRANCH  31  32
ENDBRANCH  28  31
ENDBRANCH   1  27
TORSDOF 9
ENDMDL