MODEL 5
REMARK VINA RESULT: -8.182142787      1.306      2.036
REMARK  9 active torsions:
REMARK  status: ('A' for Active; 'I' for Inactive)
REMARK    1  A    between atoms: O1_2  and  C2_3
REMARK    2  A    between atoms: C4_5  and  O2_6
REMARK    3  A    between atoms: C5_10  and  O3_11
REMARK    4  A    between atoms: O3_11  and  C6_12
REMARK    5  A    between atoms: C6_12  and  C7_13
REMARK    6  A    between atoms: C7_13  and  O4_14
REMARK    7  A    between atoms: C7_13  and  C8_16
REMARK    8  A    between atoms: C8_16  and  N2_17
REMARK    9  A    between atoms: N2_17  and  C9_19
ROOT
HETATM    1  C2  UNL     1      10.067  10.915  17.285  1.00  0.00     0.174 A
HETATM    2  C3  UNL     1       9.693   9.897  18.186  1.00  0.00     0.087 A
HETATM    3  C4  UNL     1      10.373   9.036  19.024  1.00  0.00     0.158 A
HETATM    4  N1  UNL     1       9.482   8.249  19.678  1.00  0.00    -0.316 N
ATOM      5  H1  UNL     1       9.735   7.529  20.355  1.00  0.00     0.170 HD
HETATM    6  C5  UNL     1       8.213   8.546  19.313  1.00  0.00     0.161 A
HETATM    7  C13 UNL     1       8.295   9.573  18.379  1.00  0.00     0.103 A
HETATM    8  C14 UNL     1       7.384  10.297  17.652  1.00  0.00     0.275 A
HETATM    9  O7  UNL     1       6.167  10.023  17.814  1.00  0.00    -0.266 OA
HETATM   10  N4  UNL     1       7.823  11.248  16.819  1.00  0.00    -0.262 N
ATOM     11  H4  UNL     1       7.121  11.769  16.294  1.00  0.00     0.190 HD
HETATM   12  N5  UNL     1       9.097  11.570  16.619  1.00  0.00    -0.272 N
HETATM   13  C15 UNL     1       9.418  12.650  15.665  1.00  0.00     0.180 C
ENDROOT
BRANCH   6  14
HETATM   14  O3  UNL     1       7.035   7.949  19.773  1.00  0.00    -0.332 OA
BRANCH  14  15
HETATM   15  C6  UNL     1       6.681   6.687  19.242  1.00  0.00     0.210 C
BRANCH  15  16
HETATM   16  C7  UNL     1       5.448   6.694  18.415  1.00  0.00     0.159 C
BRANCH  16  17
HETATM   17  O4  UNL     1       4.739   7.867  18.594  1.00  0.00    -0.392 OA
ATOM     18  H4  UNL     1       3.805   7.698  18.630  1.00  0.00     0.210 HD
ENDBRANCH  16  17
BRANCH  16  19
HETATM   19  C8  UNL     1       5.693   6.494  16.929  1.00  0.00     0.148 C
BRANCH  19  20
HETATM   20  N2  UNL     1       7.023   5.948  16.825  1.00  0.00    -0.406 N
ATOM     21  H2  UNL     1       7.362   5.215  17.448  1.00  0.00     0.154 HD
BRANCH  20  22
HETATM   22  C9  UNL     1       7.832   6.503  15.791  1.00  0.00     0.178 C
HETATM   23  C10 UNL     1       7.247   7.705  15.098  1.00  0.00     0.137 C
HETATM   24  C11 UNL     1       6.763   7.210  13.781  1.00  0.00     0.226 C
HETATM   25  O5  UNL     1       5.970   7.838  13.043  1.00  0.00    -0.273 OA
HETATM   26  N3  UNL     1       7.355   5.946  13.539  1.00  0.00    -0.296 N
HETATM   27  C12 UNL     1       7.979   5.463  14.725  1.00  0.00     0.247 C
ATOM     28  H3  UNL     1       7.336   5.453  12.646  1.00  0.00     0.171 HD
HETATM   29  O6  UNL     1       8.545   4.347  14.820  1.00  0.00    -0.271 OA
ENDBRANCH  20  22
ENDBRANCH  19  20
ENDBRANCH  16  19
ENDBRANCH  15  16
ENDBRANCH  14  15
ENDBRANCH   6  14
BRANCH   3  30
HETATM   30  O2  UNL     1      11.763   9.032  19.130  1.00  0.00    -0.345 OA
ATOM     31  H2  UNL     1      12.265   8.235  19.247  1.00  0.00     0.219 HD
ENDBRANCH   3  30
BRANCH   1  32
HETATM   32  O1  UNL     1      11.389  11.165  17.155  1.00  0.00    -0.339 OA
HETATM   33  C1  UNL     1      12.282  12.077  17.610  1.00  0.00     0.211 C
ENDBRANCH   1  32
TORSDOF 9
ENDMDL