MODEL 5
REMARK VINA RESULT: -7.704403411      2.468      6.480
REMARK  10 active torsions:
REMARK  status: ('A' for Active; 'I' for Inactive)
REMARK    1  A    between atoms: C2_2  and  N1_3
REMARK    2  A    between atoms: C2_2  and  C14_31
REMARK    3  A    between atoms: N1_3  and  C3_5
REMARK    4  A    between atoms: C3_5  and  O1_6
REMARK    5  A    between atoms: C3_5  and  C4_8
REMARK    6  A    between atoms: C4_8  and  C5_9
REMARK    7  A    between atoms: C4_8  and  N7_23
REMARK    8  A    between atoms: C5_9  and  N2_10
REMARK       I    between atoms: N2_10  and  C6_12
REMARK    9  A    between atoms: C6_12  and  C7_14
REMARK       I    between atoms: N7_23  and  C9_25
REMARK   10  A    between atoms: C9_25  and  C10_27
ROOT
HETATM    1  C4  UNL     1       6.651   8.324  18.148  1.00  0.00     0.150 C
ENDROOT
BRANCH   1   2
HETATM    2  C3  UNL     1       5.521   8.327  19.095  1.00  0.00     0.238 C
BRANCH   2   3
HETATM    3  N1  UNL     1       4.971   9.532  19.553  1.00  0.00    -0.385 N
ATOM      4  H1  UNL     1       4.912   9.692  20.559  1.00  0.00     0.156 HD
BRANCH   3   5
HETATM    5  C2  UNL     1       4.497  10.527  18.688  1.00  0.00     0.142 C
HETATM    6  C1  UNL     1       3.181  11.153  19.020  1.00  0.00     0.040 C
BRANCH   5   7
HETATM    7  C14 UNL     1       5.504  11.664  18.634  1.00  0.00     0.095 C
HETATM    8  N8  UNL     1       6.585  11.762  19.311  1.00  0.00    -0.377 N
HETATM    9  C15 UNL     1       7.325  12.968  19.029  1.00  0.00     0.140 C
ATOM     10  H8  UNL     1       6.893  11.058  19.982  1.00  0.00     0.160 HD
HETATM   11  C16 UNL     1       6.705  13.459  17.728  1.00  0.00     0.140 C
HETATM   12  N9  UNL     1       5.403  12.817  17.817  1.00  0.00    -0.377 N
ATOM     13  H9  UNL     1       4.551  13.145  17.362  1.00  0.00     0.160 HD
ENDBRANCH   5   7
ENDBRANCH   3   5
ENDBRANCH   2   3
BRANCH   2  14
HETATM   14  O1  UNL     1       6.023   7.625  20.255  1.00  0.00    -0.375 OA
ATOM     15  H1  UNL     1       6.591   6.934  19.936  1.00  0.00     0.212 HD
ENDBRANCH   2  14
ENDBRANCH   1   2
BRANCH   1  16
HETATM   16  C5  UNL     1       7.999   8.305  18.899  1.00  0.00     0.152 C
BRANCH  16  17
HETATM   17  N2  UNL     1       8.893   9.283  18.313  1.00  0.00    -0.352 N
HETATM   18  C6  UNL     1      10.234   9.355  18.774  1.00  0.00     0.288 C
HETATM   19  O2  UNL     1      10.669   8.592  19.681  1.00  0.00    -0.264 OA
ATOM     20  H2  UNL     1       8.563   9.911  17.580  1.00  0.00     0.162 HD
BRANCH  18  21
HETATM   21  C7  UNL     1      11.163  10.325  18.209  1.00  0.00     0.206 A
HETATM   22  N3  UNL     1      11.809  10.255  17.023  1.00  0.00    -0.264 N
HETATM   23  N4  UNL     1      12.547  11.331  16.889  1.00  0.00    -0.225 N
ATOM     24  H3  UNL     1      11.735   9.495  16.346  1.00  0.00     0.190 HD
HETATM   25  N5  UNL     1      12.413  12.125  17.957  1.00  0.00    -0.223 N
ATOM     26  H4  UNL     1      13.140  11.534  16.084  1.00  0.00     0.210 HD
HETATM   27  C8  UNL     1      13.089  13.393  18.128  1.00  0.00     0.202 C
HETATM   28  N6  UNL     1      11.572  11.497  18.740  1.00  0.00    -0.262 N
ATOM     29  H6  UNL     1      11.263  11.852  19.645  1.00  0.00     0.190 HD
ENDBRANCH  18  21
ENDBRANCH  16  17
ENDBRANCH   1  16
BRANCH   1  30
HETATM   30  N7  UNL     1       6.729   7.222  17.230  1.00  0.00    -0.350 N
HETATM   31  C9  UNL     1       6.745   7.297  15.820  1.00  0.00     0.225 C
HETATM   32  O3  UNL     1       6.688   8.407  15.233  1.00  0.00    -0.273 OA
ATOM     33  H7  UNL     1       6.778   6.289  17.638  1.00  0.00     0.163 HD
BRANCH  31  34
HETATM   34  C10 UNL     1       6.828   6.073  15.001  1.00  0.00     0.030 C
HETATM   35  C11 UNL     1       5.804   6.038  13.888  1.00  0.00     0.024 C
HETATM   36  C12 UNL     1       8.189   5.887  14.383  1.00  0.00     0.024 C
HETATM   37  C13 UNL     1       6.551   4.833  15.855  1.00  0.00     0.024 C
ENDBRANCH  31  34
ENDBRANCH   1  30
TORSDOF 10
ENDMDL