MODEL 5
REMARK VINA RESULT: -7.933578394      4.151      7.690
REMARK  8 active torsions:
REMARK  status: ('A' for Active; 'I' for Inactive)
REMARK    1  A    between atoms: O1_2  and  C2_3
REMARK    2  A    between atoms: C2_3  and  C3_4
REMARK    3  A    between atoms: C2_3  and  C10_24
REMARK    4  A    between atoms: C3_4  and  N1_5
REMARK    5  A    between atoms: N1_5  and  C4_7
REMARK    6  A    between atoms: C8_18  and  N5_19
REMARK    7  A    between atoms: C10_24  and  O3_25
REMARK    8  A    between atoms: C10_24  and  C11_27
REMARK       I    between atoms: C11_27  and  N7_29
ROOT
HETATM    1  C4  UNL     1       4.724  11.656  17.955  1.00  0.00     0.136 A
HETATM    2  N2  UNL     1       5.593  12.584  18.328  1.00  0.00    -0.293 N
ATOM      3  H2  UNL     1       5.337  13.565  18.219  1.00  0.00     0.172 HD
HETATM    4  C5  UNL     1       6.796  12.285  18.845  1.00  0.00     0.327 A
HETATM    5  O2  UNL     1       7.608  13.210  19.194  1.00  0.00    -0.247 OA
HETATM    6  N3  UNL     1       7.145  10.998  18.993  1.00  0.00    -0.292 N
ATOM      7  H3  UNL     1       8.055  10.751  19.382  1.00  0.00     0.172 HD
HETATM    8  C6  UNL     1       6.281  10.039  18.621  1.00  0.00     0.158 A
HETATM    9  C7  UNL     1       5.039  10.321  18.089  1.00  0.00     0.137 A
HETATM   10  N4  UNL     1       4.382   9.169  17.806  1.00  0.00    -0.184 N
ATOM     11  H4  UNL     1       3.448   9.080  17.406  1.00  0.00     0.184 HD
HETATM   12  C8  UNL     1       5.200   8.169  18.156  1.00  0.00     0.680 A
HETATM   13  N6  UNL     1       6.342   8.675  18.646  1.00  0.00    -0.170 N
HETATM   14  C9  UNL     1       7.497   7.918  19.140  1.00  0.00     0.177 C
ENDROOT
BRANCH   1  15
HETATM   15  N1  UNL     1       3.433  11.985  17.402  1.00  0.00    -0.372 N
ATOM     16  H1  UNL     1       2.918  11.282  16.871  1.00  0.00     0.161 HD
BRANCH  15  17
HETATM   17  C3  UNL     1       2.872  13.268  17.587  1.00  0.00     0.156 C
BRANCH  17  18
HETATM   18  C2  UNL     1       1.373  13.395  17.400  1.00  0.00     0.176 C
BRANCH  18  19
HETATM   19  O1  UNL     1       0.755  12.242  17.924  1.00  0.00    -0.386 OA
HETATM   20  C1  UNL     1      -0.350  12.589  18.706  1.00  0.00     0.202 C
ENDBRANCH  18  19
BRANCH  18  21
HETATM   21  C10 UNL     1       0.965  13.490  15.950  1.00  0.00     0.240 C
BRANCH  21  22
HETATM   22  O3  UNL     1       2.053  13.425  15.103  1.00  0.00    -0.383 OA
ATOM     23  H3  UNL     1       2.710  12.812  15.414  1.00  0.00     0.210 HD
ENDBRANCH  21  22
BRANCH  21  24
HETATM   24  C11 UNL     1       0.039  14.578  15.694  1.00  0.00     0.251 C
HETATM   25  O4  UNL     1       0.163  15.614  16.449  1.00  0.00    -0.270 OA
HETATM   26  N7  UNL     1      -0.989  14.662  14.725  1.00  0.00    -0.346 N
HETATM   27  C12 UNL     1      -1.814  15.885  14.637  1.00  0.00     0.152 C
HETATM   28  C15 UNL     1      -1.332  13.632  13.777  1.00  0.00     0.152 C
HETATM   29  C13 UNL     1      -1.916  16.239  13.174  1.00  0.00     0.187 C
HETATM   30  O5  UNL     1      -2.458  15.224  12.417  1.00  0.00    -0.388 OA
HETATM   31  C14 UNL     1      -2.646  14.056  13.112  1.00  0.00     0.187 C
ENDBRANCH  21  24
ENDBRANCH  18  21
ENDBRANCH  17  18
ENDBRANCH  15  17
ENDBRANCH   1  15
BRANCH  12  32
HETATM   32  N5  UNL     1       4.958   6.898  18.051  1.00  0.00    -0.234 N
ATOM     33  H52 UNL     1       5.684   6.184  17.989  1.00  0.00     0.174 HD
ATOM     34  H51 UNL     1       4.040   6.455  18.016  1.00  0.00     0.174 HD
ENDBRANCH  12  32
TORSDOF 8
ENDMDL