MODEL 1
REMARK VINA RESULT: -8.399461096      0.000      0.000
REMARK  10 active torsions:
REMARK  status: ('A' for Active; 'I' for Inactive)
REMARK    1  A    between atoms: O1_2  and  C2_3
REMARK    2  A    between atoms: C2_3  and  O2_4
REMARK    3  A    between atoms: C3_6  and  N2_9
REMARK    4  A    between atoms: N2_9  and  O3_10
REMARK    5  A    between atoms: O3_10  and  C5_11
REMARK    6  A    between atoms: C5_11  and  C6_12
REMARK    7  A    between atoms: C6_12  and  O4_13
REMARK    8  A    between atoms: C6_12  and  C7_15
REMARK    9  A    between atoms: C7_15  and  N3_16
REMARK   10  A    between atoms: N3_16  and  N4_18
ROOT
HETATM    1  C2  UNL     1       2.091  13.813  17.591  1.00  0.00     0.234 C
HETATM    2  C3  UNL     1       1.734  12.546  18.188  1.00  0.00     0.276 C
HETATM    3  C4  UNL     1       0.275  12.366  18.475  1.00  0.00     0.141 C
HETATM    4  N1  UNL     1      -0.825  12.207  18.718  1.00  0.00    -0.188 NA
ENDROOT
BRANCH   2   5
HETATM    5  N2  UNL     1       2.430  11.630  18.406  1.00  0.00    -0.265 NA
BRANCH   5   6
HETATM    6  O3  UNL     1       3.247  10.615  18.315  1.00  0.00    -0.205 OA
BRANCH   6   7
HETATM    7  C5  UNL     1       3.964  10.313  19.629  1.00  0.00     0.254 C
BRANCH   7   8
HETATM    8  C6  UNL     1       5.293  11.016  19.405  1.00  0.00     0.184 C
BRANCH   8   9
HETATM    9  O4  UNL     1       6.233  10.129  20.134  1.00  0.00    -0.388 OA
ATOM     10  H4  UNL     1       6.856   9.902  19.452  1.00  0.00     0.210 HD
ENDBRANCH   8   9
BRANCH   8  11
HETATM   11  C7  UNL     1       5.756  10.798  18.000  1.00  0.00     0.108 C
BRANCH  11  12
HETATM   12  N3  UNL     1       6.568   9.670  17.870  1.00  0.00    -0.330 N
ATOM     13  H3  UNL     1       7.512   9.640  18.254  1.00  0.00     0.179 HD
BRANCH  12  14
HETATM   14  N4  UNL     1       6.009   8.573  17.178  1.00  0.00    -0.213 NA
HETATM   15  C8  UNL     1       5.773   8.987  15.819  1.00  0.00     0.173 C
HETATM   16  C9  UNL     1       6.263   7.935  14.965  1.00  0.00     0.055 A
HETATM   17  N5  UNL     1       6.137   7.708  13.643  1.00  0.00    -0.194 N
HETATM   18  C12 UNL     1       6.902   7.008  15.726  1.00  0.00     0.059 A
HETATM   19  C10 UNL     1       6.631   6.588  13.003  1.00  0.00     0.679 A
ATOM     20  H5  UNL     1       5.647   8.405  13.081  1.00  0.00     0.184 HD
HETATM   21  N6  UNL     1       6.498   6.406  11.725  1.00  0.00    -0.234 N
HETATM   22  N7  UNL     1       7.240   5.734  13.809  1.00  0.00    -0.156 N
ATOM     23  H62 UNL     1       6.029   7.066  11.104  1.00  0.00     0.174 HD
ATOM     24  H61 UNL     1       6.863   5.579  11.253  1.00  0.00     0.174 HD
HETATM   25  C11 UNL     1       7.416   5.862  15.147  1.00  0.00     0.270 A
ATOM     26  H7  UNL     1       7.617   4.889  13.378  1.00  0.00     0.187 HD
HETATM   27  O5  UNL     1       8.007   4.992  15.813  1.00  0.00    -0.267 OA
HETATM   28  C13 UNL     1       6.957   7.495  17.116  1.00  0.00     0.060 C
HETATM   29  C14 UNL     1       8.370   8.031  17.387  1.00  0.00     0.039 C
HETATM   30  C15 UNL     1       6.725   6.412  18.120  1.00  0.00     0.039 C
ENDBRANCH  12  14
ENDBRANCH  11  12
ENDBRANCH   8  11
ENDBRANCH   7   8
ENDBRANCH   6   7
ENDBRANCH   5   6
ENDBRANCH   2   5
BRANCH   1  31
HETATM   31  O1  UNL     1       3.324  14.131  17.172  1.00  0.00    -0.333 OA
HETATM   32  C1  UNL     1       3.815  15.441  17.128  1.00  0.00     0.212 C
ENDBRANCH   1  31
BRANCH   1  33
HETATM   33  O2  UNL     1       1.116  14.677  17.468  1.00  0.00    -0.338 OA
ATOM     34  H2  UNL     1       0.272  14.396  17.136  1.00  0.00     0.220 HD
ENDBRANCH   1  33
TORSDOF 10
ENDMDL