MODEL 4
REMARK VINA RESULT: -8.382438918      1.745      4.521
REMARK  8 active torsions:
REMARK  status: ('A' for Active; 'I' for Inactive)
REMARK    1  A    between atoms: N1_1  and  C1_5
REMARK    2  A    between atoms: C1_5  and  C2_6
REMARK    3  A    between atoms: C2_6  and  C3_7
REMARK    4  A    between atoms: C3_7  and  C4_9
REMARK       I    between atoms: C4_9  and  N2_11
REMARK    5  A    between atoms: N2_11  and  C5_13
REMARK    6  A    between atoms: C6_14  and  N3_15
REMARK    7  A    between atoms: N3_15  and  C7_17
REMARK    8  A    between atoms: C8_21  and  C9_22
REMARK       I    between atoms: C9_22  and  N5_24
ROOT
HETATM    1  C5  UNL     1       8.034  10.235  17.550  1.00  0.00     0.121 A
HETATM    2  C6  UNL     1       8.825   9.112  17.805  1.00  0.00     0.120 A
HETATM    3  C14 UNL     1       9.938   9.756  17.308  1.00  0.00     0.253 A
HETATM    4  O5  UNL     1      11.163   9.524  17.123  1.00  0.00    -0.281 OA
HETATM    5  C15 UNL     1       9.157  10.865  17.056  1.00  0.00     0.253 A
HETATM    6  O6  UNL     1       9.342  12.024  16.568  1.00  0.00    -0.281 OA
ENDROOT
BRANCH   2   7
HETATM    7  N3  UNL     1       8.598   7.822  18.353  1.00  0.00    -0.328 N
ATOM      8  H3  UNL     1       9.381   7.243  18.656  1.00  0.00     0.168 HD
BRANCH   7   9
HETATM    9  C7  UNL     1       7.262   7.349  18.476  1.00  0.00     0.205 A
HETATM   10  O3  UNL     1       6.579   6.821  19.434  1.00  0.00    -0.216 OA
HETATM   11  N4  UNL     1       5.549   6.733  18.654  1.00  0.00    -0.250 N
HETATM   12  C8  UNL     1       6.170   7.272  17.593  1.00  0.00     0.176 A
ATOM     13  H4  UNL     1       4.603   6.380  18.795  1.00  0.00     0.195 HD
BRANCH  12  14
HETATM   14  C9  UNL     1       5.950   7.640  16.220  1.00  0.00     0.276 C
HETATM   15  O4  UNL     1       4.890   8.328  15.987  1.00  0.00    -0.266 OA
HETATM   16  N5  UNL     1       6.745   7.343  15.108  1.00  0.00    -0.343 N
HETATM   17  C10 UNL     1       6.312   7.830  13.778  1.00  0.00     0.153 C
HETATM   18  C13 UNL     1       7.980   6.598  15.081  1.00  0.00     0.153 C
HETATM   19  C11 UNL     1       6.394   6.757  12.739  1.00  0.00     0.252 C
HETATM   20  N6  UNL     1       7.564   5.931  12.834  1.00  0.00    -0.072 N
HETATM   21  C12 UNL     1       7.687   5.384  14.184  1.00  0.00     0.252 C
ATOM     22  H62 UNL     1       7.573   5.199  12.124  1.00  0.00     0.277 HD
ATOM     23  H61 UNL     1       8.407   6.429  12.547  1.00  0.00     0.277 HD
ENDBRANCH  12  14
ENDBRANCH   7   9
ENDBRANCH   2   7
BRANCH   1  24
HETATM   24  N2  UNL     1       6.656  10.517  17.750  1.00  0.00    -0.315 N
HETATM   25  C4  UNL     1       6.043  10.491  19.027  1.00  0.00     0.292 C
HETATM   26  O2  UNL     1       6.753  10.205  20.022  1.00  0.00    -0.264 OA
ATOM     27  H2  UNL     1       6.082  10.749  16.939  1.00  0.00     0.169 HD
BRANCH  25  28
HETATM   28  C3  UNL     1       4.635  10.781  19.207  1.00  0.00     0.218 C
HETATM   29  O1  UNL     1       3.953  10.303  20.149  1.00  0.00    -0.287 OA
BRANCH  28  30
HETATM   30  C2  UNL     1       3.918  11.686  18.258  1.00  0.00     0.116 C
BRANCH  30  31
HETATM   31  C1  UNL     1       2.442  11.744  18.614  1.00  0.00     0.237 C
BRANCH  31  32
HETATM   32  N1  UNL     1       1.697  12.374  17.549  1.00  0.00    -0.079 N
ATOM     33  H13 UNL     1       2.250  12.461  16.697  1.00  0.00     0.274 HD
ATOM     34  H12 UNL     1       0.961  11.767  17.189  1.00  0.00     0.274 HD
ATOM     35  H11 UNL     1       1.331  13.274  17.861  1.00  0.00     0.274 HD
ENDBRANCH  31  32
ENDBRANCH  30  31
ENDBRANCH  28  30
ENDBRANCH  25  28
ENDBRANCH   1  24
TORSDOF 8
ENDMDL