MODEL 1
REMARK VINA RESULT: -8.415139870      0.000      0.000
REMARK  3 active torsions:
REMARK  status: ('A' for Active; 'I' for Inactive)
REMARK    1  A    between atoms: N5_15  and  N6_16
REMARK    2  A    between atoms: N6_16  and  C6_18
REMARK    3  A    between atoms: C6_18  and  C7_19
ROOT
HETATM    1  N6  UNL     1      70.378   3.849   2.504  1.00  0.00    -0.320 N
ATOM      2  H6  UNL     1      70.811   3.029   2.077  1.00  0.00     0.181 HD
ENDROOT
BRANCH   1   3
HETATM    3  N5  UNL     1      69.370   3.712   3.470  1.00  0.00    -0.237 N
HETATM    4  C3  UNL     1      68.314   2.889   3.441  1.00  0.00     0.159 A
HETATM    5  N3  UNL     1      67.899   1.990   2.544  1.00  0.00    -0.335 N
HETATM    6  C4  UNL     1      67.571   3.076   4.594  1.00  0.00     0.123 A
HETATM    7  C2  UNL     1      66.781   1.284   2.764  1.00  0.00     0.183 A
ATOM      8  H3  UNL     1      68.435   1.841   1.689  1.00  0.00     0.168 HD
HETATM    9  N2  UNL     1      66.038   1.438   3.869  1.00  0.00    -0.337 N
HETATM   10  C1  UNL     1      66.434   2.331   4.779  1.00  0.00     0.131 A
ATOM     11  H2  UNL     1      65.192   0.888   4.010  1.00  0.00     0.168 HD
HETATM   12  N1  UNL     1      65.753   2.516   5.861  1.00  0.00    -0.383 N
ATOM     13  H12 UNL     1      64.907   1.963   5.998  1.00  0.00     0.157 HD
ATOM     14  H11 UNL     1      66.054   3.199   6.557  1.00  0.00     0.157 HD
HETATM   15  N4  UNL     1      68.216   4.028   5.304  1.00  0.00    -0.345 N
HETATM   16  C5  UNL     1      69.301   4.419   4.638  1.00  0.00     0.209 A
ATOM     17  H4  UNL     1      67.917   4.391   6.209  1.00  0.00     0.167 HD
ENDBRANCH   1   3
BRANCH   1  18
HETATM   18  C6  UNL     1      70.784   5.183   2.129  1.00  0.00     0.216 C
BRANCH  18  19
HETATM   19  C7  UNL     1      69.748   5.840   1.293  1.00  0.00     0.105 A
HETATM   20  N7  UNL     1      70.071   6.221   0.022  1.00  0.00    -0.310 N
HETATM   21  C8  UNL     1      69.174   6.821  -0.771  1.00  0.00     0.274 A
ATOM     22  H7  UNL     1      71.013   6.046  -0.330  1.00  0.00     0.170 HD
HETATM   23  O1  UNL     1      69.428   7.188  -1.947  1.00  0.00    -0.266 OA
HETATM   24  C9  UNL     1      67.907   7.058  -0.303  1.00  0.00     0.198 A
HETATM   25  C10 UNL     1      67.560   6.683   0.974  1.00  0.00     0.174 A
HETATM   26  S1  UNL     1      66.685   7.846  -1.304  1.00  0.00     0.270 S
HETATM   27  N8  UNL     1      68.506   6.074   1.748  1.00  0.00    -0.324 N
HETATM   28  O2  UNL     1      66.282   6.936   1.410  1.00  0.00    -0.314 OA
ATOM     29  H8  UNL     1      68.264   5.791   2.697  1.00  0.00     0.169 HD
HETATM   30  C11 UNL     1      65.132   6.833   0.559  1.00  0.00     0.311 C
HETATM   31  N9  UNL     1      65.242   7.917  -0.396  1.00  0.00    -0.293 N
ATOM     32  H9  UNL     1      64.535   8.643  -0.512  1.00  0.00     0.174 HD
HETATM   33  O3  UNL     1      66.516   7.113  -2.603  1.00  0.00    -0.200 OA
HETATM   34  O4  UNL     1      67.152   9.247  -1.588  1.00  0.00    -0.200 OA
ENDBRANCH  18  19
ENDBRANCH   1  18
TORSDOF 3
ENDMDL