MODEL 5
REMARK VINA RESULT: -7.356795343      1.899      2.647
REMARK  7 active torsions:
REMARK  status: ('A' for Active; 'I' for Inactive)
REMARK    1  A    between atoms: C3_4  and  C4_5
REMARK    2  A    between atoms: N2_6  and  N3_8
REMARK    3  A    between atoms: N5_17  and  C7_18
REMARK    4  A    between atoms: C7_18  and  O3_19
REMARK    5  A    between atoms: C7_18  and  C8_21
REMARK    6  A    between atoms: C8_21  and  N6_22
REMARK    7  A    between atoms: C12_31  and  N9_32
ROOT
HETATM    1  N1  UNL     1      64.693   5.619   0.323  1.00  0.00    -0.190 NA
HETATM    2  C1  UNL     1      65.849   5.676   0.279  1.00  0.00     0.119 C
HETATM    3  C2  UNL     1      67.301   5.725   0.229  1.00  0.00     0.139 A
HETATM    4  C3  UNL     1      67.936   6.576  -0.643  1.00  0.00     0.087 A
HETATM    5  C5  UNL     1      69.320   6.630  -0.700  1.00  0.00     0.264 A
HETATM    6  O1  UNL     1      69.854   7.412  -1.501  1.00  0.00    -0.267 OA
HETATM    7  N4  UNL     1      69.966   5.817   0.131  1.00  0.00    -0.274 N
ATOM      8  H4  UNL     1      70.985   5.826   0.120  1.00  0.00     0.173 HD
HETATM    9  C6  UNL     1      69.332   4.968   1.002  1.00  0.00     0.332 A
HETATM   10  O2  UNL     1      70.144   4.292   1.692  1.00  0.00    -0.246 OA
HETATM   11  N5  UNL     1      68.004   4.901   1.071  1.00  0.00    -0.260 N
ENDROOT
BRANCH   4  12
HETATM   12  C4  UNL     1      67.132   7.426  -1.512  1.00  0.00     0.126 C
HETATM   13  N2  UNL     1      67.379   8.693  -1.591  1.00  0.00    -0.317 N
ATOM     14  H2  UNL     1      68.142   9.082  -1.037  1.00  0.00     0.185 HD
BRANCH  13  15
HETATM   15  N3  UNL     1      66.641   9.539  -2.404  1.00  0.00    -0.345 N
ATOM     16  H32 UNL     1      65.697   9.785  -2.105  1.00  0.00     0.176 HD
ATOM     17  H31 UNL     1      67.013   9.913  -3.277  1.00  0.00     0.176 HD
ENDBRANCH  13  15
ENDBRANCH   4  12
BRANCH  11  18
HETATM   18  C7  UNL     1      67.333   4.033   1.961  1.00  0.00     0.250 C
BRANCH  18  19
HETATM   19  O3  UNL     1      67.609   2.684   1.762  1.00  0.00    -0.374 OA
ATOM     20  H3  UNL     1      68.470   2.511   1.399  1.00  0.00     0.212 HD
ENDBRANCH  18  19
BRANCH  18  21
HETATM   21  C8  UNL     1      67.478   4.287   3.431  1.00  0.00     0.204 C
BRANCH  21  22
HETATM   22  N6  UNL     1      67.993   3.013   3.995  1.00  0.00    -0.271 N
HETATM   23  N7  UNL     1      69.244   2.599   3.981  1.00  0.00    -0.307 N
HETATM   24  C9  UNL     1      69.356   1.408   4.592  1.00  0.00     0.128 A
ATOM     25  H7  UNL     1      70.020   3.112   3.562  1.00  0.00     0.186 HD
HETATM   26  C10 UNL     1      68.110   1.040   5.021  1.00  0.00     0.095 A
HETATM   27  C11 UNL     1      67.625  -0.071   5.699  1.00  0.00     0.275 A
HETATM   28  C13 UNL     1      67.260   2.081   4.628  1.00  0.00     0.155 A
HETATM   29  O4  UNL     1      68.396  -0.991   6.044  1.00  0.00    -0.267 OA
HETATM   30  N8  UNL     1      66.322  -0.144   5.978  1.00  0.00    -0.155 N
HETATM   31  C12 UNL     1      65.489   0.855   5.603  1.00  0.00     0.680 A
ATOM     32  H8  UNL     1      65.953  -0.954   6.476  1.00  0.00     0.187 HD
HETATM   33  N10 UNL     1      65.966   1.939   4.941  1.00  0.00    -0.174 N
ATOM     34  H10 UNL     1      65.313   2.675   4.672  1.00  0.00     0.186 HD
BRANCH  31  35
HETATM   35  N9  UNL     1      64.233   0.777   5.876  1.00  0.00    -0.234 N
ATOM     36  H92 UNL     1      63.804  -0.137   6.021  1.00  0.00     0.174 HD
ATOM     37  H91 UNL     1      63.675   1.628   5.945  1.00  0.00     0.174 HD
ENDBRANCH  31  35
ENDBRANCH  21  22
ENDBRANCH  18  21
ENDBRANCH  11  18
TORSDOF 7
ENDMDL