MODEL 3
REMARK VINA RESULT: -9.468292307      0.946      1.172
REMARK  6 active torsions:
REMARK  status: ('A' for Active; 'I' for Inactive)
REMARK    1  A    between atoms: C7_15  and  S1_16
REMARK    2  A    between atoms: S1_16  and  C8_17
REMARK    3  A    between atoms: C8_17  and  C9_18
REMARK       I    between atoms: C9_18  and  N4_20
REMARK    4  A    between atoms: N4_20  and  N5_22
REMARK    5  A    between atoms: N5_22  and  C10_24
REMARK    6  A    between atoms: N8_31  and  O4_32
ROOT
HETATM    1  C1  UNL     1      66.864   2.611   2.444  1.00  0.00     0.049 C
HETATM    2  C2  UNL     1      67.517   3.725   2.245  1.00  0.00     0.096 C
HETATM    3  N1  UNL     1      66.754   4.797   1.678  1.00  0.00    -0.319 N
ATOM      4  H1  UNL     1      65.742   4.669   1.663  1.00  0.00     0.169 HD
HETATM    5  C3  UNL     1      67.238   6.011   1.137  1.00  0.00     0.263 C
HETATM    6  O1  UNL     1      66.430   6.949   0.910  1.00  0.00    -0.267 OA
HETATM    7  C4  UNL     1      68.634   6.324   0.794  1.00  0.00     0.112 A
HETATM    8  C5  UNL     1      69.784   5.739   1.300  1.00  0.00     0.159 A
HETATM    9  N2  UNL     1      70.979   6.157   0.865  1.00  0.00    -0.292 N
ATOM     10  H2  UNL     1      71.831   5.732   1.231  1.00  0.00     0.172 HD
HETATM   11  C6  UNL     1      71.056   7.126  -0.044  1.00  0.00     0.326 A
HETATM   12  O2  UNL     1      72.177   7.550  -0.481  1.00  0.00    -0.247 OA
HETATM   13  N3  UNL     1      69.930   7.700  -0.538  1.00  0.00    -0.302 N
ATOM     14  H3  UNL     1      70.021   8.441  -1.233  1.00  0.00     0.171 HD
HETATM   15  C7  UNL     1      68.698   7.330  -0.148  1.00  0.00     0.093 A
HETATM   16  N8  UNL     1      69.914   4.686   2.278  1.00  0.00    -0.168 N
HETATM   17  C13 UNL     1      68.930   3.713   2.632  1.00  0.00     0.299 C
HETATM   18  O5  UNL     1      69.332   2.743   3.355  1.00  0.00    -0.263 OA
ENDROOT
BRANCH  15  19
HETATM   19  S1  UNL     1      67.203   8.064  -0.774  1.00  0.00    -0.102 SA
BRANCH  19  20
HETATM   20  C8  UNL     1      66.754   7.455  -2.396  1.00  0.00     0.185 C
BRANCH  20  21
HETATM   21  C9  UNL     1      66.486   8.528  -3.375  1.00  0.00     0.245 C
HETATM   22  O3  UNL     1      65.966   8.244  -4.474  1.00  0.00    -0.271 OA
HETATM   23  N4  UNL     1      66.812   9.864  -3.077  1.00  0.00    -0.267 N
ATOM     24  H4  UNL     1      67.235  10.061  -2.170  1.00  0.00     0.190 HD
BRANCH  23  25
HETATM   25  N5  UNL     1      66.595  10.930  -3.937  1.00  0.00    -0.269 N
ATOM     26  H5  UNL     1      65.684  11.389  -3.948  1.00  0.00     0.190 HD
BRANCH  25  27
HETATM   27  C10 UNL     1      67.628  11.396  -4.807  1.00  0.00     0.190 C
HETATM   28  N6  UNL     1      68.097  12.603  -4.778  1.00  0.00    -0.360 N
HETATM   29  C11 UNL     1      69.126  12.791  -5.762  1.00  0.00     0.142 C
ATOM     30  H6  UNL     1      67.777  13.329  -4.137  1.00  0.00     0.162 HD
HETATM   31  C12 UNL     1      69.502  11.387  -6.141  1.00  0.00     0.142 C
HETATM   32  N7  UNL     1      68.302  10.640  -5.827  1.00  0.00    -0.360 N
ATOM     33  H7  UNL     1      67.998   9.759  -6.243  1.00  0.00     0.162 HD
ENDBRANCH  25  27
ENDBRANCH  23  25
ENDBRANCH  20  21
ENDBRANCH  19  20
ENDBRANCH  15  19
BRANCH  16  34
HETATM   34  O4  UNL     1      71.092   4.627   2.918  1.00  0.00    -0.278 OA
ATOM     35  H4  UNL     1      71.829   4.328   2.399  1.00  0.00     0.245 HD
ENDBRANCH  16  34
TORSDOF 6
ENDMDL