MODEL 2
REMARK VINA RESULT: -8.169254752      2.919      3.353
REMARK  7 active torsions:
REMARK  status: ('A' for Active; 'I' for Inactive)
REMARK    1  A    between atoms: N1_1  and  C1_4
REMARK    2  A    between atoms: C2_7  and  S1_8
REMARK    3  A    between atoms: S1_8  and  N3_11
REMARK    4  A    between atoms: C3_14  and  C4_15
REMARK    5  A    between atoms: C8_24  and  C9_25
REMARK    6  A    between atoms: C9_25  and  N7_26
REMARK    7  A    between atoms: C9_25  and  N8_30
ROOT
HETATM    1  C1  UNL     1      70.484   7.084  -0.083  1.00  0.00     0.678 A
HETATM    2  N2  UNL     1      69.222   7.513  -0.042  1.00  0.00    -0.178 N
ATOM      3  H2  UNL     1      68.991   8.372  -0.542  1.00  0.00     0.185 HD
HETATM    4  C2  UNL     1      68.221   6.871   0.626  1.00  0.00     0.181 A
HETATM    5  C6  UNL     1      68.545   5.712   1.291  1.00  0.00     0.050 A
HETATM    6  C7  UNL     1      67.562   5.029   1.966  1.00  0.00     0.030 A
HETATM    7  C8  UNL     1      67.952   3.858   2.614  1.00  0.00     0.015 A
HETATM    8  C10 UNL     1      69.249   3.394   2.590  1.00  0.00     0.100 A
HETATM    9  N9  UNL     1      70.169   4.103   1.913  1.00  0.00    -0.350 N
ATOM     10  H9  UNL     1      71.131   3.766   1.890  1.00  0.00     0.166 HD
HETATM   11  C11 UNL     1      69.866   5.235   1.267  1.00  0.00     0.134 A
HETATM   12  N10 UNL     1      70.760   5.952   0.579  1.00  0.00    -0.176 N
ATOM     13  H10 UNL     1      71.722   5.613   0.556  1.00  0.00     0.186 HD
ENDROOT
BRANCH   4  14
HETATM   14  S1  UNL     1      66.600   7.444   0.657  1.00  0.00     0.313 S
HETATM   15  O1  UNL     1      66.595   8.604  -0.375  1.00  0.00    -0.196 OA
HETATM   16  O2  UNL     1      66.140   8.115   1.887  1.00  0.00    -0.196 OA
BRANCH  14  17
HETATM   17  N3  UNL     1      65.450   6.333  -0.019  1.00  0.00    -0.107 N
HETATM   18  N4  UNL     1      65.354   5.928  -1.273  1.00  0.00    -0.260 N
HETATM   19  C3  UNL     1      64.340   5.063  -1.435  1.00  0.00     0.185 A
ATOM     20  H4  UNL     1      65.972   6.235  -2.024  1.00  0.00     0.190 HD
HETATM   21  C5  UNL     1      63.771   4.923  -0.202  1.00  0.00     0.295 A
HETATM   22  O4  UNL     1      62.783   4.182   0.031  1.00  0.00    -0.264 OA
HETATM   23  N6  UNL     1      64.476   5.709   0.622  1.00  0.00    -0.233 N
ATOM     24  H6  UNL     1      64.285   5.813   1.619  1.00  0.00     0.193 HD
BRANCH  19  25
HETATM   25  C4  UNL     1      63.918   4.401  -2.664  1.00  0.00     0.288 C
HETATM   26  N5  UNL     1      63.304   5.105  -3.729  1.00  0.00    -0.056 NA
HETATM   27  O3  UNL     1      64.096   3.166  -2.805  1.00  0.00    -0.269 OA
ENDBRANCH  19  25
ENDBRANCH  14  17
ENDBRANCH   4  14
BRANCH   1  28
HETATM   28  N1  UNL     1      71.416   7.735  -0.739  1.00  0.00    -0.234 N
ATOM     29  H12 UNL     1      71.187   8.525  -1.343  1.00  0.00     0.174 HD
ATOM     30  H11 UNL     1      72.402   7.479  -0.672  1.00  0.00     0.174 HD
ENDBRANCH   1  28
BRANCH   7  31
HETATM   31  C9  UNL     1      66.932   3.089   3.354  1.00  0.00     0.412 C
BRANCH  31  32
HETATM   32  N7  UNL     1      66.856   3.652   4.682  1.00  0.00    -0.046 N
ATOM     33  H73 UNL     1      67.194   4.613   4.729  1.00  0.00     0.277 HD
ATOM     34  H72 UNL     1      65.900   3.836   4.985  1.00  0.00     0.277 HD
ATOM     35  H71 UNL     1      67.358   3.019   5.304  1.00  0.00     0.277 HD
ENDBRANCH  31  32
BRANCH  31  36
HETATM   36  N8  UNL     1      65.657   3.151   2.669  1.00  0.00    -0.046 N
ATOM     37  H83 UNL     1      65.727   3.646   1.781  1.00  0.00     0.277 HD
ATOM     38  H82 UNL     1      65.372   2.239   2.312  1.00  0.00     0.277 HD
ATOM     39  H81 UNL     1      64.946   3.560   3.276  1.00  0.00     0.277 HD
ENDBRANCH  31  36
ENDBRANCH   7  31
TORSDOF 7
ENDMDL