MODEL 1
REMARK VINA RESULT: -8.161345765      0.000      0.000
REMARK  7 active torsions:
REMARK  status: ('A' for Active; 'I' for Inactive)
REMARK       I    between atoms: C1_4  and  N3_6
REMARK    1  A    between atoms: N3_6  and  C2_8
REMARK    2  A    between atoms: C3_11  and  N5_12
REMARK    3  A    between atoms: N5_12  and  N6_14
REMARK    4  A    between atoms: N6_14  and  C4_16
REMARK    5  A    between atoms: C5_20  and  S1_21
REMARK    6  A    between atoms: S1_21  and  N8_22
REMARK    7  A    between atoms: C6_28  and  N9_29
ROOT
HETATM    1  C2  UNL     1      71.053   3.997   2.676  1.00  0.00     0.689 A
HETATM    2  N4  UNL     1      69.973   4.764   2.461  1.00  0.00    -0.172 N
ATOM      3  H4  UNL     1      69.977   5.373   1.642  1.00  0.00     0.186 HD
HETATM    4  C3  UNL     1      68.889   4.786   3.251  1.00  0.00     0.174 A
HETATM    5  C6  UNL     1      68.867   3.973   4.361  1.00  0.00     0.216 A
HETATM    6  C7  UNL     1      69.962   3.171   4.610  1.00  0.00     0.296 A
HETATM    7  O6  UNL     1      69.922   2.434   5.631  1.00  0.00    -0.265 OA
HETATM    8  N10 UNL     1      71.012   3.203   3.775  1.00  0.00    -0.154 N
ATOM      9  H10 UNL     1      71.813   2.604   3.976  1.00  0.00     0.187 HD
ENDROOT
BRANCH   4  10
HETATM   10  N5  UNL     1      67.774   5.635   2.949  1.00  0.00    -0.281 N
ATOM     11  H5  UNL     1      67.596   6.489   3.479  1.00  0.00     0.188 HD
BRANCH  10  12
HETATM   12  N6  UNL     1      66.939   5.244   1.898  1.00  0.00    -0.271 N
ATOM     13  H6  UNL     1      66.256   4.494   2.007  1.00  0.00     0.189 HD
BRANCH  12  14
HETATM   14  C4  UNL     1      67.080   5.889   0.767  1.00  0.00     0.230 A
HETATM   15  O1  UNL     1      68.195   6.151   0.164  1.00  0.00    -0.209 OA
HETATM   16  N7  UNL     1      68.211   6.771  -0.907  1.00  0.00    -0.239 N
HETATM   17  C5  UNL     1      67.079   7.184  -1.465  1.00  0.00     0.215 A
ATOM     18  H7  UNL     1      69.101   6.966  -1.364  1.00  0.00     0.196 HD
HETATM   19  S2  UNL     1      65.948   6.599  -0.303  1.00  0.00    -0.010 SA
BRANCH  17  20
HETATM   20  S1  UNL     1      66.844   8.072  -2.966  1.00  0.00     0.281 S
HETATM   21  O2  UNL     1      66.166   9.377  -2.687  1.00  0.00    -0.199 OA
HETATM   22  O3  UNL     1      65.957   7.247  -3.849  1.00  0.00    -0.199 OA
BRANCH  20  23
HETATM   23  N8  UNL     1      68.361   8.259  -3.722  1.00  0.00    -0.323 N
ATOM     24  H82 UNL     1      68.507   8.344  -4.727  1.00  0.00     0.169 HD
ATOM     25  H81 UNL     1      69.080   8.271  -2.998  1.00  0.00     0.169 HD
ENDBRANCH  20  23
ENDBRANCH  17  20
ENDBRANCH  12  14
ENDBRANCH  10  12
ENDBRANCH   4  10
BRANCH   5  26
HETATM   26  N9  UNL     1      67.724   3.993   5.191  1.00  0.00    -0.106 N
HETATM   27  O4  UNL     1      67.645   4.799   6.122  1.00  0.00    -0.531 OA
HETATM   28  O5  UNL     1      66.712   3.108   4.948  1.00  0.00    -0.531 OA
ENDBRANCH   5  26
BRANCH   1  29
HETATM   29  N3  UNL     1      72.086   3.991   1.893  1.00  0.00    -0.163 N
HETATM   30  C1  UNL     1      72.881   5.183   1.867  1.00  0.00     0.200 C
HETATM   31  N1  UNL     1      72.505   6.210   1.171  1.00  0.00    -0.373 N
HETATM   32  N2  UNL     1      74.070   5.162   2.624  1.00  0.00    -0.063 NA
ATOM     33  H12 UNL     1      73.072   7.058   1.152  1.00  0.00     0.158 HD
ATOM     34  H11 UNL     1      71.645   6.225   0.624  1.00  0.00     0.158 HD
ATOM     35  H3  UNL     1      72.321   3.178   1.323  1.00  0.00     0.187 HD
ENDBRANCH   1  29
TORSDOF 7
ENDMDL