MODEL 2
REMARK VINA RESULT: -7.459736862      1.864      2.520
REMARK  7 active torsions:
REMARK  status: ('A' for Active; 'I' for Inactive)
REMARK    1  A    between atoms: N1_1  and  C1_4
REMARK    2  A    between atoms: C4_12  and  C5_13
REMARK    3  A    between atoms: C6_17  and  C7_18
REMARK       I    between atoms: C7_18  and  N5_20
REMARK    4  A    between atoms: N5_20  and  N6_22
REMARK    5  A    between atoms: N8_27  and  S2_28
REMARK    6  A    between atoms: S2_28  and  N9_29
REMARK    7  A    between atoms: S2_28  and  C8_33
ROOT
HETATM    1  C1  UNL     1      70.829   7.054  -0.059  1.00  0.00     0.680 A
HETATM    2  N2  UNL     1      69.763   7.319  -0.839  1.00  0.00    -0.154 N
ATOM      3  H2  UNL     1      69.805   8.064  -1.534  1.00  0.00     0.187 HD
HETATM    4  C2  UNL     1      68.626   6.579  -0.685  1.00  0.00     0.290 A
HETATM    5  O1  UNL     1      67.599   6.770  -1.372  1.00  0.00    -0.265 OA
HETATM    6  C3  UNL     1      68.556   5.569   0.251  1.00  0.00     0.149 A
HETATM    7  N3  UNL     1      67.570   4.734   0.588  1.00  0.00    -0.331 N
ATOM      8  H3  UNL     1      66.635   4.684   0.184  1.00  0.00     0.168 HD
HETATM    9  C4  UNL     1      68.079   3.968   1.579  1.00  0.00     0.168 A
HETATM   10  N8  UNL     1      69.352   4.280   1.888  1.00  0.00    -0.214 N
HETATM   11  C9  UNL     1      69.643   5.298   1.044  1.00  0.00     0.170 A
HETATM   12  N10 UNL     1      70.756   6.071   0.848  1.00  0.00    -0.173 N
ATOM     13  H10 UNL     1      71.576   5.888   1.427  1.00  0.00     0.186 HD
ENDROOT
BRANCH   9  14
HETATM   14  C5  UNL     1      67.242   2.925   2.253  1.00  0.00     0.159 A
HETATM   15  N4  UNL     1      67.705   1.701   2.502  1.00  0.00    -0.307 N
HETATM   16  S1  UNL     1      66.449   0.938   3.297  1.00  0.00     0.011 SA
ATOM     17  H4  UNL     1      68.618   1.317   2.263  1.00  0.00     0.176 HD
HETATM   18  C6  UNL     1      65.339   2.234   3.289  1.00  0.00     0.162 A
HETATM   19  N7  UNL     1      66.015   3.176   2.669  1.00  0.00    -0.328 N
ATOM     20  H7  UNL     1      65.596   4.092   2.510  1.00  0.00     0.168 HD
BRANCH  18  21
HETATM   21  C7  UNL     1      63.979   2.320   3.826  1.00  0.00     0.294 C
HETATM   22  O2  UNL     1      63.039   2.485   3.034  1.00  0.00    -0.264 OA
HETATM   23  N5  UNL     1      63.773   2.214   5.209  1.00  0.00    -0.271 N
ATOM     24  H5  UNL     1      64.578   2.079   5.820  1.00  0.00     0.189 HD
BRANCH  23  25
HETATM   25  N6  UNL     1      62.484   2.289   5.781  1.00  0.00    -0.342 N
ATOM     26  H62 UNL     1      62.064   3.212   5.894  1.00  0.00     0.176 HD
ATOM     27  H61 UNL     1      61.976   1.457   6.078  1.00  0.00     0.176 HD
ENDBRANCH  23  25
ENDBRANCH  18  21
ENDBRANCH   9  14
BRANCH  10  28
HETATM   28  S2  UNL     1      70.442   3.492   3.073  1.00  0.00     0.172 S
HETATM   29  O3  UNL     1      69.277   5.056   4.513  1.00  0.00    -0.220 OA
BRANCH  28  30
HETATM   30  N9  UNL     1      71.946   3.909   2.787  1.00  0.00    -0.339 N
ATOM     31  H92 UNL     1      72.397   4.735   3.179  1.00  0.00     0.167 HD
ATOM     32  H91 UNL     1      72.383   3.231   2.161  1.00  0.00     0.167 HD
ENDBRANCH  28  30
BRANCH  28  33
HETATM   33  C8  UNL     1      70.367   2.774   4.596  1.00  0.00     0.366 C
HETATM   34  O4  UNL     1      69.612   1.802   4.956  1.00  0.00    -0.290 OA
ENDBRANCH  28  33
ENDBRANCH  10  28
BRANCH   1  35
HETATM   35  N1  UNL     1      71.882   7.778  -0.239  1.00  0.00    -0.234 N
ATOM     36  H12 UNL     1      72.271   7.986  -1.160  1.00  0.00     0.174 HD
ATOM     37  H11 UNL     1      72.333   8.154   0.594  1.00  0.00     0.174 HD
ENDBRANCH   1  35
TORSDOF 7
ENDMDL