MODEL 5
REMARK VINA RESULT: -7.623171341      1.229      1.229
REMARK  5 active torsions:
REMARK  status: ('A' for Active; 'I' for Inactive)
REMARK       I    between atoms: C2_2  and  N1_4
REMARK    1  A    between atoms: N1_4  and  C3_6
REMARK    2  A    between atoms: C4_7  and  C5_8
REMARK       I    between atoms: C5_8  and  N2_10
REMARK    3  A    between atoms: N2_10  and  N3_12
REMARK    4  A    between atoms: C8_19  and  C9_20
REMARK    5  A    between atoms: N7_24  and  O3_25
ROOT
HETATM    1  C3  UNL     1      68.701   4.969   0.600  1.00  0.00     0.120 A
HETATM    2  C4  UNL     1      67.419   4.518   0.972  1.00  0.00     0.083 A
HETATM    3  C8  UNL     1      66.329   5.137   0.452  1.00  0.00     0.067 A
HETATM    4  C12 UNL     1      66.538   6.239  -0.432  1.00  0.00     0.134 A
HETATM    5  N9  UNL     1      65.405   6.892  -0.951  1.00  0.00    -0.082 NA
HETATM    6  N10 UNL     1      67.745   6.663  -0.771  1.00  0.00    -0.309 N
ATOM      7  H10 UNL     1      67.866   7.452  -1.405  1.00  0.00     0.170 HD
HETATM    8  C13 UNL     1      68.791   6.031  -0.262  1.00  0.00     0.274 A
HETATM    9  O5  UNL     1      69.947   6.454  -0.610  1.00  0.00    -0.266 OA
ENDROOT
BRANCH   2  10
HETATM   10  C5  UNL     1      67.349   3.517   1.999  1.00  0.00     0.274 C
HETATM   11  O2  UNL     1      66.984   3.928   3.154  1.00  0.00    -0.266 OA
HETATM   12  N2  UNL     1      67.594   2.140   1.930  1.00  0.00    -0.257 N
ATOM     13  H2  UNL     1      67.856   1.765   1.018  1.00  0.00     0.191 HD
BRANCH  12  14
HETATM   14  N3  UNL     1      67.514   1.239   2.974  1.00  0.00    -0.242 N
HETATM   15  C6  UNL     1      66.599   0.332   3.292  1.00  0.00     0.224 A
HETATM   16  N4  UNL     1      66.971  -0.325   4.434  1.00  0.00    -0.293 N
HETATM   17  N5  UNL     1      68.115   0.173   4.825  1.00  0.00    -0.293 N
ATOM     18  H4  UNL     1      66.450  -1.069   4.897  1.00  0.00     0.187 HD
HETATM   19  C7  UNL     1      68.469   1.127   3.953  1.00  0.00     0.224 A
ATOM     20  H5  UNL     1      68.645  -0.115   5.648  1.00  0.00     0.187 HD
ENDBRANCH  12  14
ENDBRANCH   2  10
BRANCH   1  21
HETATM   21  N1  UNL     1      69.903   4.373   1.033  1.00  0.00    -0.322 N
HETATM   22  C2  UNL     1      70.487   4.677   2.288  1.00  0.00     0.218 C
HETATM   23  C1  UNL     1      71.743   4.029   2.697  1.00  0.00     0.117 C
HETATM   24  O1  UNL     1      69.919   5.498   3.035  1.00  0.00    -0.274 OA
ATOM     25  H1  UNL     1      70.368   3.701   0.423  1.00  0.00     0.169 HD
ENDBRANCH   1  21
BRANCH   3  26
HETATM   26  C9  UNL     1      64.981   4.547   0.309  1.00  0.00     0.121 C
HETATM   27  N6  UNL     1      64.789   3.554  -0.460  1.00  0.00    -0.357 N
HETATM   28  C10 UNL     1      63.591   2.847  -0.738  1.00  0.00     0.284 C
ATOM     29  H6  UNL     1      65.618   3.216  -0.950  1.00  0.00     0.162 HD
HETATM   30  N7  UNL     1      62.565   3.028   0.271  1.00  0.00    -0.192 N
HETATM   31  C11 UNL     1      62.695   4.108   1.163  1.00  0.00     0.349 C
HETATM   32  O4  UNL     1      61.733   4.379   1.929  1.00  0.00    -0.244 OA
HETATM   33  N8  UNL     1      63.910   4.876   1.186  1.00  0.00    -0.292 N
ATOM     34  H8  UNL     1      64.004   5.660   1.833  1.00  0.00     0.172 HD
BRANCH  30  35
HETATM   35  O3  UNL     1      61.544   2.153   0.299  1.00  0.00    -0.282 OA
ATOM     36  H3  UNL     1      61.750   1.226   0.332  1.00  0.00     0.245 HD
ENDBRANCH  30  35
ENDBRANCH   3  26
TORSDOF 5
ENDMDL