MODEL 1
REMARK VINA RESULT: -8.679300224      0.000      0.000
REMARK  6 active torsions:
REMARK  status: ('A' for Active; 'I' for Inactive)
REMARK    1  A    between atoms: N1_1  and  C1_5
REMARK    2  A    between atoms: C1_5  and  C2_6
REMARK    3  A    between atoms: C2_6  and  N2_7
REMARK    4  A    between atoms: N3_10  and  C5_11
REMARK    5  A    between atoms: C9_23  and  N8_24
REMARK    6  A    between atoms: N8_24  and  C10_26
ROOT
HETATM    1  C5  UNL     1      67.148   4.442   1.271  1.00  0.00     0.682 A
HETATM    2  N4  UNL     1      66.094   3.903   1.949  1.00  0.00    -0.176 N
ATOM      3  H4  UNL     1      65.148   4.187   1.696  1.00  0.00     0.185 HD
HETATM    4  C6  UNL     1      66.261   3.013   2.935  1.00  0.00     0.161 A
HETATM    5  N5  UNL     1      65.168   2.449   3.645  1.00  0.00    -0.080 NA
HETATM    6  C7  UNL     1      67.554   2.639   3.266  1.00  0.00     0.109 A
HETATM    7  N6  UNL     1      67.751   1.754   4.238  1.00  0.00    -0.304 N
ATOM      8  H6  UNL     1      66.956   1.358   4.739  1.00  0.00     0.171 HD
HETATM    9  C8  UNL     1      68.994   1.388   4.556  1.00  0.00     0.326 A
HETATM   10  O1  UNL     1      69.199   0.550   5.474  1.00  0.00    -0.247 OA
HETATM   11  N7  UNL     1      70.083   1.890   3.917  1.00  0.00    -0.292 N
ATOM     12  H7  UNL     1      71.018   1.583   4.189  1.00  0.00     0.172 HD
HETATM   13  C9  UNL     1      69.935   2.783   2.932  1.00  0.00     0.155 A
HETATM   14  C11 UNL     1      68.624   3.172   2.595  1.00  0.00     0.124 A
HETATM   15  N13 UNL     1      68.403   4.060   1.614  1.00  0.00    -0.186 N
ATOM     16  H13 UNL     1      69.198   4.458   1.113  1.00  0.00     0.184 HD
ENDROOT
BRANCH   1  17
HETATM   17  N3  UNL     1      66.917   5.370   0.235  1.00  0.00    -0.214 N
HETATM   18  C4  UNL     1      65.589   5.608  -0.282  1.00  0.00     0.171 C
HETATM   19  C3  UNL     1      65.741   6.742  -1.296  1.00  0.00     0.293 C
HETATM   20  N2  UNL     1      66.418   7.881  -0.768  1.00  0.00     0.093 N
HETATM   21  C13 UNL     1      67.647   7.596  -0.072  1.00  0.00     0.293 C
HETATM   22  C12 UNL     1      67.998   6.130  -0.343  1.00  0.00     0.171 C
BRANCH  20  23
HETATM   23  C2  UNL     1      66.739   8.858  -1.792  1.00  0.00     0.299 C
BRANCH  23  24
HETATM   24  C1  UNL     1      66.860   8.251  -3.165  1.00  0.00     0.259 C
BRANCH  24  25
HETATM   25  N1  UNL     1      67.230   9.352  -4.063  1.00  0.00    -0.078 N
ATOM     26  H13 UNL     1      66.620  10.166  -3.980  1.00  0.00     0.274 HD
ATOM     27  H12 UNL     1      68.098   9.819  -3.799  1.00  0.00     0.274 HD
ATOM     28  H11 UNL     1      67.252   8.954  -5.002  1.00  0.00     0.274 HD
ENDBRANCH  24  25
ENDBRANCH  23  24
ENDBRANCH  20  23
ENDBRANCH   1  17
BRANCH  13  29
HETATM   29  N8  UNL     1      70.901   3.261   2.311  1.00  0.00    -0.172 N
ATOM     30  H8  UNL     1      70.899   3.022   1.319  1.00  0.00     0.186 HD
BRANCH  29  31
HETATM   31  C10 UNL     1      71.984   4.052   2.680  1.00  0.00     0.712 A
HETATM   32  N9  UNL     1      72.892   4.527   1.763  1.00  0.00    -0.118 N
HETATM   33  N10 UNL     1      73.819   5.241   2.363  1.00  0.00    -0.212 N
ATOM     34  H9  UNL     1      72.852   4.350   0.759  1.00  0.00     0.207 HD
HETATM   35  N11 UNL     1      73.539   5.246   3.653  1.00  0.00     0.009 NA
ATOM     36  H10 UNL     1      74.608   5.706   1.915  1.00  0.00     0.206 HD
HETATM   37  N12 UNL     1      72.443   4.535   3.845  1.00  0.00    -0.113 N
ATOM     38  H12 UNL     1      72.006   4.375   4.753  1.00  0.00     0.203 HD
ENDBRANCH  29  31
ENDBRANCH  13  29
TORSDOF 6
ENDMDL