MODEL 2
REMARK VINA RESULT: -8.615351426      0.859      1.384
REMARK  6 active torsions:
REMARK  status: ('A' for Active; 'I' for Inactive)
REMARK    1  A    between atoms: N1_1  and  N2_4
REMARK    2  A    between atoms: N2_4  and  C1_6
REMARK    3  A    between atoms: C2_11  and  N5_12
REMARK    4  A    between atoms: N5_12  and  S1_14
REMARK    5  A    between atoms: S1_14  and  C3_17
REMARK    6  A    between atoms: C6_20  and  N6_21
ROOT
HETATM    1  S1  UNL     1      70.105   3.754   4.247  1.00  0.00     0.276 S
HETATM    2  O1  UNL     1      69.422   4.240   5.501  1.00  0.00    -0.200 OA
HETATM    3  O2  UNL     1      71.587   4.072   4.362  1.00  0.00    -0.200 OA
ENDROOT
BRANCH   1   4
HETATM    4  N5  UNL     1      69.949   2.073   4.021  1.00  0.00    -0.111 N
ATOM      5  H5  UNL     1      70.627   1.584   3.438  1.00  0.00     0.197 HD
BRANCH   4   6
HETATM    6  C2  UNL     1      68.997   1.410   4.566  1.00  0.00     0.709 A
HETATM    7  N4  UNL     1      69.281   0.199   5.122  1.00  0.00    -0.130 N
HETATM    8  N3  UNL     1      68.359  -0.545   5.703  1.00  0.00    -0.266 N
ATOM      9  H4  UNL     1      70.241  -0.145   5.088  1.00  0.00     0.205 HD
HETATM   10  C1  UNL     1      67.081  -0.145   5.776  1.00  0.00     0.204 A
ATOM     11  H3  UNL     1      68.624  -1.444   6.105  1.00  0.00     0.189 HD
HETATM   12  C12 UNL     1      66.773   1.078   5.220  1.00  0.00     0.306 A
HETATM   13  N11 UNL     1      67.728   1.841   4.623  1.00  0.00    -0.151 N
HETATM   14  O3  UNL     1      65.574   1.452   5.289  1.00  0.00    -0.263 OA
ATOM     15  H11 UNL     1      67.479   2.743   4.217  1.00  0.00     0.188 HD
BRANCH  10  16
HETATM   16  N2  UNL     1      66.125  -0.979   6.411  1.00  0.00    -0.286 N
ATOM     17  H2  UNL     1      65.933  -1.926   6.083  1.00  0.00     0.188 HD
BRANCH  16  18
HETATM   18  N1  UNL     1      65.451  -0.419   7.526  1.00  0.00    -0.343 N
ATOM     19  H12 UNL     1      64.786   0.345   7.409  1.00  0.00     0.176 HD
ATOM     20  H11 UNL     1      65.674  -0.825   8.435  1.00  0.00     0.176 HD
ENDBRANCH  16  18
ENDBRANCH  10  16
ENDBRANCH   4   6
ENDBRANCH   1   4
BRANCH   1  21
HETATM   21  C3  UNL     1      69.395   4.637   2.911  1.00  0.00     0.080 A
HETATM   22  C4  UNL     1      69.932   4.458   1.658  1.00  0.00     0.027 A
HETATM   23  C5  UNL     1      69.382   5.147   0.606  1.00  0.00     0.031 A
HETATM   24  C6  UNL     1      68.314   6.011   0.748  1.00  0.00     0.038 A
HETATM   25  C10 UNL     1      67.790   6.178   1.999  1.00  0.00     0.031 A
HETATM   26  C11 UNL     1      68.334   5.488   3.088  1.00  0.00     0.027 A
BRANCH  24  27
HETATM   27  N6  UNL     1      67.819   6.644  -0.427  1.00  0.00    -0.304 N
HETATM   28  C7  UNL     1      66.389   6.514  -0.767  1.00  0.00     0.257 A
HETATM   29  N7  UNL     1      66.079   7.258  -1.940  1.00  0.00    -0.348 N
HETATM   30  C8  UNL     1      66.897   7.918  -2.675  1.00  0.00     0.191 A
ATOM     31  H7  UNL     1      65.101   7.268  -2.227  1.00  0.00     0.163 HD
HETATM   32  N8  UNL     1      66.424   8.626  -3.844  1.00  0.00    -0.063 NA
HETATM   33  N9  UNL     1      68.257   7.963  -2.307  1.00  0.00    -0.304 N
HETATM   34  C9  UNL     1      68.703   7.369  -1.261  1.00  0.00     0.198 A
ATOM     35  H9  UNL     1      68.909   8.485  -2.893  1.00  0.00     0.171 HD
HETATM   36  N10 UNL     1      70.117   7.426  -0.955  1.00  0.00    -0.063 NA
ENDBRANCH  24  27
ENDBRANCH   1  21
TORSDOF 6
ENDMDL