MODEL 1
REMARK VINA RESULT: -7.971918330      0.000      0.000
REMARK  14 active torsions:
REMARK  status: ('A' for Active; 'I' for Inactive)
REMARK    1  A    between atoms: N1_1  and  C1_5
REMARK    2  A    between atoms: C1_5  and  C2_6
REMARK    3  A    between atoms: C5_9  and  S1_10
REMARK    4  A    between atoms: S1_10  and  N2_13
REMARK    5  A    between atoms: N2_13  and  C6_15
REMARK    6  A    between atoms: C6_15  and  C7_16
REMARK    7  A    between atoms: C7_16  and  C8_17
REMARK    8  A    between atoms: C8_17  and  C9_18
REMARK    9  A    between atoms: C9_18  and  C10_19
REMARK   10  A    between atoms: C10_19  and  C11_20
REMARK   11  A    between atoms: C11_20  and  N3_21
REMARK   12  A    between atoms: N3_21  and  C12_23
REMARK   13  A    between atoms: C16_27  and  C17_28
REMARK   14  A    between atoms: C17_28  and  N4_29
ROOT
HETATM    1  C7  UNL     1       6.150  -7.569 -20.400  1.00  0.00    -0.011 C
ENDROOT
BRANCH   1   2
HETATM    2  C6  UNL     1       6.859  -6.281 -20.401  1.00  0.00     0.159 C
BRANCH   2   3
HETATM    3  N2  UNL     1       6.249  -5.472 -19.299  1.00  0.00    -0.312 N
ATOM      4  H2  UNL     1       6.146  -5.788 -18.335  1.00  0.00     0.172 HD
BRANCH   3   5
HETATM    5  S1  UNL     1       5.749  -3.954 -19.880  1.00  0.00     0.259 S
HETATM    6  O1  UNL     1       4.252  -3.860 -19.899  1.00  0.00    -0.201 OA
HETATM    7  O2  UNL     1       6.238  -3.786 -21.290  1.00  0.00    -0.201 OA
BRANCH   5   8
HETATM    8  C5  UNL     1       6.412  -2.706 -18.843  1.00  0.00     0.079 A
HETATM    9  C4  UNL     1       7.352  -2.993 -17.893  1.00  0.00     0.026 A
HETATM   10  C3  UNL     1       7.891  -2.014 -17.058  1.00  0.00     0.010 A
HETATM   11  C2  UNL     1       7.476  -0.705 -17.178  1.00  0.00    -0.033 A
HETATM   12  C19 UNL     1       6.529  -0.399 -18.131  1.00  0.00     0.010 A
HETATM   13  C18 UNL     1       5.994  -1.387 -18.963  1.00  0.00     0.026 A
BRANCH  11  14
HETATM   14  C1  UNL     1       8.030   0.358 -16.307  1.00  0.00     0.268 C
BRANCH  14  15
HETATM   15  N1  UNL     1       8.002   1.656 -16.966  1.00  0.00    -0.075 N
ATOM     16  H13 UNL     1       8.943   2.016 -17.122  1.00  0.00     0.274 HD
ATOM     17  H12 UNL     1       7.700   1.575 -17.936  1.00  0.00     0.274 HD
ATOM     18  H11 UNL     1       7.428   2.325 -16.451  1.00  0.00     0.274 HD
ENDBRANCH  14  15
ENDBRANCH  11  14
ENDBRANCH   5   8
ENDBRANCH   3   5
ENDBRANCH   2   3
ENDBRANCH   1   2
BRANCH   1  19
HETATM   19  C8  UNL     1       5.249  -7.967 -19.326  1.00  0.00    -0.029 C
BRANCH  19  20
HETATM   20  C9  UNL     1       4.838  -9.352 -19.083  1.00  0.00     0.028 C
BRANCH  20  21
HETATM   21  C10 UNL     1       5.355 -10.051 -17.878  1.00  0.00     0.023 C
BRANCH  21  22
HETATM   22  C11 UNL     1       5.783  -9.062 -16.789  1.00  0.00     0.121 C
BRANCH  22  23
HETATM   23  N3  UNL     1       7.040  -9.367 -16.217  1.00  0.00    -0.376 N
ATOM     24  H3  UNL     1       7.122 -10.217 -15.659  1.00  0.00     0.161 HD
BRANCH  23  25
HETATM   25  C12 UNL     1       8.073  -8.640 -16.359  1.00  0.00     0.101 A
HETATM   26  C13 UNL     1       8.179  -7.538 -17.164  1.00  0.00     0.048 A
HETATM   27  C14 UNL     1       9.364  -6.831 -17.227  1.00  0.00     0.006 A
HETATM   28  C15 UNL     1      10.432  -7.247 -16.472  1.00  0.00     0.027 A
HETATM   29  C16 UNL     1      10.332  -8.353 -15.663  1.00  0.00     0.036 A
HETATM   30  N5  UNL     1       9.162  -9.008 -15.634  1.00  0.00    -0.345 N
ATOM     31  H5  UNL     1       9.085  -9.830 -15.034  1.00  0.00     0.167 HD
BRANCH  29  32
HETATM   32  C17 UNL     1      11.484  -8.807 -14.847  1.00  0.00     0.286 C
BRANCH  32  33
HETATM   33  N4  UNL     1      11.048  -9.703 -13.807  1.00  0.00    -0.074 N
ATOM     34  H43 UNL     1      11.747  -9.798 -13.071  1.00  0.00     0.274 HD
ATOM     35  H42 UNL     1      10.294  -9.300 -13.251  1.00  0.00     0.274 HD
ATOM     36  H41 UNL     1      10.786 -10.608 -14.199  1.00  0.00     0.274 HD
ENDBRANCH  32  33
ENDBRANCH  29  32
ENDBRANCH  23  25
ENDBRANCH  22  23
ENDBRANCH  21  22
ENDBRANCH  20  21
ENDBRANCH  19  20
ENDBRANCH   1  19
TORSDOF 14
ENDMDL