MODEL 4
REMARK VINA RESULT: -8.072623411      1.173      1.990
REMARK  13 active torsions:
REMARK  status: ('A' for Active; 'I' for Inactive)
REMARK    1  A    between atoms: N1_2  and  C2_3
REMARK    2  A    between atoms: N1_2  and  C9_10
REMARK    3  A    between atoms: C2_3  and  C3_4
REMARK    4  A    between atoms: C11_12  and  N2_13
REMARK    5  A    between atoms: N2_13  and  C12_15
REMARK    6  A    between atoms: C12_15  and  C13_16
REMARK    7  A    between atoms: C13_16  and  C14_17
REMARK    8  A    between atoms: C14_17  and  C15_18
REMARK    9  A    between atoms: C15_18  and  C16_19
REMARK   10  A    between atoms: C16_19  and  N3_20
REMARK       I    between atoms: C17_22  and  N5_24
REMARK   11  A    between atoms: N5_24  and  C18_26
REMARK   12  A    between atoms: C18_26  and  C19_27
REMARK   13  A    between atoms: C19_27  and  N6_28
ROOT
HETATM    1  N2  UNL     1       7.217  -6.544 -19.630  1.00  0.00    -0.376 N
ATOM      2  H2  UNL     1       8.226  -6.678 -19.576  1.00  0.00     0.161 HD
ENDROOT
BRANCH   1   3
HETATM    3  C11 UNL     1       6.711  -5.440 -19.232  1.00  0.00     0.105 A
HETATM    4  C10 UNL     1       7.583  -4.439 -18.770  1.00  0.00     0.096 A
HETATM    5  C9  UNL     1       7.138  -3.221 -18.315  1.00  0.00     0.107 A
HETATM    6  N8  UNL     1       5.804  -3.034 -18.338  1.00  0.00    -0.339 N
HETATM    7  C20 UNL     1       4.961  -3.991 -18.782  1.00  0.00     0.183 A
ATOM      8  H8  UNL     1       5.421  -2.147 -18.012  1.00  0.00     0.168 HD
HETATM    9  N7  UNL     1       5.394  -5.178 -19.224  1.00  0.00    -0.339 N
ATOM     10  H7  UNL     1       4.728  -5.878 -19.553  1.00  0.00     0.168 HD
BRANCH   5  11
HETATM   11  N1  UNL     1       8.062  -2.251 -17.865  1.00  0.00    -0.367 N
HETATM   12  C1  UNL     1       9.375  -2.255 -18.515  1.00  0.00     0.151 C
BRANCH  11  13
HETATM   13  C2  UNL     1       7.681  -1.349 -16.826  1.00  0.00     0.162 C
BRANCH  13  14
HETATM   14  C3  UNL     1       7.480   0.045 -17.241  1.00  0.00    -0.040 A
HETATM   15  C4  UNL     1       8.181   1.094 -16.695  1.00  0.00     0.009 A
HETATM   16  C5  UNL     1       7.962   2.401 -17.126  1.00  0.00     0.001 A
HETATM   17  C6  UNL     1       7.044   2.692 -18.102  1.00  0.00     0.000 A
HETATM   18  C7  UNL     1       6.337   1.646 -18.655  1.00  0.00     0.001 A
HETATM   19  C8  UNL     1       6.559   0.342 -18.223  1.00  0.00     0.009 A
ENDBRANCH  13  14
ENDBRANCH  11  13
ENDBRANCH   5  11
ENDBRANCH   1   3
BRANCH   1  20
HETATM   20  C12 UNL     1       6.393  -7.600 -20.151  1.00  0.00     0.121 C
BRANCH  20  21
HETATM   21  C13 UNL     1       6.575  -8.926 -19.488  1.00  0.00     0.020 C
BRANCH  21  22
HETATM   22  C14 UNL     1       5.290  -9.420 -18.894  1.00  0.00     0.003 C
BRANCH  22  23
HETATM   23  C15 UNL     1       5.544  -9.990 -17.523  1.00  0.00     0.020 C
BRANCH  23  24
HETATM   24  C16 UNL     1       5.975  -8.882 -16.564  1.00  0.00     0.122 C
BRANCH  24  25
HETATM   25  N3  UNL     1       7.240  -9.184 -15.975  1.00  0.00    -0.365 N
HETATM   26  C17 UNL     1       8.336  -8.559 -16.101  1.00  0.00     0.184 C
HETATM   27  N4  UNL     1       8.433  -7.394 -16.909  1.00  0.00    -0.064 NA
HETATM   28  N5  UNL     1       9.484  -9.052 -15.405  1.00  0.00    -0.363 N
ATOM     29  H5  UNL     1       9.379  -9.742 -14.661  1.00  0.00     0.162 HD
ATOM     30  H3  UNL     1       7.264 -10.009 -15.376  1.00  0.00     0.162 HD
BRANCH  28  31
HETATM   31  C18 UNL     1      10.788  -8.564 -15.764  1.00  0.00     0.149 C
BRANCH  31  32
HETATM   32  C19 UNL     1      11.742  -8.723 -14.599  1.00  0.00     0.249 C
BRANCH  32  33
HETATM   33  N6  UNL     1      11.157  -9.666 -13.663  1.00  0.00    -0.078 N
ATOM     34  H63 UNL     1      11.082 -10.608 -14.047  1.00  0.00     0.274 HD
ATOM     35  H62 UNL     1      11.777  -9.885 -12.884  1.00  0.00     0.274 HD
ATOM     36  H61 UNL     1      10.258  -9.292 -13.359  1.00  0.00     0.274 HD
ENDBRANCH  32  33
ENDBRANCH  31  32
ENDBRANCH  28  31
ENDBRANCH  24  25
ENDBRANCH  23  24
ENDBRANCH  22  23
ENDBRANCH  21  22
ENDBRANCH  20  21
ENDBRANCH   1  20
TORSDOF 13
ENDMDL