MODEL 4
REMARK VINA RESULT: -8.633831004      1.629      2.301
REMARK  11 active torsions:
REMARK  status: ('A' for Active; 'I' for Inactive)
REMARK    1  A    between atoms: C5_5  and  C6_6
REMARK    2  A    between atoms: C6_6  and  C7_7
REMARK    3  A    between atoms: C7_7  and  C8_8
REMARK    4  A    between atoms: C10_10  and  C11_11
REMARK    5  A    between atoms: C11_11  and  O1_12
REMARK    6  A    between atoms: O1_12  and  C12_13
REMARK    7  A    between atoms: C12_13  and  C13_14
REMARK    8  A    between atoms: C13_14  and  C14_15
REMARK    9  A    between atoms: C15_16  and  C16_17
REMARK   10  A    between atoms: C16_17  and  C17_18
REMARK   11  A    between atoms: C17_18  and  N1_19
REMARK       I    between atoms: N1_19  and  C18_21
ROOT
HETATM    1  C8  UNL     1       6.885  -3.323 -18.471  1.00  0.00     0.058 A
HETATM    2  C9  UNL     1       7.527  -4.533 -18.542  1.00  0.00     0.042 A
HETATM    3  C10 UNL     1       6.937  -5.575 -19.220  1.00  0.00    -0.026 A
HETATM    4  C19 UNL     1       5.711  -5.361 -19.808  1.00  0.00     0.091 A
HETATM    5  C20 UNL     1       5.130  -4.123 -19.696  1.00  0.00     0.288 A
HETATM    6  O2  UNL     1       4.006  -3.852 -20.209  1.00  0.00    -0.260 OA
HETATM    7  O3  UNL     1       5.735  -3.167 -19.038  1.00  0.00    -0.280 OA
ENDROOT
BRANCH   3   8
HETATM    8  C11 UNL     1       7.616  -6.908 -19.308  1.00  0.00     0.206 C
BRANCH   8   9
HETATM    9  O1  UNL     1       6.825  -7.746 -20.047  1.00  0.00    -0.386 OA
BRANCH   9  10
HETATM   10  C12 UNL     1       6.628  -8.948 -19.381  1.00  0.00     0.171 C
BRANCH  10  11
HETATM   11  C13 UNL     1       5.431  -8.687 -18.446  1.00  0.00     0.053 C
BRANCH  11  12
HETATM   12  C14 UNL     1       5.533  -9.722 -17.394  1.00  0.00    -0.029 C
HETATM   13  C15 UNL     1       6.235  -9.625 -16.315  1.00  0.00    -0.029 C
BRANCH  13  14
HETATM   14  C16 UNL     1       7.045  -8.456 -15.967  1.00  0.00     0.046 C
BRANCH  14  15
HETATM   15  C17 UNL     1       8.523  -8.820 -16.162  1.00  0.00     0.126 C
BRANCH  15  16
HETATM   16  N1  UNL     1       9.240  -7.571 -16.156  1.00  0.00    -0.365 N
HETATM   17  C18 UNL     1      10.588  -7.546 -16.571  1.00  0.00     0.181 C
HETATM   18  N2  UNL     1      11.011  -6.799 -17.542  1.00  0.00    -0.374 N
HETATM   19  N3  UNL     1      11.553  -8.352 -15.929  1.00  0.00    -0.064 NA
ATOM     20  H22 UNL     1      10.314  -6.216 -18.006  1.00  0.00     0.158 HD
ATOM     21  H21 UNL     1      11.986  -6.780 -17.842  1.00  0.00     0.158 HD
ATOM     22  H1  UNL     1       8.777  -6.713 -15.855  1.00  0.00     0.162 HD
ENDBRANCH  15  16
ENDBRANCH  14  15
ENDBRANCH  13  14
ENDBRANCH  11  12
ENDBRANCH  10  11
ENDBRANCH   9  10
ENDBRANCH   8   9
ENDBRANCH   3   8
BRANCH   1  23
HETATM   23  C7  UNL     1       7.568  -2.210 -17.717  1.00  0.00     0.070 C
BRANCH  23  24
HETATM   24  C6  UNL     1       6.444  -1.291 -17.234  1.00  0.00     0.051 C
BRANCH  24  25
HETATM   25  C5  UNL     1       6.727   0.121 -17.592  1.00  0.00     0.010 A
HETATM   26  C4  UNL     1       7.749   0.763 -16.930  1.00  0.00     0.014 A
HETATM   27  C3  UNL     1       8.056   2.084 -17.227  1.00  0.00     0.025 A
HETATM   28  C2  UNL     1       7.339   2.764 -18.188  1.00  0.00     0.008 A
HETATM   29  C1  UNL     1       7.625   4.188 -18.548  1.00  0.00     0.068 C
HETATM   30  N4  UNL     1       6.349   2.104 -18.813  1.00  0.00    -0.327 N
HETATM   31  C21 UNL     1       6.026   0.822 -18.548  1.00  0.00     0.252 A
ATOM     32  H4  UNL     1       5.813   2.599 -19.527  1.00  0.00     0.169 HD
HETATM   33  O4  UNL     1       5.079   0.243 -19.168  1.00  0.00    -0.268 OA
ENDBRANCH  24  25
ENDBRANCH  23  24
ENDBRANCH   1  23
TORSDOF 11
ENDMDL