MODEL 1
REMARK VINA RESULT: -7.020086489      0.000      0.000
REMARK  12 active torsions:
REMARK  status: ('A' for Active; 'I' for Inactive)
REMARK    1  A    between atoms: C2_2  and  C3_3
REMARK    2  A    between atoms: C3_3  and  N1_4
REMARK    3  A    between atoms: C6_9  and  N3_10
REMARK    4  A    between atoms: N3_10  and  C7_12
REMARK    5  A    between atoms: C7_12  and  C8_13
REMARK    6  A    between atoms: C8_13  and  C9_14
REMARK    7  A    between atoms: C9_14  and  N4_15
REMARK    8  A    between atoms: C12_23  and  C13_24
REMARK    9  A    between atoms: C13_24  and  O1_25
REMARK   10  A    between atoms: O1_25  and  C14_26
REMARK   11  A    between atoms: C14_26  and  C15_27
REMARK   12  A    between atoms: C18_30  and  C19_31
ROOT
HETATM    1  N1  UNL     1       8.116  -1.563 -18.897  1.00  0.00    -0.284 N
HETATM    2  N2  UNL     1       8.993  -2.084 -18.027  1.00  0.00    -0.295 N
ATOM      3  H2  UNL     1       9.299  -1.621 -17.171  1.00  0.00     0.187 HD
HETATM    4  C4  UNL     1       9.409  -3.273 -18.420  1.00  0.00     0.079 A
HETATM    5  C5  UNL     1      10.290  -4.237 -17.916  1.00  0.00     0.064 A
HETATM    6  C6  UNL     1      10.524  -5.421 -18.575  1.00  0.00     0.045 A
HETATM    7  C10 UNL     1       9.850  -5.621 -19.759  1.00  0.00     0.117 A
HETATM    8  N5  UNL     1       8.997  -4.704 -20.259  1.00  0.00    -0.360 N
ATOM      9  H5  UNL     1       8.512  -4.883 -21.138  1.00  0.00     0.165 HD
HETATM   10  C11 UNL     1       8.784  -3.549 -19.596  1.00  0.00     0.091 A
HETATM   11  C12 UNL     1       7.953  -2.424 -19.881  1.00  0.00     0.102 A
ENDROOT
BRANCH  11  12
HETATM   12  C13 UNL     1       7.235  -2.414 -21.144  1.00  0.00     0.168 C
BRANCH  12  13
HETATM   13  O1  UNL     1       6.761  -3.427 -21.809  1.00  0.00    -0.356 OA
BRANCH  13  14
HETATM   14  C14 UNL     1       5.591  -4.050 -21.603  1.00  0.00     0.213 C
BRANCH  14  15
HETATM   15  C15 UNL     1       5.753  -5.284 -20.726  1.00  0.00    -0.034 A
HETATM   16  C16 UNL     1       5.531  -5.226 -19.368  1.00  0.00     0.010 A
HETATM   17  C17 UNL     1       5.680  -6.338 -18.566  1.00  0.00     0.017 A
HETATM   18  C18 UNL     1       6.056  -7.559 -19.093  1.00  0.00     0.029 A
HETATM   19  C20 UNL     1       6.277  -7.612 -20.455  1.00  0.00     0.017 A
HETATM   20  C21 UNL     1       6.128  -6.496 -21.257  1.00  0.00     0.010 A
BRANCH  18  21
HETATM   21  C19 UNL     1       6.217  -8.743 -18.258  1.00  0.00     0.264 C
HETATM   22  N6  UNL     1       6.930  -9.865 -18.728  1.00  0.00    -0.057 NA
HETATM   23  O2  UNL     1       5.713  -8.760 -17.105  1.00  0.00    -0.271 OA
ENDBRANCH  18  21
ENDBRANCH  14  15
ENDBRANCH  13  14
ENDBRANCH  12  13
ENDBRANCH  11  12
BRANCH   1  24
HETATM   24  C3  UNL     1       7.520  -0.258 -18.625  1.00  0.00     0.176 C
BRANCH  24  25
HETATM   25  C2  UNL     1       7.278  -0.030 -17.174  1.00  0.00    -0.015 C
HETATM   26  C1  UNL     1       8.080   0.720 -16.427  1.00  0.00     0.008 C
ENDBRANCH  24  25
ENDBRANCH   1  24
BRANCH   6  27
HETATM   27  N3  UNL     1      11.416  -6.411 -18.078  1.00  0.00    -0.389 N
ATOM     28  H3  UNL     1      12.235  -6.693 -18.619  1.00  0.00     0.159 HD
BRANCH  27  29
HETATM   29  C7  UNL     1      11.139  -7.009 -16.794  1.00  0.00     0.121 C
BRANCH  29  30
HETATM   30  C8  UNL     1       9.820  -7.735 -16.758  1.00  0.00     0.047 C
BRANCH  30  31
HETATM   31  C9  UNL     1       9.009  -7.215 -15.600  1.00  0.00     0.231 C
BRANCH  31  32
HETATM   32  N4  UNL     1       8.106  -8.267 -15.140  1.00  0.00    -0.079 N
ATOM     33  H43 UNL     1       8.585  -9.156 -15.000  1.00  0.00     0.274 HD
ATOM     34  H42 UNL     1       7.795  -8.120 -14.180  1.00  0.00     0.274 HD
ATOM     35  H41 UNL     1       7.326  -8.344 -15.793  1.00  0.00     0.274 HD
ENDBRANCH  31  32
ENDBRANCH  30  31
ENDBRANCH  29  30
ENDBRANCH  27  29
ENDBRANCH   6  27
TORSDOF 12
ENDMDL