MODEL 5
REMARK VINA RESULT: -6.947328974      1.553      2.488
REMARK  13 active torsions:
REMARK  status: ('A' for Active; 'I' for Inactive)
REMARK    1  A    between atoms: N1_1  and  C1_5
REMARK    2  A    between atoms: C1_5  and  C2_6
REMARK    3  A    between atoms: C2_6  and  N2_7
REMARK    4  A    between atoms: C2_6  and  C3_11
REMARK    5  A    between atoms: C3_11  and  O1_12
REMARK    6  A    between atoms: O1_12  and  C4_13
REMARK    7  A    between atoms: C7_16  and  C8_17
REMARK    8  A    between atoms: C8_17  and  N3_18
REMARK    9  A    between atoms: N3_18  and  S1_20
REMARK   10  A    between atoms: S1_20  and  C9_23
REMARK   11  A    between atoms: C9_23  and  C10_24
REMARK   12  A    between atoms: C10_24  and  C11_25
REMARK   13  A    between atoms: C11_25  and  C12_26
ROOT
HETATM    1  C4  UNL     1       9.007  -5.777 -18.094  1.00  0.00     0.068 A
HETATM    2  C5  UNL     1       8.484  -4.665 -17.464  1.00  0.00     0.037 A
HETATM    3  C6  UNL     1       8.393  -3.439 -18.089  1.00  0.00     0.011 A
HETATM    4  C7  UNL     1       8.830  -3.274 -19.392  1.00  0.00    -0.040 A
HETATM    5  C18 UNL     1       9.353  -4.390 -20.018  1.00  0.00     0.011 A
HETATM    6  C19 UNL     1       9.443  -5.616 -19.393  1.00  0.00     0.037 A
ENDROOT
BRANCH   4   7
HETATM    7  C8  UNL     1       8.737  -1.957 -20.075  1.00  0.00     0.170 C
BRANCH   7   8
HETATM    8  N3  UNL     1       8.007  -0.994 -19.274  1.00  0.00    -0.315 N
ATOM      9  H3  UNL     1       8.373  -0.483 -18.471  1.00  0.00     0.172 HD
BRANCH   8  10
HETATM   10  S1  UNL     1       6.392  -0.862 -19.928  1.00  0.00     0.226 S
HETATM   11  O2  UNL     1       5.459  -1.539 -18.968  1.00  0.00    -0.206 OA
HETATM   12  O3  UNL     1       6.067   0.594 -19.950  1.00  0.00    -0.206 OA
BRANCH  10  13
HETATM   13  C9  UNL     1       6.280  -1.635 -21.497  1.00  0.00     0.163 C
BRANCH  13  14
HETATM   14  C10 UNL     1       5.447  -2.860 -21.557  1.00  0.00     0.021 C
BRANCH  14  15
HETATM   15  C11 UNL     1       6.115  -4.091 -22.070  1.00  0.00     0.039 C
BRANCH  15  16
HETATM   16  C12 UNL     1       5.998  -5.183 -21.072  1.00  0.00    -0.058 A
HETATM   17  C13 UNL     1       5.485  -4.914 -19.843  1.00  0.00     0.007 A
HETATM   18  C14 UNL     1       5.371  -5.926 -18.906  1.00  0.00     0.001 A
HETATM   19  C15 UNL     1       5.767  -7.200 -19.199  1.00  0.00     0.000 A
HETATM   20  C16 UNL     1       6.283  -7.456 -20.446  1.00  0.00     0.001 A
HETATM   21  C17 UNL     1       6.402  -6.459 -21.385  1.00  0.00     0.007 A
ENDBRANCH  15  16
ENDBRANCH  14  15
ENDBRANCH  13  14
ENDBRANCH  10  13
ENDBRANCH   8  10
ENDBRANCH   7   8
ENDBRANCH   4   7
BRANCH   1  22
HETATM   22  O1  UNL     1       9.089  -7.008 -17.441  1.00  0.00    -0.349 OA
BRANCH  22  23
HETATM   23  C3  UNL     1      10.246  -7.269 -16.660  1.00  0.00     0.210 C
BRANCH  23  24
HETATM   24  C2  UNL     1      10.075  -8.481 -15.798  1.00  0.00     0.232 C
BRANCH  24  25
HETATM   25  C1  UNL     1      11.359  -8.803 -15.044  1.00  0.00     0.264 C
BRANCH  25  26
HETATM   26  N1  UNL     1      11.000  -9.700 -13.938  1.00  0.00    -0.077 N
ATOM     27  H13 UNL     1      11.112  -9.267 -13.021  1.00  0.00     0.274 HD
ATOM     28  H12 UNL     1       9.998  -9.879 -13.878  1.00  0.00     0.274 HD
ATOM     29  H11 UNL     1      11.552 -10.551 -14.048  1.00  0.00     0.274 HD
ENDBRANCH  25  26
ENDBRANCH  24  25
BRANCH  24  30
HETATM   30  N2  UNL     1       8.962  -8.307 -14.866  1.00  0.00    -0.071 N
ATOM     31  H23 UNL     1       9.259  -7.853 -14.002  1.00  0.00     0.274 HD
ATOM     32  H22 UNL     1       8.303  -7.600 -15.190  1.00  0.00     0.274 HD
ATOM     33  H21 UNL     1       8.502  -9.199 -14.686  1.00  0.00     0.274 HD
ENDBRANCH  24  30
ENDBRANCH  23  24
ENDBRANCH  22  23
ENDBRANCH   1  22
TORSDOF 13
ENDMDL