MODEL 4
REMARK VINA RESULT: -7.576505472      1.777      3.409
REMARK  15 active torsions:
REMARK  status: ('A' for Active; 'I' for Inactive)
REMARK    1  A    between atoms: C7_7  and  C8_8
REMARK    2  A    between atoms: C8_8  and  C9_9
REMARK    3  A    between atoms: C9_9  and  N1_10
REMARK    4  A    between atoms: C9_9  and  C10_14
REMARK    5  A    between atoms: C10_14  and  N2_15
REMARK    6  A    between atoms: N2_15  and  C11_17
REMARK    7  A    between atoms: C13_23  and  N5_24
REMARK    8  A    between atoms: N5_24  and  C14_26
REMARK    9  A    between atoms: C14_26  and  C15_27
REMARK   10  A    between atoms: C15_27  and  C16_28
REMARK   11  A    between atoms: C16_28  and  C17_29
REMARK   12  A    between atoms: C17_29  and  C18_30
REMARK   13  A    between atoms: C18_30  and  C19_31
REMARK   14  A    between atoms: C19_31  and  C20_32
REMARK   15  A    between atoms: C20_32  and  N6_33
ROOT
HETATM    1  C11 UNL     1       8.198  -3.994 -17.872  1.00  0.00     0.693 A
HETATM    2  N3  UNL     1       9.428  -4.473 -18.032  1.00  0.00    -0.187 N
ATOM      3  H3  UNL     1      10.212  -3.896 -17.728  1.00  0.00     0.185 HD
HETATM    4  C12 UNL     1       9.697  -5.670 -18.570  1.00  0.00     0.215 A
HETATM    5  N4  UNL     1       8.634  -6.408 -18.963  1.00  0.00    -0.187 N
ATOM      6  H4  UNL     1       8.780  -7.327 -19.381  1.00  0.00     0.185 HD
HETATM    7  C13 UNL     1       7.387  -5.936 -18.807  1.00  0.00     0.693 A
HETATM    8  N7  UNL     1       7.134  -4.735 -18.265  1.00  0.00    -0.022 N
ATOM      9  H7  UNL     1       6.179  -4.393 -18.155  1.00  0.00     0.203 HD
ENDROOT
BRANCH   1  10
HETATM   10  N2  UNL     1       8.030  -2.836 -17.346  1.00  0.00    -0.224 N
ATOM     11  H2  UNL     1       8.313  -2.666 -16.381  1.00  0.00     0.177 HD
BRANCH  10  12
HETATM   12  C10 UNL     1       7.444  -1.782 -18.120  1.00  0.00     0.171 C
BRANCH  12  13
HETATM   13  C9  UNL     1       7.763  -0.397 -17.642  1.00  0.00     0.206 C
BRANCH  13  14
HETATM   14  C8  UNL     1       6.706   0.622 -17.849  1.00  0.00     0.073 C
BRANCH  14  15
HETATM   15  C7  UNL     1       7.158   1.977 -18.220  1.00  0.00    -0.050 A
HETATM   16  C5  UNL     1       7.050   2.363 -19.540  1.00  0.00    -0.056 A
HETATM   17  C4  UNL     1       7.496   3.625 -19.871  1.00  0.00     0.008 A
HETATM   18  C6  UNL     1       6.471   1.454 -20.593  1.00  0.00     0.049 C
HETATM   19  C3  UNL     1       8.033   4.483 -18.933  1.00  0.00     0.007 A
HETATM   20  C2  UNL     1       8.149   4.112 -17.607  1.00  0.00    -0.061 A
HETATM   21  C1  UNL     1       8.728   5.031 -16.586  1.00  0.00     0.048 C
HETATM   22  C21 UNL     1       7.704   2.853 -17.273  1.00  0.00     0.014 A
ENDBRANCH  14  15
ENDBRANCH  13  14
BRANCH  13  23
HETATM   23  N1  UNL     1       7.943  -0.514 -16.180  1.00  0.00    -0.073 N
ATOM     24  H13 UNL     1       8.912  -0.403 -15.881  1.00  0.00     0.274 HD
ATOM     25  H12 UNL     1       7.560   0.275 -15.660  1.00  0.00     0.274 HD
ATOM     26  H11 UNL     1       7.536  -1.411 -15.914  1.00  0.00     0.274 HD
ENDBRANCH  13  23
ENDBRANCH  12  13
ENDBRANCH  10  12
ENDBRANCH   1  10
BRANCH   7  27
HETATM   27  N5  UNL     1       6.375  -6.640 -19.181  1.00  0.00    -0.226 N
ATOM     28  H5  UNL     1       5.449  -6.236 -19.041  1.00  0.00     0.177 HD
BRANCH  27  29
HETATM   29  C14 UNL     1       6.438  -7.946 -19.779  1.00  0.00     0.138 C
BRANCH  29  30
HETATM   30  C15 UNL     1       5.174  -8.715 -19.581  1.00  0.00     0.020 C
BRANCH  30  31
HETATM   31  C16 UNL     1       4.786  -8.841 -18.131  1.00  0.00     0.002 C
BRANCH  31  32
HETATM   32  C17 UNL     1       5.652  -9.774 -17.353  1.00  0.00     0.000 C
BRANCH  32  33
HETATM   33  C18 UNL     1       6.371  -9.087 -16.216  1.00  0.00     0.002 C
BRANCH  33  34
HETATM   34  C19 UNL     1       7.847  -8.967 -16.437  1.00  0.00     0.027 C
BRANCH  34  35
HETATM   35  C20 UNL     1       8.490  -7.901 -15.602  1.00  0.00     0.229 C
BRANCH  35  36
HETATM   36  N6  UNL     1       9.650  -8.358 -14.889  1.00  0.00    -0.079 N
ATOM     37  H63 UNL     1       9.682  -9.378 -14.864  1.00  0.00     0.274 HD
ATOM     38  H62 UNL     1      10.499  -8.177 -15.424  1.00  0.00     0.274 HD
ATOM     39  H61 UNL     1       9.727  -7.971 -13.949  1.00  0.00     0.274 HD
ENDBRANCH  35  36
ENDBRANCH  34  35
ENDBRANCH  33  34
ENDBRANCH  32  33
ENDBRANCH  31  32
ENDBRANCH  30  31
ENDBRANCH  29  30
ENDBRANCH  27  29
ENDBRANCH   7  27
TORSDOF 15
ENDMDL