MODEL 5
REMARK VINA RESULT: -7.030775471      3.649      6.064
REMARK  12 active torsions:
REMARK  status: ('A' for Active; 'I' for Inactive)
REMARK    1  A    between atoms: C2_2  and  C3_3
REMARK    2  A    between atoms: C3_3  and  N1_4
REMARK    3  A    between atoms: N1_4  and  C4_7
REMARK    4  A    between atoms: C4_7  and  C5_8
REMARK    5  A    between atoms: C5_8  and  N2_9
REMARK    6  A    between atoms: N2_9  and  C6_12
REMARK    7  A    between atoms: C6_12  and  C7_13
REMARK    8  A    between atoms: C7_13  and  O1_14
REMARK    9  A    between atoms: C7_13  and  C8_16
REMARK   10  A    between atoms: C7_13  and  C15_27
REMARK   11  A    between atoms: C8_16  and  S1_17
REMARK   12  A    between atoms: S1_17  and  C9_20
ROOT
HETATM    1  C7  UNL     1       6.038  -3.926 -20.751  1.00  0.00     0.122 C
ENDROOT
BRANCH   1   2
HETATM    2  C6  UNL     1       5.750  -5.312 -20.335  1.00  0.00     0.276 C
BRANCH   2   3
HETATM    3  N2  UNL     1       6.434  -5.784 -19.142  1.00  0.00    -0.070 N
ATOM      4  H22 UNL     1       5.787  -6.064 -18.403  1.00  0.00     0.277 HD
ATOM      5  H21 UNL     1       6.905  -5.034 -18.636  1.00  0.00     0.277 HD
BRANCH   3   6
HETATM    6  C5  UNL     1       7.340  -6.855 -19.526  1.00  0.00     0.260 C
BRANCH   6   7
HETATM    7  C4  UNL     1       6.698  -8.136 -19.794  1.00  0.00     0.260 C
BRANCH   7   8
HETATM    8  N1  UNL     1       7.167  -9.273 -19.075  1.00  0.00    -0.070 N
ATOM      9  H12 UNL     1       7.919  -9.038 -18.427  1.00  0.00     0.277 HD
ATOM     10  H11 UNL     1       7.686  -9.920 -19.669  1.00  0.00     0.277 HD
BRANCH   8  11
HETATM   11  C3  UNL     1       6.023  -9.924 -18.399  1.00  0.00     0.259 C
BRANCH  11  12
HETATM   12  C2  UNL     1       5.695  -9.236 -17.107  1.00  0.00    -0.010 C
HETATM   13  C1  UNL     1       6.604  -9.309 -16.111  1.00  0.00     0.008 C
ENDBRANCH  11  12
ENDBRANCH   8  11
ENDBRANCH   7   8
ENDBRANCH   6   7
ENDBRANCH   3   6
ENDBRANCH   2   3
ENDBRANCH   1   2
BRANCH   1  14
HETATM   14  O1  UNL     1       4.885  -3.128 -20.825  1.00  0.00    -0.382 OA
ATOM     15  H1  UNL     1       4.762  -2.584 -20.057  1.00  0.00     0.211 HD
ENDBRANCH   1  14
BRANCH   1  16
HETATM   16  C8  UNL     1       7.134  -3.166 -20.095  1.00  0.00     0.190 C
BRANCH  16  17
HETATM   17  S1  UNL     1       6.605  -2.756 -18.462  1.00  0.00     0.180 S
HETATM   18  O2  UNL     1       5.154  -3.106 -18.227  1.00  0.00    -0.222 OA
HETATM   19  O3  UNL     1       7.388  -3.684 -17.526  1.00  0.00    -0.222 OA
BRANCH  17  20
HETATM   20  C9  UNL     1       6.925  -1.145 -17.952  1.00  0.00     0.083 A
HETATM   21  C10 UNL     1       7.780  -0.730 -16.968  1.00  0.00     0.025 A
HETATM   22  C11 UNL     1       8.020   0.626 -16.721  1.00  0.00     0.002 A
HETATM   23  C12 UNL     1       7.375   1.591 -17.484  1.00  0.00     0.002 A
HETATM   24  C13 UNL     1       6.527   1.180 -18.459  1.00  0.00     0.028 A
HETATM   25  C14 UNL     1       6.298  -0.134 -18.696  1.00  0.00     0.067 A
HETATM   26  N3  UNL     1       5.387  -0.513 -19.726  1.00  0.00    -0.101 NA
ENDBRANCH  17  20
ENDBRANCH  16  17
ENDBRANCH   1  16
BRANCH   1  27
HETATM   27  C15 UNL     1       6.457  -4.113 -22.215  1.00  0.00    -0.021 A
HETATM   28  C16 UNL     1       6.771  -3.026 -22.965  1.00  0.00     0.010 A
HETATM   29  C17 UNL     1       7.152  -3.164 -24.313  1.00  0.00     0.001 A
HETATM   30  C18 UNL     1       7.206  -4.442 -24.875  1.00  0.00     0.000 A
HETATM   31  C19 UNL     1       6.891  -5.520 -24.112  1.00  0.00     0.001 A
HETATM   32  C20 UNL     1       6.515  -5.346 -22.776  1.00  0.00     0.010 A
ENDBRANCH   1  27
TORSDOF 12
ENDMDL