MODEL 1
REMARK VINA RESULT: -7.571165771      0.000      0.000
REMARK  10 active torsions:
REMARK  status: ('A' for Active; 'I' for Inactive)
REMARK    1  A    between atoms: C2_2  and  C3_3
REMARK    2  A    between atoms: C2_2  and  C12_15
REMARK    3  A    between atoms: C3_3  and  N1_4
REMARK    4  A    between atoms: N1_4  and  C4_7
REMARK    5  A    between atoms: C4_7  and  C5_8
REMARK    6  A    between atoms: C5_8  and  C6_9
REMARK    7  A    between atoms: C12_15  and  O1_16
REMARK    8  A    between atoms: O1_16  and  C13_17
REMARK    9  A    between atoms: C16_20  and  S1_21
REMARK   10  A    between atoms: S1_21  and  N2_24
REMARK       I    between atoms: N2_24  and  C17_26
ROOT
HETATM    1  C13 UNL     1       6.928  -5.455 -19.165  1.00  0.00     0.069 A
HETATM    2  C14 UNL     1       5.776  -4.731 -19.009  1.00  0.00     0.038 A
HETATM    3  C15 UNL     1       5.028  -4.291 -20.071  1.00  0.00     0.028 A
HETATM    4  C16 UNL     1       5.444  -4.584 -21.337  1.00  0.00     0.080 A
HETATM    5  C18 UNL     1       6.598  -5.311 -21.535  1.00  0.00     0.028 A
HETATM    6  C19 UNL     1       7.345  -5.751 -20.462  1.00  0.00     0.038 A
ENDROOT
BRANCH   1   7
HETATM    7  O1  UNL     1       7.705  -5.914 -18.141  1.00  0.00    -0.347 OA
BRANCH   7   8
HETATM    8  C12 UNL     1       8.787  -5.209 -17.573  1.00  0.00     0.210 C
BRANCH   8   9
HETATM    9  C2  UNL     1      10.031  -6.003 -17.670  1.00  0.00    -0.040 C
HETATM   10  C1  UNL     1      10.912  -5.713 -18.608  1.00  0.00     0.018 C
BRANCH   9  11
HETATM   11  C3  UNL     1      10.279  -7.111 -16.719  1.00  0.00     0.267 C
BRANCH  11  12
HETATM   12  N1  UNL     1       9.105  -7.352 -15.874  1.00  0.00    -0.071 N
ATOM     13  H12 UNL     1       9.235  -7.049 -14.908  1.00  0.00     0.277 HD
ATOM     14  H11 UNL     1       8.319  -6.742 -16.094  1.00  0.00     0.277 HD
BRANCH  12  15
HETATM   15  C4  UNL     1       8.791  -8.751 -15.994  1.00  0.00     0.237 C
BRANCH  15  16
HETATM   16  C5  UNL     1       7.320  -9.035 -15.817  1.00  0.00     0.066 C
BRANCH  16  17
HETATM   17  C6  UNL     1       6.570  -8.932 -17.094  1.00  0.00    -0.057 A
HETATM   18  C7  UNL     1       5.259  -8.510 -17.144  1.00  0.00     0.007 A
HETATM   19  C8  UNL     1       4.566  -8.418 -18.348  1.00  0.00     0.001 A
HETATM   20  C9  UNL     1       5.174  -8.747 -19.542  1.00  0.00     0.000 A
HETATM   21  C10 UNL     1       6.480  -9.167 -19.493  1.00  0.00     0.001 A
HETATM   22  C11 UNL     1       7.164  -9.257 -18.295  1.00  0.00     0.007 A
ENDBRANCH  16  17
ENDBRANCH  15  16
ENDBRANCH  12  15
ENDBRANCH  11  12
ENDBRANCH   9  11
ENDBRANCH   8   9
ENDBRANCH   7   8
ENDBRANCH   1   7
BRANCH   4  23
HETATM   23  S1  UNL     1       4.476  -4.015 -22.688  1.00  0.00     0.265 S
HETATM   24  O2  UNL     1       5.185  -2.824 -23.277  1.00  0.00    -0.200 OA
HETATM   25  O3  UNL     1       3.149  -3.595 -22.116  1.00  0.00    -0.200 OA
BRANCH  23  26
HETATM   26  N2  UNL     1       4.278  -5.251 -23.877  1.00  0.00    -0.254 N
HETATM   27  C17 UNL     1       4.540  -4.947 -25.229  1.00  0.00     0.195 C
HETATM   28  N3  UNL     1       5.740  -4.922 -25.659  1.00  0.00    -0.373 N
HETATM   29  N4  UNL     1       3.471  -4.672 -26.106  1.00  0.00    -0.063 NA
ATOM     30  H32 UNL     1       6.514  -5.120 -25.024  1.00  0.00     0.158 HD
ATOM     31  H31 UNL     1       5.929  -4.702 -26.637  1.00  0.00     0.158 HD
ATOM     32  H2  UNL     1       3.978  -6.186 -23.606  1.00  0.00     0.181 HD
ENDBRANCH  23  26
ENDBRANCH   4  23
TORSDOF 10
ENDMDL