MODEL 4
REMARK VINA RESULT: -7.121830605      2.844      4.966
REMARK  14 active torsions:
REMARK  status: ('A' for Active; 'I' for Inactive)
REMARK    1  A    between atoms: C2_2  and  C3_3
REMARK    2  A    between atoms: C3_3  and  N1_4
REMARK    3  A    between atoms: N1_4  and  C4_5
REMARK    4  A    between atoms: N1_4  and  C7_8
REMARK    5  A    between atoms: C4_5  and  C5_6
REMARK    6  A    between atoms: C8_13  and  N4_14
REMARK    7  A    between atoms: N4_14  and  C9_16
REMARK    8  A    between atoms: C9_16  and  C10_17
REMARK    9  A    between atoms: C10_17  and  N5_18
REMARK       I    between atoms: N5_18  and  C11_20
REMARK   10  A    between atoms: C11_20  and  C12_22
REMARK   11  A    between atoms: C12_22  and  C13_23
REMARK   12  A    between atoms: C13_23  and  N6_24
REMARK   13  A    between atoms: C14_28  and  N7_29
REMARK   14  A    between atoms: N7_29  and  C15_31
ROOT
HETATM    1  C7  UNL     1       7.178  -3.158 -18.540  1.00  0.00     0.700 A
HETATM    2  N2  UNL     1       8.082  -3.835 -17.787  1.00  0.00    -0.130 N
ATOM      3  H2  UNL     1       8.638  -3.314 -17.110  1.00  0.00     0.205 HD
HETATM    4  N3  UNL     1       8.273  -5.123 -17.888  1.00  0.00    -0.268 N
ATOM      5  H3  UNL     1       8.971  -5.562 -17.288  1.00  0.00     0.189 HD
HETATM    6  C8  UNL     1       7.575  -5.910 -18.769  1.00  0.00     0.162 A
HETATM    7  C14 UNL     1       6.653  -5.255 -19.545  1.00  0.00     0.167 A
HETATM    8  N8  UNL     1       6.489  -3.920 -19.404  1.00  0.00    -0.171 N
ATOM      9  H8  UNL     1       5.795  -3.461 -19.993  1.00  0.00     0.186 HD
ENDROOT
BRANCH   6  10
HETATM   10  N4  UNL     1       7.796  -7.147 -18.825  1.00  0.00    -0.371 N
ATOM     11  H4  UNL     1       8.670  -7.391 -19.292  1.00  0.00     0.161 HD
BRANCH  10  12
HETATM   12  C9  UNL     1       7.057  -8.268 -18.361  1.00  0.00     0.141 C
BRANCH  12  13
HETATM   13  C10 UNL     1       7.436  -8.466 -16.878  1.00  0.00     0.142 C
BRANCH  13  14
HETATM   14  N5  UNL     1       8.859  -8.570 -16.706  1.00  0.00    -0.359 N
HETATM   15  C11 UNL     1       9.510  -7.722 -15.787  1.00  0.00     0.219 C
HETATM   16  O1  UNL     1       8.824  -6.879 -15.127  1.00  0.00    -0.274 OA
ATOM     17  H5  UNL     1       9.393  -9.251 -17.244  1.00  0.00     0.162 HD
BRANCH  15  18
HETATM   18  C12 UNL     1      10.991  -7.791 -15.574  1.00  0.00     0.130 C
BRANCH  18  19
HETATM   19  C13 UNL     1      11.358  -9.237 -15.266  1.00  0.00     0.238 C
BRANCH  19  20
HETATM   20  N6  UNL     1      10.945  -9.582 -13.924  1.00  0.00    -0.079 N
ATOM     21  H63 UNL     1      11.377  -8.979 -13.225  1.00  0.00     0.274 HD
ATOM     22  H62 UNL     1       9.970  -9.338 -13.751  1.00  0.00     0.274 HD
ATOM     23  H61 UNL     1      11.128 -10.569 -13.741  1.00  0.00     0.274 HD
ENDBRANCH  19  20
ENDBRANCH  18  19
ENDBRANCH  15  18
ENDBRANCH  13  14
ENDBRANCH  12  13
ENDBRANCH  10  12
ENDBRANCH   6  10
BRANCH   7  24
HETATM   24  N7  UNL     1       5.927  -5.885 -20.402  1.00  0.00    -0.339 N
ATOM     25  H7  UNL     1       5.283  -6.610 -20.084  1.00  0.00     0.167 HD
BRANCH  24  26
HETATM   26  C15 UNL     1       6.015  -5.581 -21.786  1.00  0.00     0.033 A
HETATM   27  C16 UNL     1       4.979  -4.919 -22.405  1.00  0.00     0.029 A
HETATM   28  C17 UNL     1       5.034  -4.603 -23.762  1.00  0.00     0.002 A
HETATM   29  C18 UNL     1       6.144  -4.962 -24.486  1.00  0.00     0.000 A
HETATM   30  C19 UNL     1       7.178  -5.625 -23.860  1.00  0.00     0.002 A
HETATM   31  C20 UNL     1       7.148  -5.948 -22.523  1.00  0.00     0.029 A
ENDBRANCH  24  26
ENDBRANCH   7  24
BRANCH   1  32
HETATM   32  N1  UNL     1       6.951  -1.789 -18.445  1.00  0.00    -0.189 N
BRANCH  32  33
HETATM   33  C3  UNL     1       6.650  -1.153 -17.188  1.00  0.00     0.108 C
BRANCH  33  34
HETATM   34  C2  UNL     1       7.747  -0.560 -16.450  1.00  0.00     0.007 C
HETATM   35  C1  UNL     1       8.097   0.741 -16.521  1.00  0.00     0.012 C
ENDBRANCH  33  34
ENDBRANCH  32  33
BRANCH  32  36
HETATM   36  C4  UNL     1       6.971  -0.944 -19.619  1.00  0.00     0.173 C
BRANCH  36  37
HETATM   37  C5  UNL     1       5.837   0.015 -19.638  1.00  0.00    -0.016 C
HETATM   38  C6  UNL     1       5.995   1.314 -19.816  1.00  0.00     0.008 C
ENDBRANCH  36  37
ENDBRANCH  32  36
ENDBRANCH   1  32
TORSDOF 14
ENDMDL