MODEL 3
REMARK VINA RESULT: -7.098837100      1.020      1.092
REMARK  12 active torsions:
REMARK  status: ('A' for Active; 'I' for Inactive)
REMARK    1  A    between atoms: O1_2  and  C2_3
REMARK    2  A    between atoms: C2_3  and  C3_4
REMARK    3  A    between atoms: C3_4  and  O2_5
REMARK    4  A    between atoms: O2_5  and  C4_6
REMARK    5  A    between atoms: C4_6  and  C5_7
REMARK    6  A    between atoms: C5_7  and  C6_8
REMARK    7  A    between atoms: C6_8  and  O3_9
REMARK    8  A    between atoms: O3_9  and  C7_10
REMARK    9  A    between atoms: C9_12  and  N1_13
REMARK   10  A    between atoms: C12_18  and  C13_19
REMARK   11  A    between atoms: C13_19  and  C14_20
REMARK   12  A    between atoms: C14_20  and  N2_21
REMARK       I    between atoms: N2_21  and  C16_23
ROOT
HETATM    1  C7  UNL     1       6.614  -7.133 -19.512  1.00  0.00     0.144 A
HETATM    2  C8  UNL     1       5.626  -6.299 -19.932  1.00  0.00     0.086 A
HETATM    3  C9  UNL     1       5.618  -4.926 -19.626  1.00  0.00     0.042 A
HETATM    4  C10 UNL     1       6.637  -4.412 -18.884  1.00  0.00     0.018 A
HETATM    5  C11 UNL     1       6.685  -3.081 -18.554  1.00  0.00     0.023 A
HETATM    6  C12 UNL     1       7.705  -2.552 -17.809  1.00  0.00    -0.056 A
HETATM    7  C17 UNL     1       8.702  -3.401 -17.389  1.00  0.00     0.009 A
HETATM    8  C18 UNL     1       8.674  -4.741 -17.709  1.00  0.00     0.031 A
HETATM    9  C19 UNL     1       7.641  -5.298 -18.470  1.00  0.00     0.046 A
HETATM   10  N5  UNL     1       7.633  -6.598 -18.767  1.00  0.00    -0.336 N
ATOM     11  H5  UNL     1       8.390  -7.198 -18.437  1.00  0.00     0.168 HD
ENDROOT
BRANCH   1  12
HETATM   12  O3  UNL     1       6.660  -8.490 -19.783  1.00  0.00    -0.336 OA
BRANCH  12  13
HETATM   13  C6  UNL     1       6.889  -9.465 -18.860  1.00  0.00     0.179 C
BRANCH  13  14
HETATM   14  C5  UNL     1       5.826  -9.486 -17.793  1.00  0.00     0.053 C
BRANCH  14  15
HETATM   15  C4  UNL     1       6.573  -9.393 -16.454  1.00  0.00     0.169 C
BRANCH  15  16
HETATM   16  O2  UNL     1       7.384  -8.316 -16.398  1.00  0.00    -0.389 OA
BRANCH  16  17
HETATM   17  C3  UNL     1       8.543  -8.350 -15.706  1.00  0.00     0.193 C
BRANCH  17  18
HETATM   18  C2  UNL     1       9.814  -8.508 -16.460  1.00  0.00     0.193 C
BRANCH  18  19
HETATM   19  O1  UNL     1      10.729  -9.399 -15.988  1.00  0.00    -0.394 OA
HETATM   20  C1  UNL     1      11.491  -8.949 -14.923  1.00  0.00     0.201 C
ENDBRANCH  18  19
ENDBRANCH  17  18
ENDBRANCH  16  17
ENDBRANCH  15  16
ENDBRANCH  14  15
ENDBRANCH  13  14
ENDBRANCH  12  13
ENDBRANCH   1  12
BRANCH   3  21
HETATM   21  N1  UNL     1       4.672  -4.194 -20.041  1.00  0.00    -0.398 N
ATOM     22  H12 UNL     1       3.721  -4.554 -20.128  1.00  0.00     0.156 HD
ATOM     23  H11 UNL     1       4.856  -3.224 -20.296  1.00  0.00     0.156 HD
ENDBRANCH   3  21
BRANCH   6  24
HETATM   24  C13 UNL     1       7.759  -1.152 -17.455  1.00  0.00     0.058 C
BRANCH  24  25
HETATM   25  C14 UNL     1       6.450  -0.436 -17.372  1.00  0.00     0.129 C
BRANCH  25  26
HETATM   26  N2  UNL     1       6.508   0.702 -18.269  1.00  0.00    -0.360 N
HETATM   27  C15 UNL     1       7.175   1.902 -17.803  1.00  0.00     0.152 C
HETATM   28  C16 UNL     1       5.931   0.636 -19.550  1.00  0.00     0.183 C
HETATM   29  N3  UNL     1       4.772   1.165 -19.750  1.00  0.00    -0.374 N
HETATM   30  N4  UNL     1       6.591   0.001 -20.632  1.00  0.00    -0.064 NA
ATOM     31  H32 UNL     1       4.298   1.622 -18.971  1.00  0.00     0.158 HD
ATOM     32  H31 UNL     1       4.354   1.117 -20.679  1.00  0.00     0.158 HD
ENDBRANCH  25  26
ENDBRANCH  24  25
ENDBRANCH   6  24
TORSDOF 12
ENDMDL