MODEL 2
REMARK VINA RESULT: -6.921758506      1.272      2.046
REMARK  9 active torsions:
REMARK  status: ('A' for Active; 'I' for Inactive)
REMARK    1  A    between atoms: C2_2  and  C4_4
REMARK    2  A    between atoms: C4_4  and  C5_5
REMARK    3  A    between atoms: C4_4  and  N1_8
REMARK    4  A    between atoms: C6_9  and  C7_10
REMARK    5  A    between atoms: C7_10  and  C8_11
REMARK    6  A    between atoms: C8_11  and  C11_14
REMARK       I    between atoms: C11_14  and  N2_16
REMARK    7  A    between atoms: N3_19  and  C14_20
REMARK    8  A    between atoms: C23_31  and  N5_32
REMARK    9  A    between atoms: N6_35  and  C26_36
ROOT
HETATM    1  N1  UNL     1       7.131 -14.523 -22.154  1.00  0.00    -0.319 N
HETATM    2  C6  UNL     1       7.083 -15.444 -23.121  1.00  0.00     0.086 A
HETATM    3  N4  UNL     1       7.375 -16.681 -22.623  1.00  0.00    -0.344 N
ATOM      4  H4  UNL     1       7.407 -17.552 -23.154  1.00  0.00     0.167 HD
HETATM    5  C20 UNL     1       7.613 -16.546 -21.308  1.00  0.00     0.060 A
HETATM    6  C21 UNL     1       7.952 -17.446 -20.303  1.00  0.00     0.034 A
HETATM    7  C22 UNL     1       8.139 -17.007 -19.015  1.00  0.00     0.031 A
HETATM    8  C23 UNL     1       7.995 -15.658 -18.685  1.00  0.00     0.032 A
HETATM    9  C29 UNL     1       7.656 -14.796 -19.718  1.00  0.00     0.061 A
HETATM   10  C30 UNL     1       7.462 -15.210 -21.020  1.00  0.00     0.065 A
ENDROOT
BRANCH   2  11
HETATM   11  C7  UNL     1       6.746 -15.258 -24.528  1.00  0.00     0.095 C
BRANCH  11  12
HETATM   12  C8  UNL     1       7.759 -15.776 -25.519  1.00  0.00     0.040 C
HETATM   13  C9  UNL     1       7.509 -15.322 -26.938  1.00  0.00     0.025 C
HETATM   14  C10 UNL     1       9.147 -15.242 -25.166  1.00  0.00     0.025 C
BRANCH  12  15
HETATM   15  C11 UNL     1       7.843 -17.257 -25.489  1.00  0.00     0.228 C
HETATM   16  O3  UNL     1       8.995 -17.723 -25.194  1.00  0.00    -0.273 OA
HETATM   17  N2  UNL     1       6.821 -18.171 -25.741  1.00  0.00    -0.348 N
HETATM   18  C12 UNL     1       7.157 -19.615 -25.642  1.00  0.00     0.145 C
HETATM   19  C19 UNL     1       5.456 -17.922 -26.095  1.00  0.00     0.145 C
HETATM   20  C13 UNL     1       6.387 -20.078 -24.398  1.00  0.00     0.137 C
HETATM   21  N3  UNL     1       5.011 -19.798 -24.550  1.00  0.00    -0.402 N
HETATM   22  C18 UNL     1       4.617 -19.142 -25.736  1.00  0.00     0.137 C
BRANCH  21  23
HETATM   23  C14 UNL     1       4.227 -19.655 -23.390  1.00  0.00     0.017 C
HETATM   24  C15 UNL     1       4.641 -20.699 -22.343  1.00  0.00     0.037 C
HETATM   25  C16 UNL     1       4.285 -18.314 -22.720  1.00  0.00     0.037 C
HETATM   26  C17 UNL     1       2.775 -19.942 -23.711  1.00  0.00     0.037 C
ENDBRANCH  21  23
ENDBRANCH  12  15
ENDBRANCH  11  12
ENDBRANCH   2  11
BRANCH   1  27
HETATM   27  C4  UNL     1       6.931 -13.109 -22.196  1.00  0.00     0.195 C
BRANCH  27  28
HETATM   28  C2  UNL     1       5.549 -12.735 -22.727  1.00  0.00     0.011 C
HETATM   29  C1  UNL     1       4.520 -13.681 -22.147  1.00  0.00     0.012 C
HETATM   30  C3  UNL     1       5.225 -11.343 -22.257  1.00  0.00     0.012 C
ENDBRANCH  27  28
BRANCH  27  31
HETATM   31  C5  UNL     1       7.985 -12.328 -22.872  1.00  0.00     0.197 C
HETATM   32  O1  UNL     1       9.020 -11.943 -22.263  1.00  0.00    -0.646 OA
HETATM   33  O2  UNL     1       7.869 -11.991 -24.201  1.00  0.00    -0.646 OA
ENDBRANCH  27  31
ENDBRANCH   1  27
BRANCH   8  34
HETATM   34  N5  UNL     1       8.167 -15.199 -17.362  1.00  0.00    -0.378 N
HETATM   35  C24 UNL     1       8.785 -16.039 -16.340  1.00  0.00     0.143 C
HETATM   36  C25 UNL     1       9.995 -15.382 -15.761  1.00  0.00     0.145 C
HETATM   37  N6  UNL     1      10.186 -14.116 -16.407  1.00  0.00    -0.356 N
HETATM   38  C27 UNL     1       9.104 -13.182 -16.560  1.00  0.00     0.145 C
HETATM   39  C28 UNL     1       7.781 -13.890 -16.899  1.00  0.00     0.143 C
BRANCH  37  40
HETATM   40  C26 UNL     1      11.482 -13.788 -16.906  1.00  0.00     0.350 C
HETATM   41  O4  UNL     1      11.881 -14.164 -18.053  1.00  0.00    -0.284 OA
ENDBRANCH  37  40
ENDBRANCH   8  34
TORSDOF 9
ENDMDL