MODEL 3
REMARK VINA RESULT: -7.027234138      2.593      3.381
REMARK  10 active torsions:
REMARK  status: ('A' for Active; 'I' for Inactive)
REMARK    1  A    between atoms: C6_8  and  C7_9
REMARK    2  A    between atoms: C10_12  and  C11_13
REMARK    3  A    between atoms: C12_14  and  C13_15
REMARK    4  A    between atoms: C14_16  and  C15_17
REMARK    5  A    between atoms: C16_20  and  O5_21
REMARK    6  A    between atoms: O5_21  and  C17_22
REMARK    7  A    between atoms: C19_25  and  O7_26
REMARK    8  A    between atoms: O7_26  and  C20_27
REMARK    9  A    between atoms: C20_27  and  C21_29
REMARK   10  A    between atoms: C22_30  and  C23_31
REMARK       I    between atoms: C23_31  and  N1_33
ROOT
HETATM    1  C1  UNL     1       8.965 -14.594 -16.196  1.00  0.00     0.025 C
HETATM    2  C2  UNL     1       9.871 -14.971 -17.055  1.00  0.00     0.017 C
HETATM    3  C3  UNL     1      11.245 -14.497 -17.091  1.00  0.00     0.289 C
HETATM    4  O1  UNL     1      11.756 -13.538 -16.438  1.00  0.00    -0.260 OA
HETATM    5  O2  UNL     1      11.973 -15.276 -17.985  1.00  0.00    -0.307 OA
HETATM    6  C4  UNL     1      11.168 -16.408 -18.264  1.00  0.00     0.166 C
HETATM    7  C5  UNL     1      11.581 -17.213 -19.397  1.00  0.00     0.010 C
HETATM    8  C6  UNL     1      11.073 -17.430 -20.622  1.00  0.00    -0.068 C
HETATM    9  C10 UNL     1       9.829 -16.828 -21.098  1.00  0.00     0.069 C
HETATM   10  C16 UNL     1       9.809 -15.371 -20.678  1.00  0.00     0.174 C
HETATM   11  C19 UNL     1       9.131 -15.282 -19.343  1.00  0.00     0.174 C
HETATM   12  C29 UNL     1       9.763 -15.959 -18.200  1.00  0.00     0.089 C
ENDROOT
BRANCH  11  13
HETATM   13  O7  UNL     1       8.772 -13.958 -19.004  1.00  0.00    -0.309 OA
BRANCH  13  14
HETATM   14  C20 UNL     1       7.643 -13.355 -19.456  1.00  0.00     0.283 C
HETATM   15  O8  UNL     1       6.770 -13.107 -18.606  1.00  0.00    -0.260 OA
BRANCH  14  16
HETATM   16  C21 UNL     1       7.404 -12.991 -20.842  1.00  0.00     0.088 C
HETATM   17  C22 UNL     1       6.536 -13.648 -21.569  1.00  0.00     0.080 C
BRANCH  17  18
HETATM   18  C23 UNL     1       6.328 -13.254 -22.943  1.00  0.00     0.243 C
HETATM   19  O9  UNL     1       6.981 -12.244 -23.386  1.00  0.00    -0.268 OA
HETATM   20  N1  UNL     1       5.455 -13.900 -23.838  1.00  0.00    -0.349 N
HETATM   21  C24 UNL     1       5.362 -13.345 -25.200  1.00  0.00     0.126 C
HETATM   22  C28 UNL     1       4.701 -15.045 -23.433  1.00  0.00     0.126 C
HETATM   23  C25 UNL     1       4.464 -14.254 -25.994  1.00  0.00     0.020 C
HETATM   24  C26 UNL     1       4.985 -15.670 -25.838  1.00  0.00     0.003 C
HETATM   25  C27 UNL     1       4.713 -16.182 -24.439  1.00  0.00     0.020 C
ENDBRANCH  17  18
ENDBRANCH  14  16
ENDBRANCH  13  14
ENDBRANCH  11  13
BRANCH  10  26
HETATM   26  O5  UNL     1      11.109 -14.907 -20.714  1.00  0.00    -0.313 OA
BRANCH  26  27
HETATM   27  C17 UNL     1      11.564 -14.157 -21.769  1.00  0.00     0.255 C
HETATM   28  C18 UNL     1      12.966 -14.258 -22.207  1.00  0.00     0.126 C
HETATM   29  O6  UNL     1      10.781 -13.389 -22.358  1.00  0.00    -0.266 OA
ENDBRANCH  26  27
ENDBRANCH  10  26
BRANCH   9  30
HETATM   30  C11 UNL     1       9.476 -17.019 -22.499  1.00  0.00    -0.015 C
HETATM   31  C12 UNL     1       8.715 -16.141 -23.178  1.00  0.00    -0.003 C
BRANCH  31  32
HETATM   32  C13 UNL     1       8.379 -16.353 -24.570  1.00  0.00     0.007 C
HETATM   33  C14 UNL     1       8.709 -15.619 -25.595  1.00  0.00     0.084 C
BRANCH  33  34
HETATM   34  C15 UNL     1       9.494 -14.407 -25.598  1.00  0.00     0.198 C
HETATM   35  O3  UNL     1       9.041 -13.245 -25.624  1.00  0.00    -0.645 OA
HETATM   36  O4  UNL     1      10.909 -14.492 -25.572  1.00  0.00    -0.645 OA
ENDBRANCH  33  34
ENDBRANCH  31  32
ENDBRANCH   9  30
BRANCH   8  37
HETATM   37  C7  UNL     1      11.790 -18.334 -21.514  1.00  0.00     0.007 C
HETATM   38  C8  UNL     1      11.803 -19.786 -21.015  1.00  0.00     0.014 C
HETATM   39  C9  UNL     1      13.200 -17.976 -21.839  1.00  0.00     0.014 C
ENDBRANCH   8  37
TORSDOF 10
ENDMDL