MODEL 1
REMARK VINA RESULT: -7.375951879      0.000      0.000
REMARK  11 active torsions:
REMARK  status: ('A' for Active; 'I' for Inactive)
REMARK    1  A    between atoms: N2_5  and  C4_6
REMARK    2  A    between atoms: C4_6  and  O1_7
REMARK    3  A    between atoms: C4_6  and  C5_9
REMARK    4  A    between atoms: C5_9  and  N3_10
REMARK    5  A    between atoms: C5_9  and  C22_38
REMARK    6  A    between atoms: N3_10  and  N4_12
REMARK       I    between atoms: N4_12  and  C6_14
REMARK       I    between atoms: C6_14  and  N5_16
REMARK    7  A    between atoms: N5_16  and  C7_17
REMARK    8  A    between atoms: N5_16  and  C16_32
REMARK    9  A    between atoms: C7_17  and  C8_18
REMARK   10  A    between atoms: C11_22  and  O4_23
REMARK   11  A    between atoms: O4_23  and  C12_24
ROOT
HETATM    1  N4  UNL     1      13.514 -15.695 -19.217  1.00  0.00    -0.251 N
ATOM      2  H4  UNL     1      14.001 -16.443 -19.711  1.00  0.00     0.191 HD
HETATM    3  C6  UNL     1      13.968 -14.367 -19.393  1.00  0.00     0.337 C
HETATM    4  O2  UNL     1      13.309 -13.470 -18.757  1.00  0.00    -0.245 OA
HETATM    5  N5  UNL     1      15.099 -13.985 -20.217  1.00  0.00    -0.326 N
ENDROOT
BRANCH   1   6
HETATM    6  N3  UNL     1      12.474 -16.023 -18.429  1.00  0.00    -0.296 N
ATOM      7  H3  UNL     1      12.733 -16.094 -17.445  1.00  0.00     0.187 HD
BRANCH   6   8
HETATM    8  C5  UNL     1      11.221 -16.270 -18.630  1.00  0.00     0.080 C
BRANCH   8   9
HETATM    9  C4  UNL     1      10.709 -16.889 -19.806  1.00  0.00     0.163 C
BRANCH   9  10
HETATM   10  N2  UNL     1       9.784 -16.571 -20.777  1.00  0.00    -0.357 N
HETATM   11  C3  UNL     1       8.788 -17.322 -21.466  1.00  0.00     0.144 C
HETATM   12  C2  UNL     1       7.424 -16.732 -21.079  1.00  0.00     0.136 C
HETATM   13  N1  UNL     1       7.351 -15.361 -21.430  1.00  0.00    -0.414 N
HETATM   14  C1  UNL     1       6.977 -15.062 -22.773  1.00  0.00     0.143 C
HETATM   15  C29 UNL     1       8.449 -14.564 -20.943  1.00  0.00     0.136 C
HETATM   16  C28 UNL     1       9.785 -15.138 -21.265  1.00  0.00     0.144 C
ENDBRANCH   9  10
BRANCH   9  17
HETATM   17  O1  UNL     1      11.265 -18.077 -20.012  1.00  0.00    -0.345 OA
ATOM     18  H1  UNL     1      11.788 -18.361 -19.272  1.00  0.00     0.219 HD
ENDBRANCH   9  17
ENDBRANCH   8   9
BRANCH   8  19
HETATM   19  C22 UNL     1      10.352 -15.777 -17.534  1.00  0.00     0.041 C
HETATM   20  C23 UNL     1       8.926 -16.262 -17.610  1.00  0.00     0.011 C
HETATM   21  C24 UNL     1       8.345 -15.986 -16.211  1.00  0.00     0.001 C
HETATM   22  C25 UNL     1       8.362 -14.489 -15.963  1.00  0.00     0.000 C
HETATM   23  C26 UNL     1       9.689 -13.849 -16.198  1.00  0.00     0.001 C
HETATM   24  C27 UNL     1      10.222 -14.235 -17.564  1.00  0.00     0.011 C
ENDBRANCH   8  19
ENDBRANCH   6   8
ENDBRANCH   1   6
BRANCH   5  25
HETATM   25  C7  UNL     1      15.840 -14.990 -20.918  1.00  0.00     0.162 C
BRANCH  25  26
HETATM   26  C8  UNL     1      15.442 -15.364 -22.288  1.00  0.00     0.169 C
HETATM   27  O3  UNL     1      14.228 -14.932 -22.742  1.00  0.00    -0.382 OA
HETATM   28  C9  UNL     1      13.799 -15.722 -23.770  1.00  0.00     0.171 C
HETATM   29  C10 UNL     1      14.631 -16.982 -23.778  1.00  0.00     0.061 C
HETATM   30  C11 UNL     1      15.313 -16.894 -22.428  1.00  0.00     0.163 C
BRANCH  30  31
HETATM   31  O4  UNL     1      14.610 -17.463 -21.405  1.00  0.00    -0.328 OA
BRANCH  31  32
HETATM   32  C12 UNL     1      14.964 -18.582 -20.720  1.00  0.00     0.144 A
HETATM   33  C13 UNL     1      16.220 -19.119 -20.668  1.00  0.00     0.073 A
HETATM   34  C14 UNL     1      16.476 -20.262 -19.944  1.00  0.00     0.093 A
HETATM   35  N6  UNL     1      15.481 -20.849 -19.285  1.00  0.00    -0.362 N
HETATM   36  C15 UNL     1      14.251 -20.346 -19.320  1.00  0.00     0.182 A
ATOM     37  H6  UNL     1      15.664 -21.695 -18.745  1.00  0.00     0.165 HD
HETATM   38  N7  UNL     1      13.998 -19.235 -20.024  1.00  0.00    -0.333 N
ATOM     39  H7  UNL     1      13.047 -18.867 -20.039  1.00  0.00     0.168 HD
ENDBRANCH  31  32
ENDBRANCH  30  31
ENDBRANCH  25  26
ENDBRANCH   5  25
BRANCH   5  40
HETATM   40  C16 UNL     1      15.401 -12.578 -20.195  1.00  0.00     0.089 C
HETATM   41  C17 UNL     1      16.641 -12.380 -19.296  1.00  0.00     0.025 C
HETATM   42  C18 UNL     1      16.638 -10.933 -18.791  1.00  0.00     0.002 C
HETATM   43  C19 UNL     1      16.119 -10.063 -19.934  1.00  0.00     0.000 C
HETATM   44  C20 UNL     1      16.589 -10.710 -21.218  1.00  0.00     0.002 C
HETATM   45  C21 UNL     1      15.607 -11.878 -21.479  1.00  0.00     0.025 C
ENDBRANCH   5  40
TORSDOF 11
ENDMDL