MODEL 3
REMARK VINA RESULT: -6.631824543      3.444      6.010
REMARK  11 active torsions:
REMARK  status: ('A' for Active; 'I' for Inactive)
REMARK    1  A    between atoms: C2_2  and  O1_3
REMARK    2  A    between atoms: O1_3  and  N1_4
REMARK       I    between atoms: N1_4  and  C4_6
REMARK    3  A    between atoms: C4_6  and  C5_8
REMARK    4  A    between atoms: C5_8  and  C6_9
REMARK       I    between atoms: N2_11  and  C8_12
REMARK    5  A    between atoms: C8_12  and  O4_14
REMARK    6  A    between atoms: O4_14  and  C9_15
REMARK       I    between atoms: N3_21  and  C15_22
REMARK    7  A    between atoms: C15_22  and  C16_24
REMARK    8  A    between atoms: C16_24  and  S1_25
REMARK    9  A    between atoms: S1_25  and  C17_26
REMARK   10  A    between atoms: C19_31  and  C20_32
REMARK   11  A    between atoms: C22_34  and  C23_35
ROOT
HETATM    1  C6  UNL     1       8.032 -12.553 -21.816  1.00  0.00     0.114 C
HETATM    2  C7  UNL     1       7.556 -12.370 -20.426  1.00  0.00     0.153 C
HETATM    3  N2  UNL     1       7.871 -13.500 -19.596  1.00  0.00    -0.325 N
HETATM    4  C8  UNL     1       8.039 -13.226 -18.175  1.00  0.00     0.363 C
HETATM    5  O3  UNL     1       7.909 -12.059 -17.710  1.00  0.00    -0.238 OA
HETATM    6  C13 UNL     1       8.029 -14.864 -20.013  1.00  0.00     0.148 C
HETATM    7  C14 UNL     1       7.745 -14.972 -21.493  1.00  0.00     0.146 C
HETATM    8  N3  UNL     1       8.488 -13.895 -22.104  1.00  0.00    -0.343 N
HETATM    9  C15 UNL     1       9.612 -14.120 -22.926  1.00  0.00     0.230 C
HETATM   10  O5  UNL     1      10.277 -13.192 -23.446  1.00  0.00    -0.273 OA
ENDROOT
BRANCH   1  11
HETATM   11  C5  UNL     1       7.116 -12.091 -22.905  1.00  0.00     0.132 C
BRANCH  11  12
HETATM   12  C4  UNL     1       5.843 -12.791 -23.053  1.00  0.00     0.244 C
HETATM   13  N1  UNL     1       5.614 -13.643 -24.151  1.00  0.00    -0.231 N
HETATM   14  C3  UNL     1       6.614 -13.858 -25.162  1.00  0.00     0.189 C
HETATM   15  O2  UNL     1       4.935 -12.648 -22.208  1.00  0.00    -0.271 OA
BRANCH  13  16
HETATM   16  O1  UNL     1       4.432 -14.276 -24.265  1.00  0.00    -0.276 OA
BRANCH  16  17
HETATM   17  C2  UNL     1       4.518 -15.645 -24.159  1.00  0.00     0.197 C
HETATM   18  C1  UNL     1       4.039 -16.059 -22.784  1.00  0.00     0.036 C
ENDBRANCH  16  17
ENDBRANCH  13  16
ENDBRANCH  11  12
ENDBRANCH   1  11
BRANCH   9  19
HETATM   19  C16 UNL     1      10.090 -15.510 -23.235  1.00  0.00     0.185 C
BRANCH  19  20
HETATM   20  S1  UNL     1      11.280 -16.124 -22.053  1.00  0.00    -0.085 SA
BRANCH  20  21
HETATM   21  C17 UNL     1      12.552 -14.908 -21.684  1.00  0.00     0.147 A
HETATM   22  N4  UNL     1      12.906 -14.616 -20.425  1.00  0.00    -0.303 N
HETATM   23  C18 UNL     1      13.858 -13.705 -20.181  1.00  0.00     0.255 A
ATOM     24  H4  UNL     1      12.447 -15.089 -19.646  1.00  0.00     0.171 HD
HETATM   25  O6  UNL     1      14.239 -13.382 -19.009  1.00  0.00    -0.268 OA
HETATM   26  C19 UNL     1      14.533 -13.011 -21.202  1.00  0.00     0.033 A
HETATM   27  C22 UNL     1      14.160 -13.320 -22.484  1.00  0.00     0.030 A
HETATM   28  N5  UNL     1      13.183 -14.257 -22.675  1.00  0.00    -0.339 N
ATOM     29  H5  UNL     1      12.915 -14.477 -23.634  1.00  0.00     0.168 HD
BRANCH  26  30
HETATM   30  C20 UNL     1      15.572 -12.042 -20.915  1.00  0.00     0.042 C
HETATM   31  C21 UNL     1      16.943 -12.653 -20.678  1.00  0.00     0.010 C
ENDBRANCH  26  30
BRANCH  27  32
HETATM   32  C23 UNL     1      14.749 -12.660 -23.637  1.00  0.00    -0.008 C
HETATM   33  C24 UNL     1      13.792 -12.869 -24.810  1.00  0.00     0.021 C
HETATM   34  C25 UNL     1      14.891 -11.171 -23.564  1.00  0.00     0.021 C
HETATM   35  C26 UNL     1      16.056 -13.287 -24.124  1.00  0.00     0.021 C
ENDBRANCH  27  32
ENDBRANCH  20  21
ENDBRANCH  19  20
ENDBRANCH   9  19
BRANCH   4  36
HETATM   36  O4  UNL     1       8.347 -14.233 -17.292  1.00  0.00    -0.294 OA
BRANCH  36  37
HETATM   37  C9  UNL     1       9.610 -14.509 -16.740  1.00  0.00     0.061 C
HETATM   38  C10 UNL     1      10.676 -14.703 -17.793  1.00  0.00     0.046 C
HETATM   39  C11 UNL     1       9.996 -13.388 -15.812  1.00  0.00     0.046 C
HETATM   40  C12 UNL     1       9.452 -15.784 -15.905  1.00  0.00     0.046 C
ENDBRANCH  36  37
ENDBRANCH   4  36
TORSDOF 11
ENDMDL