MODEL 4
REMARK VINA RESULT: -7.431978596      2.964      6.700
REMARK  9 active torsions:
REMARK  status: ('A' for Active; 'I' for Inactive)
REMARK    1  A    between atoms: C2_2  and  C4_4
REMARK    2  A    between atoms: C4_4  and  C5_5
REMARK    3  A    between atoms: C4_4  and  C7_7
REMARK    4  A    between atoms: C7_7  and  N1_8
REMARK    5  A    between atoms: C15_16  and  C16_17
REMARK    6  A    between atoms: C16_17  and  C17_18
REMARK    7  A    between atoms: C17_18  and  C18_19
REMARK       I    between atoms: C18_19  and  N2_21
REMARK    8  A    between atoms: C23_28  and  O4_29
REMARK    9  A    between atoms: C25_31  and  O5_32
ROOT
HETATM    1  N1  UNL     1       9.310 -15.922 -19.432  1.00  0.00     0.131 N
HETATM    2  C8  UNL     1       8.297 -16.897 -19.691  1.00  0.00     0.278 C
HETATM    3  C9  UNL     1       8.656 -17.655 -20.932  1.00  0.00     0.048 C
HETATM    4  C10 UNL     1       9.749 -16.823 -21.604  1.00  0.00     0.054 C
HETATM    5  C11 UNL     1       9.134 -16.392 -22.941  1.00  0.00     0.026 C
HETATM    6  C12 UNL     1       9.785 -15.141 -23.414  1.00  0.00     0.042 C
HETATM    7  C13 UNL     1       9.369 -14.741 -24.794  1.00  0.00     0.012 C
HETATM    8  C14 UNL     1       8.038 -14.082 -24.905  1.00  0.00     0.032 C
HETATM    9  C15 UNL     1       7.946 -13.013 -23.834  1.00  0.00     0.125 C
HETATM   10  O2  UNL     1       8.092 -13.689 -22.613  1.00  0.00    -0.356 OA
HETATM   11  C21 UNL     1       9.439 -14.078 -22.391  1.00  0.00     0.267 C
HETATM   12  O3  UNL     1       9.517 -14.449 -21.118  1.00  0.00    -0.318 OA
HETATM   13  C22 UNL     1       9.998 -15.653 -20.713  1.00  0.00     0.302 C
HETATM   14  C23 UNL     1      11.444 -15.439 -20.375  1.00  0.00     0.219 C
HETATM   15  C25 UNL     1      12.212 -16.733 -20.186  1.00  0.00     0.183 C
HETATM   16  C26 UNL     1      12.251 -17.311 -21.610  1.00  0.00     0.186 C
HETATM   17  O6  UNL     1      12.977 -18.506 -21.639  1.00  0.00    -0.345 OA
HETATM   18  C27 UNL     1      12.043 -19.527 -21.574  1.00  0.00     0.158 C
HETATM   19  C28 UNL     1      12.450 -20.448 -20.418  1.00  0.00     0.078 C
HETATM   20  C29 UNL     1      11.969 -20.355 -22.826  1.00  0.00     0.078 C
HETATM   21  O7  UNL     1      10.826 -18.973 -21.231  1.00  0.00    -0.347 OA
HETATM   22  C30 UNL     1      10.865 -17.735 -21.918  1.00  0.00     0.170 C
ENDROOT
BRANCH   1  23
HETATM   23  C7  UNL     1       8.679 -14.744 -18.924  1.00  0.00     0.311 C
BRANCH  23  24
HETATM   24  C4  UNL     1       8.727 -14.472 -17.489  1.00  0.00    -0.047 C
BRANCH  24  25
HETATM   25  C2  UNL     1       8.931 -13.063 -17.072  1.00  0.00    -0.067 C
HETATM   26  C1  UNL     1       9.723 -12.676 -16.088  1.00  0.00     0.018 C
HETATM   27  C3  UNL     1       8.178 -11.959 -17.781  1.00  0.00     0.047 C
ENDBRANCH  24  25
BRANCH  24  28
HETATM   28  C5  UNL     1       9.454 -15.459 -16.611  1.00  0.00     0.032 C
HETATM   29  C6  UNL     1       8.445 -16.393 -15.978  1.00  0.00     0.010 C
ENDBRANCH  24  28
ENDBRANCH  23  24
ENDBRANCH   1  23
BRANCH  14  30
HETATM   30  O4  UNL     1      11.652 -14.555 -19.357  1.00  0.00    -0.383 OA
HETATM   31  C24 UNL     1      12.978 -14.468 -18.953  1.00  0.00     0.202 C
ENDBRANCH  14  30
BRANCH  15  32
HETATM   32  O5  UNL     1      11.586 -17.631 -19.356  1.00  0.00    -0.390 OA
ATOM     33  H5  UNL     1      11.743 -17.471 -18.433  1.00  0.00     0.210 HD
ENDBRANCH  15  32
BRANCH   9  34
HETATM   34  C16 UNL     1       6.576 -12.427 -23.816  1.00  0.00     0.041 C
BRANCH  34  35
HETATM   35  C17 UNL     1       5.571 -13.360 -24.404  1.00  0.00     0.105 C
BRANCH  35  36
HETATM   36  C18 UNL     1       4.806 -14.159 -23.439  1.00  0.00     0.219 C
HETATM   37  O1  UNL     1       4.476 -13.686 -22.336  1.00  0.00    -0.273 OA
HETATM   38  N2  UNL     1       4.438 -15.483 -23.762  1.00  0.00    -0.361 N
HETATM   39  C19 UNL     1       4.789 -16.096 -25.015  1.00  0.00     0.152 C
HETATM   40  C20 UNL     1       3.671 -16.282 -22.801  1.00  0.00     0.152 C
ENDBRANCH  35  36
ENDBRANCH  34  35
ENDBRANCH   9  34
TORSDOF 9
ENDMDL