MODEL 5
REMARK VINA RESULT: -6.440584661      2.717      7.571
REMARK  10 active torsions:
REMARK  status: ('A' for Active; 'I' for Inactive)
REMARK    1  A    between atoms: C2_2  and  C3_3
REMARK    2  A    between atoms: C3_3  and  C4_4
REMARK    3  A    between atoms: C5_6  and  C6_7
REMARK    4  A    between atoms: C6_7  and  C8_9
REMARK    5  A    between atoms: C21_24  and  N2_25
REMARK    6  A    between atoms: C25_30  and  O4_32
REMARK    7  A    between atoms: O4_32  and  C27_33
REMARK       I    between atoms: C27_33  and  N3_35
REMARK    8  A    between atoms: N3_35  and  C29_37
REMARK    9  A    between atoms: C29_37  and  C30_38
REMARK   10  A    between atoms: C30_38  and  O6_39
ROOT
HETATM    1  C4  UNL     1      13.133 -14.796 -21.988  1.00  0.00     0.198 C
HETATM    2  O1  UNL     1      11.861 -14.927 -22.621  1.00  0.00    -0.365 OA
HETATM    3  C5  UNL     1      11.889 -14.479 -23.940  1.00  0.00     0.200 C
HETATM    4  C20 UNL     1      12.807 -13.334 -24.024  1.00  0.00     0.185 C
HETATM    5  O2  UNL     1      12.475 -12.211 -24.102  1.00  0.00    -0.292 OA
HETATM    6  C21 UNL     1      14.258 -13.718 -23.996  1.00  0.00     0.224 C
HETATM    7  C24 UNL     1      14.173 -14.908 -23.010  1.00  0.00     0.185 C
HETATM    8  O3  UNL     1      14.949 -15.773 -23.190  1.00  0.00    -0.292 OA
ENDROOT
BRANCH   3   9
HETATM    9  C6  UNL     1      10.489 -14.216 -24.394  1.00  0.00     0.055 C
HETATM   10  C7  UNL     1      10.224 -14.472 -25.837  1.00  0.00     0.015 C
BRANCH   9  11
HETATM   11  C8  UNL     1       9.410 -14.724 -23.479  1.00  0.00     0.252 C
HETATM   12  C9  UNL     1       8.601 -13.538 -23.042  1.00  0.00     0.013 C
HETATM   13  C10 UNL     1       7.317 -13.629 -22.744  1.00  0.00    -0.067 C
HETATM   14  C11 UNL     1       6.696 -14.980 -22.862  1.00  0.00     0.047 C
HETATM   15  C17 UNL     1       6.292 -12.663 -22.303  1.00  0.00    -0.024 C
HETATM   16  C12 UNL     1       7.230 -15.544 -24.162  1.00  0.00     0.282 C
HETATM   17  C14 UNL     1       5.215 -14.770 -22.853  1.00  0.00    -0.008 C
HETATM   18  N1  UNL     1       8.626 -15.784 -24.006  1.00  0.00     0.093 N
HETATM   19  C13 UNL     1       8.830 -17.054 -23.370  1.00  0.00     0.310 C
HETATM   20  C15 UNL     1       4.530 -15.234 -24.115  1.00  0.00     0.011 C
HETATM   21  C16 UNL     1       4.951 -13.339 -22.512  1.00  0.00     0.018 C
HETATM   22  C18 UNL     1       6.285 -11.407 -23.157  1.00  0.00     0.019 C
HETATM   23  C19 UNL     1       6.504 -12.323 -20.842  1.00  0.00     0.019 C
ENDBRANCH   9  11
ENDBRANCH   3   9
BRANCH   1  24
HETATM   24  C3  UNL     1      13.150 -15.802 -20.901  1.00  0.00     0.076 C
BRANCH  24  25
HETATM   25  C2  UNL     1      12.741 -15.420 -19.555  1.00  0.00    -0.051 C
HETATM   26  C1  UNL     1      13.092 -14.208 -18.800  1.00  0.00     0.046 C
HETATM   27  C25 UNL     1      11.955 -16.306 -18.892  1.00  0.00     0.056 C
HETATM   28  C26 UNL     1      11.538 -17.570 -19.572  1.00  0.00     0.077 C
BRANCH  27  29
HETATM   29  O4  UNL     1      11.509 -16.109 -17.601  1.00  0.00    -0.266 OA
BRANCH  29  30
HETATM   30  C27 UNL     1      10.175 -15.776 -17.400  1.00  0.00     0.367 C
HETATM   31  O5  UNL     1       9.304 -16.438 -18.018  1.00  0.00    -0.238 OA
HETATM   32  N3  UNL     1       9.764 -14.734 -16.538  1.00  0.00    -0.330 N
HETATM   33  C28 UNL     1      10.757 -13.964 -15.823  1.00  0.00     0.155 C
BRANCH  32  34
HETATM   34  C29 UNL     1       8.362 -14.422 -16.354  1.00  0.00     0.153 C
BRANCH  34  35
HETATM   35  C30 UNL     1       7.781 -13.690 -17.547  1.00  0.00     0.184 C
BRANCH  35  36
HETATM   36  O6  UNL     1       6.947 -14.579 -18.215  1.00  0.00    -0.399 OA
ATOM     37  H6  UNL     1       6.613 -14.134 -18.985  1.00  0.00     0.209 HD
ENDBRANCH  35  36
ENDBRANCH  34  35
ENDBRANCH  32  34
ENDBRANCH  29  30
ENDBRANCH  27  29
ENDBRANCH  24  25
ENDBRANCH   1  24
BRANCH   6  38
HETATM   38  N2  UNL     1      15.161 -12.751 -23.604  1.00  0.00    -0.404 N
HETATM   39  C22 UNL     1      15.303 -12.410 -22.257  1.00  0.00     0.144 C
HETATM   40  C23 UNL     1      15.972 -12.112 -24.557  1.00  0.00     0.144 C
ENDBRANCH   6  38
TORSDOF 10
ENDMDL