MODEL 3
REMARK VINA RESULT: -6.837123441      1.593      2.248
REMARK  10 active torsions:
REMARK  status: ('A' for Active; 'I' for Inactive)
REMARK    1  A    between atoms: C2_2  and  C3_3
REMARK    2  A    between atoms: C3_3  and  C4_4
REMARK    3  A    between atoms: C21_25  and  O5_26
REMARK    4  A    between atoms: O5_26  and  C22_27
REMARK    5  A    between atoms: C22_27  and  C23_29
REMARK    6  A    between atoms: C24_30  and  C25_31
REMARK    7  A    between atoms: C25_31  and  C26_32
REMARK    8  A    between atoms: C26_32  and  C27_33
REMARK    9  A    between atoms: C27_33  and  S1_34
REMARK   10  A    between atoms: C28_37  and  O9_38
ROOT
HETATM    1  C4  UNL     1      10.012 -15.743 -17.656  1.00  0.00    -0.055 C
HETATM    2  C5  UNL     1      11.121 -16.264 -18.120  1.00  0.00    -0.021 C
HETATM    3  C6  UNL     1      11.390 -16.607 -19.551  1.00  0.00     0.035 C
HETATM    4  C7  UNL     1      10.220 -16.282 -20.453  1.00  0.00     0.035 C
HETATM    5  C8  UNL     1       8.973 -16.563 -19.651  1.00  0.00     0.027 C
HETATM    6  C9  UNL     1       7.832 -16.456 -20.597  1.00  0.00     0.016 C
HETATM    7  C10 UNL     1       7.841 -17.545 -21.660  1.00  0.00     0.032 C
HETATM    8  C11 UNL     1       6.827 -18.551 -21.312  1.00  0.00     0.068 C
HETATM    9  C12 UNL     1       5.449 -17.929 -21.663  1.00  0.00     0.047 C
HETATM   10  C13 UNL     1       6.682 -18.934 -19.868  1.00  0.00     0.047 C
HETATM   11  O1  UNL     1       6.832 -19.744 -22.059  1.00  0.00    -0.310 OA
HETATM   12  C14 UNL     1       7.773 -20.716 -22.202  1.00  0.00     0.259 C
HETATM   13  O2  UNL     1       7.380 -21.876 -22.394  1.00  0.00    -0.265 OA
HETATM   14  C15 UNL     1       9.226 -20.530 -22.153  1.00  0.00     0.112 C
HETATM   15  C16 UNL     1       9.681 -19.267 -21.464  1.00  0.00     0.022 C
HETATM   16  C17 UNL     1       9.204 -17.987 -22.051  1.00  0.00    -0.002 C
HETATM   17  C18 UNL     1       9.264 -18.155 -23.581  1.00  0.00     0.019 C
HETATM   18  C19 UNL     1      10.265 -16.939 -21.771  1.00  0.00     0.118 C
HETATM   19  O3  UNL     1      11.580 -17.494 -21.965  1.00  0.00    -0.303 OA
HETATM   20  C20 UNL     1      12.040 -16.375 -22.629  1.00  0.00     0.292 C
HETATM   21  O4  UNL     1      13.194 -15.976 -22.860  1.00  0.00    -0.262 OA
HETATM   22  C21 UNL     1      10.634 -15.994 -22.863  1.00  0.00     0.267 C
HETATM   23  C28 UNL     1       8.872 -15.450 -18.624  1.00  0.00     0.154 C
ENDROOT
BRANCH  22  24
HETATM   24  O5  UNL     1      10.291 -14.668 -22.537  1.00  0.00    -0.299 OA
BRANCH  24  25
HETATM   25  C22 UNL     1       9.404 -13.884 -23.302  1.00  0.00     0.283 C
HETATM   26  O6  UNL     1       8.953 -12.917 -22.652  1.00  0.00    -0.260 OA
BRANCH  25  27
HETATM   27  C23 UNL     1       9.098 -14.219 -24.672  1.00  0.00     0.078 C
HETATM   28  C24 UNL     1       8.019 -14.816 -25.054  1.00  0.00    -0.021 C
BRANCH  28  29
HETATM   29  C25 UNL     1       6.860 -15.305 -24.302  1.00  0.00     0.028 C
BRANCH  29  30
HETATM   30  C26 UNL     1       5.665 -14.443 -24.751  1.00  0.00     0.020 C
BRANCH  30  31
HETATM   31  C27 UNL     1       5.588 -13.198 -23.875  1.00  0.00     0.157 C
BRANCH  31  32
HETATM   32  S1  UNL     1       4.969 -13.565 -22.463  1.00  0.00     0.250 S
HETATM   33  O7  UNL     1       5.318 -12.968 -21.319  1.00  0.00    -0.212 OA
HETATM   34  O8  UNL     1       3.728 -14.435 -22.433  1.00  0.00    -0.212 OA
ENDBRANCH  31  32
ENDBRANCH  30  31
ENDBRANCH  29  30
ENDBRANCH  28  29
ENDBRANCH  25  27
ENDBRANCH  24  25
ENDBRANCH  22  24
BRANCH  23  35
HETATM   35  O9  UNL     1       9.057 -14.227 -19.221  1.00  0.00    -0.386 OA
HETATM   36  C29 UNL     1       7.936 -13.417 -18.990  1.00  0.00     0.202 C
ENDBRANCH  23  35
BRANCH   1  37
HETATM   37  C3  UNL     1       9.736 -15.399 -16.256  1.00  0.00     0.036 C
BRANCH  37  38
HETATM   38  C2  UNL     1      10.507 -14.288 -15.653  1.00  0.00    -0.000 C
HETATM   39  C1  UNL     1       9.845 -12.968 -15.969  1.00  0.00     0.005 C
ENDBRANCH  37  38
ENDBRANCH   1  37
TORSDOF 10
ENDMDL