MODEL 2
REMARK VINA RESULT: -6.774543292      1.982      3.861
REMARK  10 active torsions:
REMARK  status: ('A' for Active; 'I' for Inactive)
REMARK       I    between atoms: N2_5  and  C4_6
REMARK    1  A    between atoms: C4_6  and  O2_8
REMARK    2  A    between atoms: O2_8  and  C5_9
REMARK    3  A    between atoms: C5_9  and  C6_10
REMARK    4  A    between atoms: C6_10  and  O3_11
REMARK    5  A    between atoms: O3_11  and  C7_12
REMARK    6  A    between atoms: C7_12  and  C8_13
REMARK    7  A    between atoms: C8_13  and  O4_14
REMARK    8  A    between atoms: O4_14  and  C9_15
REMARK    9  A    between atoms: C26_34  and  C28_36
REMARK   10  A    between atoms: C28_36  and  O7_37
ROOT
HETATM    1  C9  UNL     1       8.663 -14.320 -17.961  1.00  0.00     0.132 C
HETATM    2  C10 UNL     1       8.034 -15.684 -18.403  1.00  0.00     0.034 C
HETATM    3  C11 UNL     1       7.865 -15.780 -19.867  1.00  0.00     0.012 C
HETATM    4  C12 UNL     1       8.360 -14.632 -20.688  1.00  0.00    -0.035 C
HETATM    5  C13 UNL     1       9.865 -14.936 -20.915  1.00  0.00     0.016 C
HETATM    6  C14 UNL     1       7.742 -14.792 -22.070  1.00  0.00     0.006 C
HETATM    7  C15 UNL     1       6.309 -15.132 -22.095  1.00  0.00     0.007 C
HETATM    8  C16 UNL     1       5.520 -14.685 -23.262  1.00  0.00     0.012 C
HETATM    9  C17 UNL     1       6.236 -14.148 -24.438  1.00  0.00    -0.016 C
HETATM   10  C18 UNL     1       5.491 -12.928 -25.012  1.00  0.00     0.018 C
HETATM   11  C19 UNL     1       6.251 -15.156 -25.592  1.00  0.00     0.177 C
HETATM   12  O5  UNL     1       7.519 -15.056 -26.151  1.00  0.00    -0.390 OA
HETATM   13  C20 UNL     1       8.382 -14.860 -25.048  1.00  0.00     0.173 C
HETATM   14  C21 UNL     1       7.655 -13.800 -24.291  1.00  0.00     0.031 C
HETATM   15  C22 UNL     1       8.147 -13.618 -22.888  1.00  0.00     0.067 C
HETATM   16  C23 UNL     1       7.684 -12.352 -22.342  1.00  0.00     0.132 C
HETATM   17  O6  UNL     1       7.397 -11.439 -23.093  1.00  0.00    -0.298 OA
HETATM   18  C24 UNL     1       7.574 -12.211 -20.850  1.00  0.00     0.085 C
HETATM   19  C25 UNL     1       8.270 -13.280 -20.085  1.00  0.00     0.014 C
HETATM   20  C26 UNL     1       7.841 -13.262 -18.621  1.00  0.00     0.008 C
HETATM   21  C27 UNL     1       6.366 -13.428 -18.411  1.00  0.00     0.020 C
ENDROOT
BRANCH   1  22
HETATM   22  O4  UNL     1       8.512 -14.302 -16.592  1.00  0.00    -0.383 OA
BRANCH  22  23
HETATM   23  C8  UNL     1       9.538 -14.834 -15.844  1.00  0.00     0.194 C
BRANCH  23  24
HETATM   24  C7  UNL     1      10.828 -14.084 -15.863  1.00  0.00     0.193 C
BRANCH  24  25
HETATM   25  O3  UNL     1      11.627 -14.250 -16.879  1.00  0.00    -0.387 OA
BRANCH  25  26
HETATM   26  C6  UNL     1      11.844 -15.209 -17.722  1.00  0.00     0.194 C
BRANCH  26  27
HETATM   27  C5  UNL     1      12.845 -15.075 -18.830  1.00  0.00     0.207 C
BRANCH  27  28
HETATM   28  O2  UNL     1      13.125 -13.720 -19.174  1.00  0.00    -0.302 OA
BRANCH  28  29
HETATM   29  C4  UNL     1      14.287 -13.240 -19.707  1.00  0.00     0.362 C
HETATM   30  N2  UNL     1      14.453 -13.216 -21.121  1.00  0.00    -0.325 N
HETATM   31  C3  UNL     1      13.385 -13.703 -21.951  1.00  0.00     0.158 C
HETATM   32  C29 UNL     1      15.697 -12.700 -21.646  1.00  0.00     0.158 C
HETATM   33  C2  UNL     1      13.703 -13.465 -23.423  1.00  0.00     0.291 C
HETATM   34  N1  UNL     1      14.221 -12.118 -23.525  1.00  0.00     0.087 N
HETATM   35  C1  UNL     1      14.231 -11.606 -24.864  1.00  0.00     0.310 C
HETATM   36  C30 UNL     1      15.585 -12.150 -23.029  1.00  0.00     0.291 C
HETATM   37  O1  UNL     1      15.204 -12.819 -18.941  1.00  0.00    -0.238 OA
ENDBRANCH  28  29
ENDBRANCH  27  28
ENDBRANCH  26  27
ENDBRANCH  25  26
ENDBRANCH  24  25
ENDBRANCH  23  24
ENDBRANCH  22  23
ENDBRANCH   1  22
BRANCH  20  38
HETATM   38  C28 UNL     1       8.176 -11.933 -17.985  1.00  0.00     0.176 C
BRANCH  38  39
HETATM   39  O7  UNL     1       9.476 -11.911 -17.430  1.00  0.00    -0.400 OA
ATOM     40  H7  UNL     1      10.006 -11.202 -17.773  1.00  0.00     0.209 HD
ENDBRANCH  38  39
ENDBRANCH  20  38
TORSDOF 10
ENDMDL