MODEL 4
REMARK VINA RESULT: -6.133256429      0.802      1.072
REMARK  12 active torsions:
REMARK  status: ('A' for Active; 'I' for Inactive)
REMARK    1  A    between atoms: C2_2  and  C3_3
REMARK    2  A    between atoms: C3_3  and  C4_4
REMARK    3  A    between atoms: C6_8  and  C7_9
REMARK    4  A    between atoms: C8_10  and  C9_11
REMARK    5  A    between atoms: C9_11  and  C10_12
REMARK    6  A    between atoms: C10_12  and  O4_14
REMARK    7  A    between atoms: N2_24  and  C16_25
REMARK    8  A    between atoms: C19_28  and  O7_29
REMARK    9  A    between atoms: C20_31  and  C21_32
REMARK   10  A    between atoms: C25_36  and  C26_37
REMARK   11  A    between atoms: C26_37  and  O9_39
REMARK   12  A    between atoms: O9_39  and  C27_40
ROOT
HETATM    1  C4  UNL     1      10.423 -15.161 -18.669  1.00  0.00     0.099 C
HETATM    2  C5  UNL     1      11.170 -16.182 -19.442  1.00  0.00     0.265 C
HETATM    3  O1  UNL     1      10.971 -17.371 -19.060  1.00  0.00    -0.265 OA
HETATM    4  O2  UNL     1      11.975 -15.881 -20.437  1.00  0.00    -0.302 OA
HETATM    5  C6  UNL     1      12.200 -15.733 -21.749  1.00  0.00     0.246 C
HETATM    6  C12 UNL     1      12.030 -14.386 -22.353  1.00  0.00     0.251 C
HETATM    7  O5  UNL     1      12.838 -13.486 -21.996  1.00  0.00    -0.270 OA
HETATM    8  N1  UNL     1      11.027 -14.044 -23.296  1.00  0.00    -0.346 N
ATOM      9  H1  UNL     1      11.050 -13.104 -23.693  1.00  0.00     0.163 HD
HETATM   10  C13 UNL     1       9.976 -14.936 -23.734  1.00  0.00     0.173 C
HETATM   11  C14 UNL     1      10.480 -15.499 -25.078  1.00  0.00     0.042 C
HETATM   12  C15 UNL     1       8.676 -14.256 -23.953  1.00  0.00     0.248 C
HETATM   13  O6  UNL     1       8.771 -13.315 -24.831  1.00  0.00    -0.271 OA
HETATM   14  N2  UNL     1       7.417 -14.474 -23.377  1.00  0.00    -0.292 N
HETATM   15  C19 UNL     1       7.072 -14.712 -22.027  1.00  0.00     0.147 C
HETATM   16  C20 UNL     1       7.500 -14.060 -20.764  1.00  0.00    -0.025 C
HETATM   17  C24 UNL     1       8.787 -14.600 -20.324  1.00  0.00     0.054 C
HETATM   18  C25 UNL     1       8.947 -15.089 -18.909  1.00  0.00     0.103 C
ENDROOT
BRANCH   5  19
HETATM   19  C7  UNL     1      13.668 -16.050 -21.981  1.00  0.00     0.011 C
HETATM   20  C8  UNL     1      14.034 -16.468 -23.180  1.00  0.00    -0.018 C
BRANCH  20  21
HETATM   21  C9  UNL     1      15.430 -16.807 -23.521  1.00  0.00     0.138 C
BRANCH  21  22
HETATM   22  C10 UNL     1      16.419 -15.923 -22.862  1.00  0.00     0.261 C
HETATM   23  O3  UNL     1      16.597 -14.758 -23.269  1.00  0.00    -0.265 OA
BRANCH  22  24
HETATM   24  O4  UNL     1      17.148 -16.384 -21.796  1.00  0.00    -0.326 OA
HETATM   25  C11 UNL     1      17.074 -15.765 -20.519  1.00  0.00     0.213 C
ENDBRANCH  22  24
ENDBRANCH  21  22
ENDBRANCH  20  21
ENDBRANCH   5  19
BRANCH   1  26
HETATM   26  C3  UNL     1      10.805 -15.308 -17.210  1.00  0.00     0.015 C
BRANCH  26  27
HETATM   27  C2  UNL     1      11.196 -14.036 -16.549  1.00  0.00    -0.004 C
HETATM   28  C1  UNL     1       9.936 -13.413 -15.941  1.00  0.00     0.005 C
ENDBRANCH  26  27
ENDBRANCH   1  26
BRANCH  18  29
HETATM   29  C26 UNL     1       8.152 -16.268 -18.597  1.00  0.00     0.264 C
HETATM   30  O8  UNL     1       8.157 -16.748 -17.401  1.00  0.00    -0.265 OA
BRANCH  29  31
HETATM   31  O9  UNL     1       7.344 -16.983 -19.467  1.00  0.00    -0.322 OA
BRANCH  31  32
HETATM   32  C27 UNL     1       7.804 -18.211 -19.997  1.00  0.00     0.174 C
HETATM   33  C28 UNL     1       6.714 -19.208 -20.202  1.00  0.00     0.034 C
ENDBRANCH  31  32
ENDBRANCH  29  31
ENDBRANCH  18  29
BRANCH  14  34
HETATM   34  C16 UNL     1       6.287 -14.480 -24.358  1.00  0.00     0.087 C
HETATM   35  C17 UNL     1       5.860 -13.130 -24.782  1.00  0.00     0.032 C
HETATM   36  C18 UNL     1       6.665 -15.267 -25.611  1.00  0.00     0.032 C
ENDBRANCH  14  34
BRANCH  16  37
HETATM   37  C21 UNL     1       7.273 -12.591 -20.701  1.00  0.00     0.011 C
HETATM   38  C22 UNL     1       5.863 -12.216 -21.196  1.00  0.00     0.014 C
HETATM   39  C23 UNL     1       7.437 -11.904 -19.397  1.00  0.00     0.014 C
ENDBRANCH  16  37
BRANCH  15  40
HETATM   40  O7  UNL     1       6.213 -15.706 -21.945  1.00  0.00    -0.346 OA
ATOM     41  H7  UNL     1       5.493 -15.569 -22.550  1.00  0.00     0.219 HD
ENDBRANCH  15  40
TORSDOF 12
ENDMDL