MODEL 5
REMARK VINA RESULT: -7.217505310      2.329      2.834
REMARK  9 active torsions:
REMARK  status: ('A' for Active; 'I' for Inactive)
REMARK    1  A    between atoms: C2_2  and  C3_3
REMARK    2  A    between atoms: C2_2  and  N8_31
REMARK    3  A    between atoms: N1_6  and  C6_7
REMARK    4  A    between atoms: C6_7  and  C7_8
REMARK    5  A    between atoms: C7_8  and  C8_9
REMARK    6  A    between atoms: C8_9  and  N2_10
REMARK    7  A    between atoms: C10_12  and  N3_13
REMARK    8  A    between atoms: C21_34  and  O2_35
REMARK    9  A    between atoms: O2_35  and  C22_36
ROOT
HETATM    1  C3  UNL     1       7.407  17.326  21.196  1.00  0.00     0.065 C
HETATM    2  C4  UNL     1       6.460  16.377  21.886  1.00  0.00     0.058 C
HETATM    3  C5  UNL     1       6.792  16.021  23.285  1.00  0.00     0.069 C
HETATM    4  N1  UNL     1       7.732  14.994  23.485  1.00  0.00    -0.348 N
HETATM    5  C15 UNL     1       9.064  15.226  23.092  1.00  0.00     0.126 C
HETATM    6  C16 UNL     1       9.299  15.656  21.712  1.00  0.00     0.072 A
HETATM    7  N6  UNL     1      10.337  15.187  21.002  1.00  0.00    -0.350 N
ATOM      8  H6  UNL     1      11.032  14.516  21.326  1.00  0.00     0.166 HD
HETATM    9  C17 UNL     1      10.298  15.756  19.796  1.00  0.00     0.181 A
HETATM   10  N7  UNL     1       9.259  16.575  19.726  1.00  0.00    -0.353 N
ATOM     11  H7  UNL     1       8.990  17.139  18.920  1.00  0.00     0.166 HD
HETATM   12  C18 UNL     1       8.630  16.528  20.898  1.00  0.00     0.045 A
ENDROOT
BRANCH   1  13
HETATM   13  C2  UNL     1       7.793  18.522  21.981  1.00  0.00     0.085 C
HETATM   14  C1  UNL     1       6.637  19.436  22.314  1.00  0.00     0.033 C
BRANCH  13  15
HETATM   15  N8  UNL     1       8.831  19.301  21.398  1.00  0.00    -0.408 N
HETATM   16  C19 UNL     1       9.881  19.695  22.287  1.00  0.00     0.119 C
HETATM   17  C20 UNL     1      10.894  20.477  21.416  1.00  0.00     0.052 C
HETATM   18  C21 UNL     1      10.270  21.817  21.057  1.00  0.00     0.132 C
HETATM   19  C27 UNL     1       8.758  21.630  20.910  1.00  0.00     0.052 C
HETATM   20  C28 UNL     1       8.515  20.208  20.374  1.00  0.00     0.119 C
BRANCH  18  21
HETATM   21  O2  UNL     1      10.750  22.426  19.927  1.00  0.00    -0.344 OA
BRANCH  21  22
HETATM   22  C22 UNL     1      11.995  22.300  19.349  1.00  0.00     0.084 A
HETATM   23  C23 UNL     1      12.249  21.530  18.245  1.00  0.00     0.039 A
HETATM   24  C24 UNL     1      13.528  21.427  17.693  1.00  0.00     0.020 A
HETATM   25  C25 UNL     1      14.580  22.112  18.259  1.00  0.00     0.088 A
HETATM   26  N9  UNL     1      14.335  22.875  19.352  1.00  0.00    -0.373 N
HETATM   27  C26 UNL     1      13.101  22.972  19.881  1.00  0.00     0.124 A
ATOM     28  H9  UNL     1      15.104  23.389  19.783  1.00  0.00     0.164 HD
ENDBRANCH  21  22
ENDBRANCH  18  21
ENDBRANCH  13  15
ENDBRANCH   1  13
BRANCH   4  29
HETATM   29  C6  UNL     1       7.299  13.678  23.719  1.00  0.00     0.070 C
BRANCH  29  30
HETATM   30  C7  UNL     1       7.625  12.796  22.539  1.00  0.00     0.067 C
BRANCH  30  31
HETATM   31  C8  UNL     1       6.516  12.620  21.560  1.00  0.00     0.155 C
BRANCH  31  32
HETATM   32  N2  UNL     1       6.714  13.222  20.270  1.00  0.00    -0.285 N
HETATM   33  C9  UNL     1       7.756  13.104  19.438  1.00  0.00     0.161 A
HETATM   34  C10 UNL     1       7.526  13.878  18.310  1.00  0.00     0.136 A
HETATM   35  N4  UNL     1       6.308  14.453  18.515  1.00  0.00    -0.270 N
HETATM   36  N5  UNL     1       5.841  14.055  19.681  1.00  0.00    -0.239 N
ATOM     37  H4  UNL     1       5.835  15.088  17.872  1.00  0.00     0.190 HD
ATOM     38  H5  UNL     1       4.945  14.338  20.078  1.00  0.00     0.208 HD
BRANCH  34  39
HETATM   39  N3  UNL     1       8.382  14.024  17.211  1.00  0.00    -0.361 N
HETATM   40  C11 UNL     1       8.133  14.956  16.138  1.00  0.00     0.150 C
HETATM   41  C12 UNL     1       9.399  15.503  15.519  1.00  0.00     0.187 C
HETATM   42  O1  UNL     1      10.314  14.519  15.264  1.00  0.00    -0.388 OA
HETATM   43  C13 UNL     1       9.937  13.242  15.604  1.00  0.00     0.187 C
HETATM   44  C14 UNL     1       9.589  13.215  17.092  1.00  0.00     0.150 C
ENDBRANCH  34  39
ENDBRANCH  31  32
ENDBRANCH  30  31
ENDBRANCH  29  30
ENDBRANCH   4  29
TORSDOF 9
ENDMDL