MODEL 3
REMARK VINA RESULT: -6.704126682      2.039      3.217
REMARK  12 active torsions:
REMARK  status: ('A' for Active; 'I' for Inactive)
REMARK    1  A    between atoms: C2_2  and  C3_3
REMARK    2  A    between atoms: C3_3  and  C4_4
REMARK    3  A    between atoms: C4_4  and  O2_6
REMARK    4  A    between atoms: C10_13  and  O4_14
REMARK    5  A    between atoms: O4_14  and  C11_15
REMARK    6  A    between atoms: C13_18  and  C14_19
REMARK    7  A    between atoms: C14_19  and  C15_20
REMARK    8  A    between atoms: C14_19  and  C27_34
REMARK    9  A    between atoms: C14_19  and  C28_37
REMARK   10  A    between atoms: C16_21  and  C17_22
REMARK   11  A    between atoms: C27_34  and  O8_35
REMARK   12  A    between atoms: C29_38  and  O9_39
ROOT
HETATM    1  C14 UNL     1       8.030  17.461  22.118  1.00  0.00     0.027 C
ENDROOT
BRANCH   1   2
HETATM    2  C13 UNL     1       8.241  16.241  22.869  1.00  0.00     0.078 C
HETATM    3  C3  UNL     1       8.871  16.122  24.206  1.00  0.00     0.156 C
HETATM    4  O3  UNL     1       8.533  14.981  24.922  1.00  0.00    -0.359 OA
HETATM    5  C6  UNL     1       7.357  14.419  24.972  1.00  0.00     0.058 C
HETATM    6  C7  UNL     1       7.546  12.948  24.541  1.00  0.00     0.045 C
HETATM    7  C8  UNL     1       6.820  14.307  26.371  1.00  0.00     0.045 C
HETATM    8  C9  UNL     1       6.342  15.001  24.016  1.00  0.00     0.070 C
HETATM    9  C10 UNL     1       7.051  15.313  22.685  1.00  0.00     0.143 C
BRANCH   3  10
HETATM   10  C2  UNL     1      10.407  15.898  24.155  1.00  0.00     0.045 C
HETATM   11  C1  UNL     1      10.886  15.053  23.054  1.00  0.00     0.009 C
ENDBRANCH   3  10
BRANCH   3  12
HETATM   12  C4  UNL     1       8.752  17.196  25.201  1.00  0.00     0.294 C
HETATM   13  O1  UNL     1       9.774  17.593  25.901  1.00  0.00    -0.262 OA
BRANCH  12  14
HETATM   14  O2  UNL     1       7.664  17.947  25.568  1.00  0.00    -0.324 OA
HETATM   15  C5  UNL     1       7.039  17.977  26.824  1.00  0.00     0.213 C
ENDBRANCH  12  14
ENDBRANCH   3  12
BRANCH   9  16
HETATM   16  O4  UNL     1       7.318  14.084  22.055  1.00  0.00    -0.316 OA
BRANCH  16  17
HETATM   17  C11 UNL     1       6.575  13.431  21.125  1.00  0.00     0.255 C
HETATM   18  C12 UNL     1       6.146  14.048  19.827  1.00  0.00     0.126 C
HETATM   19  O5  UNL     1       6.272  12.261  21.436  1.00  0.00    -0.266 OA
ENDBRANCH  16  17
ENDBRANCH   9  16
ENDBRANCH   1   2
BRANCH   1  20
HETATM   20  C15 UNL     1       8.282  17.259  20.661  1.00  0.00    -0.014 C
HETATM   21  C16 UNL     1       9.322  16.724  20.059  1.00  0.00    -0.024 C
BRANCH  21  22
HETATM   22  C17 UNL     1       9.343  16.645  18.568  1.00  0.00     0.017 C
HETATM   23  C18 UNL     1       8.033  16.346  17.927  1.00  0.00     0.010 C
HETATM   24  C19 UNL     1       8.429  15.741  16.565  1.00  0.00     0.013 C
HETATM   25  C20 UNL     1       9.908  15.428  16.660  1.00  0.00     0.065 C
HETATM   26  C21 UNL     1      10.275  14.191  15.962  1.00  0.00     0.138 C
HETATM   27  C25 UNL     1      10.121  15.363  18.154  1.00  0.00    -0.020 C
HETATM   28  O6  UNL     1      10.993  14.200  14.974  1.00  0.00    -0.297 OA
HETATM   29  C22 UNL     1       9.746  12.905  16.490  1.00  0.00     0.156 C
HETATM   30  C23 UNL     1       9.260  13.047  17.860  1.00  0.00     0.134 C
HETATM   31  O7  UNL     1       8.539  12.143  18.309  1.00  0.00    -0.298 OA
HETATM   32  C24 UNL     1       9.531  14.167  18.794  1.00  0.00     0.089 C
HETATM   33  C26 UNL     1      11.596  15.516  18.429  1.00  0.00     0.017 C
ENDBRANCH  21  22
ENDBRANCH   1  20
BRANCH   1  34
HETATM   34  C27 UNL     1       9.016  18.605  22.500  1.00  0.00     0.182 C
BRANCH  34  35
HETATM   35  O8  UNL     1       8.478  19.706  23.041  1.00  0.00    -0.399 OA
ATOM     36  H8  UNL     1       8.682  20.531  22.617  1.00  0.00     0.209 HD
ENDBRANCH  34  35
ENDBRANCH   1  34
BRANCH   1  37
HETATM   37  C28 UNL     1       6.767  18.246  22.171  1.00  0.00     0.013 C
HETATM   38  C29 UNL     1       5.612  18.068  21.318  1.00  0.00     0.128 C
BRANCH  38  39
HETATM   39  O9  UNL     1       5.736  18.239  19.948  1.00  0.00    -0.373 OA
ATOM     40  H9  UNL     1       5.029  18.642  19.458  1.00  0.00     0.216 HD
ENDBRANCH  38  39
ENDBRANCH   1  37
TORSDOF 12
ENDMDL