MODEL 4
REMARK VINA RESULT: -6.478291671      3.614      6.267
REMARK  11 active torsions:
REMARK  status: ('A' for Active; 'I' for Inactive)
REMARK    1  A    between atoms: C2_2  and  C3_3
REMARK    2  A    between atoms: C3_3  and  C4_4
REMARK    3  A    between atoms: C4_4  and  C5_5
REMARK    4  A    between atoms: C6_7  and  C7_8
REMARK    5  A    between atoms: C7_8  and  O2_9
REMARK    6  A    between atoms: C12_15  and  O4_16
REMARK    7  A    between atoms: C13_18  and  O5_19
REMARK    8  A    between atoms: C14_21  and  C16_23
REMARK    9  A    between atoms: C16_23  and  C17_24
REMARK   10  A    between atoms: C18_25  and  C20_27
REMARK   11  A    between atoms: C21_28  and  C22_29
ROOT
HETATM    1  C5  UNL     1       8.089  15.999  19.603  1.00  0.00     0.140 C
HETATM    2  O1  UNL     1       7.040  15.633  18.684  1.00  0.00    -0.364 OA
HETATM    3  C6  UNL     1       7.133  14.218  18.586  1.00  0.00     0.144 C
HETATM    4  C9  UNL     1       5.956  13.872  19.514  1.00  0.00     0.056 C
HETATM    5  C10 UNL     1       6.460  14.728  20.723  1.00  0.00     0.032 C
HETATM    6  C11 UNL     1       5.955  13.996  21.867  1.00  0.00     0.177 C
HETATM    7  O3  UNL     1       6.559  12.727  21.896  1.00  0.00    -0.358 OA
HETATM    8  C12 UNL     1       7.464  12.865  22.934  1.00  0.00     0.286 C
HETATM    9  C13 UNL     1       8.720  13.552  22.554  1.00  0.00     0.182 C
HETATM   10  C14 UNL     1       8.676  14.813  21.793  1.00  0.00     0.007 C
HETATM   11  C15 UNL     1       8.068  15.966  22.621  1.00  0.00     0.020 C
HETATM   12  C27 UNL     1       7.983  14.824  20.529  1.00  0.00     0.065 C
HETATM   13  C28 UNL     1       8.214  13.787  19.507  1.00  0.00     0.175 C
HETATM   14  O9  UNL     1       8.938  12.867  19.305  1.00  0.00    -0.294 OA
ENDROOT
BRANCH  10  15
HETATM   15  C16 UNL     1      10.164  15.210  21.758  1.00  0.00     0.041 C
BRANCH  15  16
HETATM   16  C17 UNL     1      10.603  15.695  23.107  1.00  0.00    -0.019 C
HETATM   17  C18 UNL     1      11.735  16.264  23.400  1.00  0.00    -0.066 C
HETATM   18  C19 UNL     1      11.961  16.669  24.836  1.00  0.00     0.048 C
BRANCH  17  19
HETATM   19  C20 UNL     1      12.798  16.574  22.484  1.00  0.00     0.005 C
HETATM   20  C21 UNL     1      13.710  15.687  22.150  1.00  0.00     0.006 C
BRANCH  20  21
HETATM   21  C22 UNL     1      14.823  15.967  21.208  1.00  0.00     0.161 C
HETATM   22  C23 UNL     1      16.160  15.619  21.766  1.00  0.00     0.115 C
HETATM   23  C24 UNL     1      16.781  14.410  21.168  1.00  0.00     0.139 C
HETATM   24  O6  UNL     1      17.972  14.263  21.080  1.00  0.00    -0.297 OA
HETATM   25  C25 UNL     1      15.889  13.334  20.654  1.00  0.00     0.189 C
HETATM   26  C26 UNL     1      14.917  13.993  19.750  1.00  0.00     0.266 C
HETATM   27  O7  UNL     1      14.401  13.338  18.827  1.00  0.00    -0.265 OA
HETATM   28  O8  UNL     1      14.592  15.337  19.944  1.00  0.00    -0.311 OA
ENDBRANCH  20  21
ENDBRANCH  17  19
ENDBRANCH  15  16
ENDBRANCH  10  15
BRANCH   9  29
HETATM   29  O5  UNL     1       9.552  12.584  22.004  1.00  0.00    -0.390 OA
ATOM     30  H5  UNL     1      10.092  13.026  21.358  1.00  0.00     0.210 HD
ENDBRANCH   9  29
BRANCH   8  31
HETATM   31  O4  UNL     1       7.785  11.582  23.373  1.00  0.00    -0.369 OA
ATOM     32  H4  UNL     1       7.705  11.002  22.625  1.00  0.00     0.212 HD
ENDBRANCH   8  31
BRANCH   1  33
HETATM   33  C4  UNL     1       9.226  16.116  18.676  1.00  0.00     0.033 C
BRANCH  33  34
HETATM   34  C3  UNL     1      10.308  17.085  19.196  1.00  0.00     0.002 C
BRANCH  34  35
HETATM   35  C2  UNL     1      11.665  16.710  18.687  1.00  0.00    -0.004 C
HETATM   36  C1  UNL     1      11.680  15.451  17.889  1.00  0.00     0.005 C
ENDBRANCH  34  35
ENDBRANCH  33  34
ENDBRANCH   1  33
BRANCH   3  37
HETATM   37  C7  UNL     1       7.098  13.717  17.241  1.00  0.00     0.213 C
BRANCH  37  38
HETATM   38  O2  UNL     1       7.760  14.263  16.222  1.00  0.00    -0.393 OA
HETATM   39  C8  UNL     1       8.950  13.784  15.829  1.00  0.00     0.201 C
ENDBRANCH  37  38
ENDBRANCH   3  37
TORSDOF 11
ENDMDL