MODEL 4
REMARK VINA RESULT: -7.325412222      2.457      4.632
REMARK  10 active torsions:
REMARK  status: ('A' for Active; 'I' for Inactive)
REMARK    1  A    between atoms: C3_5  and  N2_6
REMARK    2  A    between atoms: N2_6  and  C4_7
REMARK    3  A    between atoms: C4_7  and  C5_8
REMARK    4  A    between atoms: C4_7  and  C19_27
REMARK    5  A    between atoms: C10_15  and  C11_16
REMARK    6  A    between atoms: C11_16  and  N4_17
REMARK    7  A    between atoms: N4_17  and  C13_19
REMARK    8  A    between atoms: C13_19  and  C14_20
REMARK    9  A    between atoms: C14_20  and  N5_21
REMARK   10  A    between atoms: C25_36  and  C26_37
ROOT
HETATM    1  C4  UNL     1       6.274  18.491  20.339  1.00  0.00     0.233 C
ENDROOT
BRANCH   1   2
HETATM    2  N2  UNL     1       6.971  17.434  19.888  1.00  0.00    -0.402 NA
BRANCH   2   3
HETATM    3  C3  UNL     1       7.605  16.635  19.284  1.00  0.00     0.255 A
HETATM    4  N1  UNL     1       8.931  16.731  19.004  1.00  0.00    -0.320 N
HETATM    5  C2  UNL     1       9.603  15.829  18.270  1.00  0.00     0.018 A
ATOM      6  H1  UNL     1       9.444  17.532  19.372  1.00  0.00     0.169 HD
HETATM    7  C1  UNL     1      11.037  16.022  18.021  1.00  0.00     0.069 C
HETATM    8  C25 UNL     1       8.931  14.703  17.738  1.00  0.00    -0.006 A
HETATM    9  C23 UNL     1       7.591  14.584  18.012  1.00  0.00     0.018 A
HETATM   10  N6  UNL     1       6.995  15.533  18.756  1.00  0.00    -0.320 N
HETATM   11  C24 UNL     1       6.780  13.443  17.570  1.00  0.00     0.069 C
ATOM     12  H6  UNL     1       5.998  15.420  18.942  1.00  0.00     0.169 HD
BRANCH   8  13
HETATM   13  C26 UNL     1       9.722  13.770  16.981  1.00  0.00    -0.020 C
HETATM   14  C27 UNL     1       9.353  13.825  15.463  1.00  0.00     0.019 C
HETATM   15  C28 UNL     1      11.215  13.862  17.078  1.00  0.00     0.019 C
HETATM   16  C29 UNL     1       9.432  12.262  17.232  1.00  0.00     0.019 C
ENDBRANCH   8  13
ENDBRANCH   2   3
ENDBRANCH   1   2
BRANCH   1  17
HETATM   17  C5  UNL     1       7.116  19.715  20.385  1.00  0.00     0.032 A
HETATM   18  C6  UNL     1       8.339  19.855  20.974  1.00  0.00     0.032 A
HETATM   19  C7  UNL     1       8.742  21.166  20.712  1.00  0.00     0.094 A
HETATM   20  N3  UNL     1       7.771  21.767  19.990  1.00  0.00    -0.329 N
HETATM   21  C8  UNL     1       6.778  20.907  19.778  1.00  0.00     0.154 A
HETATM   22  C10 UNL     1       7.437  23.092  19.415  1.00  0.00     0.144 C
HETATM   23  O1  UNL     1       5.795  21.570  19.022  1.00  0.00    -0.333 OA
HETATM   24  C9  UNL     1       5.943  22.981  19.191  1.00  0.00     0.204 C
BRANCH  22  25
HETATM   25  C11 UNL     1       7.752  24.071  20.490  1.00  0.00     0.299 C
BRANCH  25  26
HETATM   26  N4  UNL     1       6.671  24.554  21.293  1.00  0.00     0.087 N
HETATM   27  C12 UNL     1       6.628  26.014  21.307  1.00  0.00     0.310 C
BRANCH  26  28
HETATM   28  C13 UNL     1       7.033  24.188  22.674  1.00  0.00     0.302 C
BRANCH  28  29
HETATM   29  C14 UNL     1       6.268  22.980  23.093  1.00  0.00     0.302 C
BRANCH  29  30
HETATM   30  N5  UNL     1       4.879  23.097  22.604  1.00  0.00     0.094 N
HETATM   31  C15 UNL     1       4.052  23.782  23.604  1.00  0.00     0.298 C
HETATM   32  C16 UNL     1       2.635  23.219  23.575  1.00  0.00     0.198 C
HETATM   33  O2  UNL     1       2.628  21.928  24.123  1.00  0.00    -0.388 OA
HETATM   34  C17 UNL     1       3.860  21.303  23.889  1.00  0.00     0.198 C
HETATM   35  C18 UNL     1       4.332  21.741  22.510  1.00  0.00     0.298 C
ENDBRANCH  29  30
ENDBRANCH  28  29
ENDBRANCH  26  28
ENDBRANCH  25  26
ENDBRANCH  22  25
ENDBRANCH   1  17
BRANCH   1  36
HETATM   36  C19 UNL     1       5.639  18.222  21.714  1.00  0.00     0.162 C
HETATM   37  C20 UNL     1       5.980  16.867  22.214  1.00  0.00     0.037 C
HETATM   38  C21 UNL     1       4.765  16.451  23.003  1.00  0.00     0.029 C
HETATM   39  C22 UNL     1       3.924  17.734  22.960  1.00  0.00     0.168 C
HETATM   40  O3  UNL     1       4.312  18.370  21.786  1.00  0.00    -0.382 OA
ENDBRANCH   1  36
TORSDOF 10
ENDMDL