MODEL 2
REMARK VINA RESULT: -7.257236320      1.006      1.090
REMARK  11 active torsions:
REMARK  status: ('A' for Active; 'I' for Inactive)
REMARK    1  A    between atoms: C2_2  and  C4_4
REMARK    2  A    between atoms: C7_7  and  N1_8
REMARK    3  A    between atoms: N1_8  and  C9_10
REMARK    4  A    between atoms: C9_10  and  S2_12
REMARK    5  A    between atoms: S2_12  and  C10_13
REMARK    6  A    between atoms: C11_14  and  C12_15
REMARK    7  A    between atoms: C12_15  and  O1_16
REMARK    8  A    between atoms: O1_16  and  C13_17
REMARK    9  A    between atoms: C13_17  and  C14_19
REMARK   10  A    between atoms: C14_19  and  N2_20
REMARK   11  A    between atoms: N2_20  and  S3_22
ROOT
HETATM    1  C10 UNL     1       8.585  14.668  22.461  1.00  0.00     0.119 C
HETATM    2  C11 UNL     1       7.740  14.007  23.581  1.00  0.00     0.166 C
HETATM    3  O4  UNL     1       7.002  13.075  22.909  1.00  0.00    -0.350 OA
HETATM    4  C16 UNL     1       6.755  13.463  21.628  1.00  0.00     0.294 C
HETATM    5  O5  UNL     1       6.901  12.472  20.660  1.00  0.00    -0.324 OA
HETATM    6  C17 UNL     1       7.499  13.143  19.585  1.00  0.00     0.160 C
HETATM    7  C18 UNL     1       6.655  14.220  18.990  1.00  0.00     0.078 C
HETATM    8  C19 UNL     1       8.107  12.233  18.566  1.00  0.00     0.078 C
HETATM    9  O6  UNL     1       8.533  13.807  20.289  1.00  0.00    -0.344 OA
HETATM   10  C20 UNL     1       7.765  14.479  21.239  1.00  0.00     0.197 C
ENDROOT
BRANCH   1  11
HETATM   11  S2  UNL     1       8.883  16.363  22.767  1.00  0.00    -0.090 SA
BRANCH  11  12
HETATM   12  C9  UNL     1      10.125  17.192  21.903  1.00  0.00     0.141 C
HETATM   13  S1  UNL     1      10.207  18.884  22.144  1.00  0.00    -0.052 SA
BRANCH  12  14
HETATM   14  N1  UNL     1      11.116  16.736  21.021  1.00  0.00    -0.337 N
HETATM   15  C8  UNL     1      12.485  16.567  21.391  1.00  0.00     0.158 C
BRANCH  14  16
HETATM   16  C7  UNL     1      10.699  16.397  19.689  1.00  0.00     0.035 A
HETATM   17  C6  UNL     1       9.502  16.739  19.162  1.00  0.00     0.030 A
HETATM   18  C5  UNL     1       9.162  16.349  17.852  1.00  0.00     0.010 A
HETATM   19  C4  UNL     1      10.058  15.617  17.118  1.00  0.00    -0.055 A
HETATM   20  C22 UNL     1      11.290  15.259  17.645  1.00  0.00     0.010 A
HETATM   21  C21 UNL     1      11.587  15.654  18.919  1.00  0.00     0.030 A
BRANCH  19  22
HETATM   22  C2  UNL     1       9.745  15.177  15.749  1.00  0.00     0.010 C
HETATM   23  C1  UNL     1      10.120  13.732  15.510  1.00  0.00     0.015 C
HETATM   24  C3  UNL     1       8.263  15.372  15.500  1.00  0.00     0.015 C
ENDBRANCH  19  22
ENDBRANCH  14  16
ENDBRANCH  12  14
ENDBRANCH  11  12
ENDBRANCH   1  11
BRANCH   2  25
HETATM   25  C12 UNL     1       7.022  15.073  24.328  1.00  0.00     0.212 C
BRANCH  25  26
HETATM   26  O1  UNL     1       5.667  15.156  24.206  1.00  0.00    -0.318 OA
BRANCH  26  27
HETATM   27  C13 UNL     1       4.858  16.058  23.630  1.00  0.00     0.277 C
HETATM   28  O2  UNL     1       3.643  15.861  23.569  1.00  0.00    -0.263 OA
BRANCH  27  29
HETATM   29  C14 UNL     1       5.373  17.348  23.021  1.00  0.00     0.240 C
BRANCH  29  30
HETATM   30  N2  UNL     1       5.454  17.215  21.598  1.00  0.00    -0.332 N
ATOM     31  H2  UNL     1       5.097  16.427  21.057  1.00  0.00     0.170 HD
BRANCH  30  32
HETATM   32  S3  UNL     1       6.260  18.617  20.929  1.00  0.00     0.106 S
HETATM   33  C15 UNL     1       5.499  20.133  21.533  1.00  0.00     0.152 C
HETATM   34  O3  UNL     1       6.203  18.539  19.430  1.00  0.00    -0.236 OA
ENDBRANCH  30  32
ENDBRANCH  29  30
ENDBRANCH  27  29
ENDBRANCH  26  27
ENDBRANCH  25  26
ENDBRANCH   2  25
TORSDOF 11
ENDMDL