MODEL 2
REMARK VINA RESULT: -6.817494875      2.329      3.269
REMARK  10 active torsions:
REMARK  status: ('A' for Active; 'I' for Inactive)
REMARK    1  A    between atoms: N1_2  and  O1_3
REMARK    2  A    between atoms: N1_2  and  C2_5
REMARK    3  A    between atoms: C2_5  and  C3_6
REMARK    4  A    between atoms: C3_6  and  C4_7
REMARK    5  A    between atoms: C5_8  and  C7_10
REMARK    6  A    between atoms: C7_10  and  C8_11
REMARK    7  A    between atoms: C8_11  and  C9_12
REMARK    8  A    between atoms: C10_13  and  C12_15
REMARK    9  A    between atoms: C12_15  and  C13_16
REMARK   10  A    between atoms: C22_31  and  O7_32
ROOT
HETATM    1  C2  UNL     1       8.029  15.297  21.022  1.00  0.00     0.225 C
HETATM    2  O3  UNL     1       8.257  14.098  21.659  1.00  0.00    -0.320 OA
HETATM    3  C14 UNL     1       9.089  14.271  22.726  1.00  0.00     0.278 C
HETATM    4  O4  UNL     1      10.386  13.794  22.499  1.00  0.00    -0.344 OA
HETATM    5  C15 UNL     1      11.094  14.423  23.486  1.00  0.00     0.116 C
HETATM    6  C16 UNL     1      10.735  14.016  24.882  1.00  0.00     0.052 C
HETATM    7  C17 UNL     1      12.578  14.401  23.319  1.00  0.00     0.196 C
HETATM    8  O5  UNL     1      12.899  14.413  21.978  1.00  0.00    -0.345 OA
HETATM    9  C18 UNL     1      14.028  15.189  21.822  1.00  0.00     0.158 C
HETATM   10  C19 UNL     1      13.970  15.817  20.439  1.00  0.00     0.078 C
HETATM   11  C20 UNL     1      15.313  14.430  21.930  1.00  0.00     0.078 C
HETATM   12  O6  UNL     1      14.001  16.159  22.815  1.00  0.00    -0.343 OA
HETATM   13  C21 UNL     1      13.251  15.591  23.872  1.00  0.00     0.212 C
HETATM   14  C22 UNL     1      12.440  16.669  24.478  1.00  0.00     0.291 C
HETATM   15  O8  UNL     1      11.069  16.548  24.371  1.00  0.00    -0.349 OA
HETATM   16  C24 UNL     1      10.712  15.893  23.230  1.00  0.00     0.177 C
HETATM   17  C25 UNL     1       9.258  15.762  22.976  1.00  0.00     0.148 C
HETATM   18  C26 UNL     1       8.922  16.301  21.651  1.00  0.00     0.196 C
HETATM   19  O9  UNL     1       9.267  17.337  21.125  1.00  0.00    -0.292 OA
ENDROOT
BRANCH   1  20
HETATM   20  N1  UNL     1       6.680  15.774  21.173  1.00  0.00    -0.238 N
HETATM   21  C1  UNL     1       5.827  15.068  21.805  1.00  0.00     0.153 C
BRANCH  20  22
HETATM   22  O1  UNL     1       6.325  16.972  20.644  1.00  0.00    -0.285 OA
ATOM     23  H1  UNL     1       6.872  17.391  19.991  1.00  0.00     0.245 HD
ENDBRANCH  20  22
ENDBRANCH   1  20
BRANCH   1  24
HETATM   24  C3  UNL     1       8.394  15.098  19.559  1.00  0.00     0.099 C
BRANCH  24  25
HETATM   25  C4  UNL     1       8.546  13.672  19.250  1.00  0.00    -0.019 C
HETATM   26  C5  UNL     1       7.819  12.928  18.467  1.00  0.00    -0.087 C
HETATM   27  C6  UNL     1       8.139  11.479  18.282  1.00  0.00     0.043 C
BRANCH  26  28
HETATM   28  C7  UNL     1       6.651  13.435  17.715  1.00  0.00     0.037 C
BRANCH  28  29
HETATM   29  C8  UNL     1       7.039  13.958  16.347  1.00  0.00     0.031 C
BRANCH  29  30
HETATM   30  C9  UNL     1       8.525  13.851  16.155  1.00  0.00    -0.024 C
HETATM   31  C10 UNL     1       9.203  14.912  15.747  1.00  0.00    -0.079 C
HETATM   32  C11 UNL     1       8.524  16.205  15.472  1.00  0.00     0.043 C
BRANCH  31  33
HETATM   33  C12 UNL     1      10.668  14.817  15.553  1.00  0.00     0.133 C
BRANCH  33  34
HETATM   34  C13 UNL     1      11.378  14.714  16.858  1.00  0.00     0.235 C
HETATM   35  N2  UNL     1      11.479  15.846  17.672  1.00  0.00    -0.062 NA
HETATM   36  O2  UNL     1      11.900  13.630  17.264  1.00  0.00    -0.277 OA
ENDBRANCH  33  34
ENDBRANCH  31  33
ENDBRANCH  29  30
ENDBRANCH  28  29
ENDBRANCH  26  28
ENDBRANCH  24  25
ENDBRANCH   1  24
BRANCH  14  37
HETATM   37  O7  UNL     1      12.762  17.918  23.962  1.00  0.00    -0.363 OA
HETATM   38  C23 UNL     1      12.640  18.851  24.984  1.00  0.00     0.204 C
ENDBRANCH  14  37
TORSDOF 10
ENDMDL