MODEL 3
REMARK VINA RESULT: -6.702613696      1.165      2.051
REMARK  8 active torsions:
REMARK  status: ('A' for Active; 'I' for Inactive)
REMARK    1  A    between atoms: C3_5  and  C4_6
REMARK    2  A    between atoms: N3_10  and  C6_11
REMARK    3  A    between atoms: C6_11  and  C7_12
REMARK    4  A    between atoms: C15_22  and  O1_23
REMARK    5  A    between atoms: O1_23  and  C16_24
REMARK    6  A    between atoms: C16_24  and  C17_25
REMARK    7  A    between atoms: C17_25  and  N6_26
REMARK    8  A    between atoms: C25_34  and  C26_35
ROOT
HETATM    1  C7  UNL     1       7.980  16.934  19.664  1.00  0.00     0.161 C
HETATM    2  C8  UNL     1       8.819  18.043  20.054  1.00  0.00     0.061 C
HETATM    3  N4  UNL     1       9.503  18.929  20.349  1.00  0.00    -0.197 NA
ENDROOT
BRANCH   1   4
HETATM    4  C6  UNL     1       8.785  15.607  19.657  1.00  0.00     0.117 C
HETATM    5  C9  UNL     1      10.076  15.740  18.965  1.00  0.00     0.309 C
HETATM    6  N5  UNL     1      10.213  15.957  17.573  1.00  0.00     0.096 N
HETATM    7  C10 UNL     1      11.150  14.960  16.973  1.00  0.00     0.277 C
HETATM    8  C20 UNL     1       9.048  15.578  16.894  1.00  0.00     0.227 C
HETATM    9  C11 UNL     1      10.494  14.357  15.783  1.00  0.00     0.016 C
HETATM   10  C12 UNL     1       9.322  13.407  16.128  1.00  0.00     0.013 C
HETATM   11  C21 UNL     1       9.561  15.535  15.432  1.00  0.00     0.042 C
HETATM   12  C13 UNL     1       8.884  14.133  17.325  1.00  0.00     0.022 C
HETATM   13  C14 UNL     1       7.613  14.090  17.973  1.00  0.00     0.041 C
HETATM   14  C15 UNL     1       7.883  14.506  19.443  1.00  0.00     0.154 C
BRANCH   4  15
HETATM   15  N3  UNL     1       9.205  15.574  21.072  1.00  0.00    -0.288 N
HETATM   16  N2  UNL     1       8.761  16.349  22.051  1.00  0.00    -0.308 N
HETATM   17  C5  UNL     1       9.341  16.100  23.214  1.00  0.00     0.122 A
ATOM     18  H2  UNL     1       8.044  17.064  21.922  1.00  0.00     0.186 HD
HETATM   19  C4  UNL     1      10.247  15.081  23.003  1.00  0.00     0.025 A
HETATM   20  C22 UNL     1      10.121  14.794  21.661  1.00  0.00     0.126 A
BRANCH  19  21
HETATM   21  C3  UNL     1      11.126  14.454  23.979  1.00  0.00     0.045 A
HETATM   22  N1  UNL     1      12.265  13.836  23.647  1.00  0.00    -0.359 N
HETATM   23  C2  UNL     1      13.110  13.233  24.486  1.00  0.00     0.012 A
ATOM     24  H1  UNL     1      12.512  13.826  22.658  1.00  0.00     0.166 HD
HETATM   25  C1  UNL     1      14.368  12.575  23.973  1.00  0.00     0.068 C
HETATM   26  C25 UNL     1      12.811  13.224  25.859  1.00  0.00    -0.032 A
HETATM   27  C24 UNL     1      11.657  13.842  26.260  1.00  0.00     0.012 A
HETATM   28  C23 UNL     1      10.821  14.453  25.324  1.00  0.00     0.031 A
BRANCH  26  29
HETATM   29  C26 UNL     1      13.725  12.587  26.780  1.00  0.00     0.024 C
HETATM   30  C27 UNL     1      13.100  12.398  28.139  1.00  0.00     0.028 C
HETATM   31  C28 UNL     1      13.486  13.445  29.142  1.00  0.00     0.114 C
HETATM   32  N7  UNL     1      13.827  14.716  28.597  1.00  0.00    -0.421 N
HETATM   33  C29 UNL     1      14.671  14.729  27.457  1.00  0.00     0.114 C
ATOM     34  H7  UNL     1      13.479  15.581  29.010  1.00  0.00     0.153 HD
HETATM   35  C30 UNL     1      15.005  13.333  27.049  1.00  0.00     0.028 C
ENDBRANCH  26  29
ENDBRANCH  19  21
ENDBRANCH   4  15
BRANCH  14  36
HETATM   36  O1  UNL     1       6.650  14.775  20.031  1.00  0.00    -0.382 OA
BRANCH  36  37
HETATM   37  C16 UNL     1       6.032  13.735  20.653  1.00  0.00     0.187 C
BRANCH  37  38
HETATM   38  C17 UNL     1       5.920  14.112  22.141  1.00  0.00     0.142 C
BRANCH  38  39
HETATM   39  N6  UNL     1       6.964  13.554  22.917  1.00  0.00    -0.419 N
HETATM   40  C18 UNL     1       7.454  12.275  22.534  1.00  0.00     0.142 C
HETATM   41  C19 UNL     1       6.853  13.791  24.323  1.00  0.00     0.142 C
ENDBRANCH  38  39
ENDBRANCH  37  38
ENDBRANCH  36  37
ENDBRANCH  14  36
ENDBRANCH   1   4
TORSDOF 8
ENDMDL