MODEL 2
REMARK VINA RESULT: -7.577633871      5.035      8.179
REMARK  10 active torsions:
REMARK  status: ('A' for Active; 'I' for Inactive)
REMARK    1  A    between atoms: C2_2  and  C4_5
REMARK    2  A    between atoms: C8_9  and  C9_10
REMARK    3  A    between atoms: C10_11  and  C11_12
REMARK    4  A    between atoms: N2_14  and  C13_15
REMARK    5  A    between atoms: C15_18  and  N4_19
REMARK    6  A    between atoms: N5_22  and  C18_23
REMARK    7  A    between atoms: C18_23  and  C19_24
REMARK    8  A    between atoms: C19_24  and  O1_25
REMARK    9  A    between atoms: C19_24  and  C20_27
REMARK   10  A    between atoms: C20_27  and  N6_28
ROOT
HETATM    1  C1  UNL     1       9.509  15.588  15.496  1.00  0.00     0.031 C
HETATM    2  C2  UNL     1       9.767  15.393  16.978  1.00  0.00     0.121 C
HETATM    3  C3  UNL     1      10.990  14.622  17.124  1.00  0.00     0.068 C
HETATM    4  N1  UNL     1      11.960  13.996  17.225  1.00  0.00    -0.197 NA
ENDROOT
BRANCH   2   5
HETATM    5  C4  UNL     1       8.639  14.727  17.668  1.00  0.00    -0.040 A
HETATM    6  C5  UNL     1       7.534  14.350  16.942  1.00  0.00     0.008 A
HETATM    7  C6  UNL     1       6.484  13.732  17.586  1.00  0.00     0.001 A
HETATM    8  C7  UNL     1       6.566  13.508  18.934  1.00  0.00     0.012 A
HETATM    9  C8  UNL     1       7.674  13.874  19.713  1.00  0.00    -0.029 A
HETATM   10  C30 UNL     1       8.682  14.479  19.039  1.00  0.00     0.020 A
BRANCH   9  11
HETATM   11  C9  UNL     1       7.664  13.667  21.156  1.00  0.00    -0.039 C
HETATM   12  C10 UNL     1       7.253  14.424  22.138  1.00  0.00    -0.022 C
HETATM   13  C27 UNL     1       7.492  13.683  23.471  1.00  0.00     0.042 C
HETATM   14  C28 UNL     1       7.640  12.249  23.085  1.00  0.00     0.009 C
HETATM   15  C29 UNL     1       8.215  12.341  21.710  1.00  0.00     0.040 C
BRANCH  12  16
HETATM   16  C11 UNL     1       6.657  15.755  22.133  1.00  0.00     0.072 A
HETATM   17  C12 UNL     1       5.477  16.307  22.487  1.00  0.00     0.140 A
HETATM   18  N2  UNL     1       5.462  17.662  22.242  1.00  0.00    -0.178 N
HETATM   19  C15 UNL     1       6.663  17.947  21.728  1.00  0.00     0.683 A
HETATM   20  N7  UNL     1       7.390  16.829  21.654  1.00  0.00    -0.190 N
ATOM     21  H7  UNL     1       8.344  16.774  21.298  1.00  0.00     0.184 HD
BRANCH  18  22
HETATM   22  C13 UNL     1       4.353  18.558  22.500  1.00  0.00     0.270 C
HETATM   23  C14 UNL     1       3.324  17.812  23.232  1.00  0.00     0.079 C
HETATM   24  N3  UNL     1       2.507  17.225  23.829  1.00  0.00    -0.196 NA
ENDBRANCH  18  22
BRANCH  19  25
HETATM   25  N4  UNL     1       7.076  19.269  21.335  1.00  0.00    -0.214 N
HETATM   26  C16 UNL     1       6.816  19.684  19.974  1.00  0.00     0.160 C
HETATM   27  C17 UNL     1       6.378  21.139  19.999  1.00  0.00     0.137 C
HETATM   28  N5  UNL     1       7.413  21.884  20.639  1.00  0.00    -0.407 N
HETATM   29  C25 UNL     1       7.536  21.602  22.032  1.00  0.00     0.137 C
HETATM   30  C26 UNL     1       7.725  20.133  22.262  1.00  0.00     0.160 C
BRANCH  28  31
HETATM   31  C18 UNL     1       7.546  23.248  20.289  1.00  0.00     0.150 C
BRANCH  31  32
HETATM   32  C19 UNL     1       9.018  23.634  20.148  1.00  0.00     0.164 C
BRANCH  32  33
HETATM   33  O1  UNL     1       9.086  24.940  19.605  1.00  0.00    -0.392 OA
ATOM     34  H1  UNL     1       9.912  25.030  19.145  1.00  0.00     0.210 HD
ENDBRANCH  32  33
BRANCH  32  35
HETATM   35  C20 UNL     1       9.756  22.747  19.182  1.00  0.00     0.305 C
BRANCH  35  36
HETATM   36  N6  UNL     1      11.143  22.534  19.527  1.00  0.00     0.095 N
HETATM   37  C21 UNL     1      11.853  21.904  18.449  1.00  0.00     0.298 C
HETATM   38  C22 UNL     1      12.629  20.679  18.876  1.00  0.00     0.198 C
HETATM   39  O2  UNL     1      11.832  19.714  19.454  1.00  0.00    -0.388 OA
HETATM   40  C23 UNL     1      10.832  20.200  20.263  1.00  0.00     0.198 C
HETATM   41  C24 UNL     1      11.149  21.629  20.663  1.00  0.00     0.298 C
ENDBRANCH  35  36
ENDBRANCH  32  35
ENDBRANCH  31  32
ENDBRANCH  28  31
ENDBRANCH  19  25
ENDBRANCH  12  16
ENDBRANCH   9  11
ENDBRANCH   2   5
TORSDOF 10
ENDMDL