MODEL 3
REMARK VINA RESULT: -6.755923185      1.657      2.151
REMARK  11 active torsions:
REMARK  status: ('A' for Active; 'I' for Inactive)
REMARK    1  A    between atoms: C2_2  and  O2_4
REMARK    2  A    between atoms: O2_4  and  C3_5
REMARK    3  A    between atoms: C9_11  and  C10_12
REMARK    4  A    between atoms: C10_12  and  S1_13
REMARK    5  A    between atoms: S1_13  and  C11_14
REMARK    6  A    between atoms: C15_19  and  O4_20
REMARK    7  A    between atoms: C16_23  and  C17_24
REMARK    8  A    between atoms: C17_24  and  C18_25
REMARK    9  A    between atoms: C18_25  and  C20_27
REMARK   10  A    between atoms: C20_27  and  C21_29
REMARK   11  A    between atoms: C21_29  and  C22_30
REMARK       I    between atoms: C22_30  and  N1_32
ROOT
HETATM    1  C3  UNL     1       8.175  16.281  19.247  1.00  0.00     0.192 C
HETATM    2  C4  UNL     1       8.476  17.435  20.076  1.00  0.00    -0.014 C
HETATM    3  C5  UNL     1       9.700  17.902  20.170  1.00  0.00     0.056 C
HETATM    4  C6  UNL     1      10.849  17.295  19.450  1.00  0.00     0.091 C
HETATM    5  C7  UNL     1      12.151  17.528  20.151  1.00  0.00    -0.022 C
HETATM    6  C8  UNL     1      12.387  18.587  20.882  1.00  0.00     0.002 C
HETATM    7  C9  UNL     1      11.296  19.594  21.009  1.00  0.00     0.160 C
HETATM    8  O3  UNL     1      10.024  19.010  20.958  1.00  0.00    -0.345 OA
HETATM    9  C14 UNL     1       7.432  18.166  20.882  1.00  0.00     0.100 C
HETATM   10  C15 UNL     1       6.394  17.212  21.410  1.00  0.00     0.261 C
HETATM   11  O5  UNL     1       6.614  15.904  21.059  1.00  0.00    -0.353 OA
HETATM   12  C16 UNL     1       6.860  15.645  19.760  1.00  0.00     0.159 C
ENDROOT
BRANCH  12  13
HETATM   13  C17 UNL     1       6.759  14.257  19.266  1.00  0.00     0.046 C
BRANCH  13  14
HETATM   14  C18 UNL     1       7.813  13.298  19.678  1.00  0.00     0.054 C
HETATM   15  C19 UNL     1       8.109  12.216  18.674  1.00  0.00     0.018 C
BRANCH  14  16
HETATM   16  C20 UNL     1       7.706  12.791  21.066  1.00  0.00     0.139 C
HETATM   17  O6  UNL     1       6.637  12.389  21.459  1.00  0.00    -0.297 OA
BRANCH  16  18
HETATM   18  C21 UNL     1       8.886  12.782  21.947  1.00  0.00     0.181 C
BRANCH  18  19
HETATM   19  C22 UNL     1       9.448  14.122  22.229  1.00  0.00     0.226 C
HETATM   20  O7  UNL     1      10.385  14.524  21.487  1.00  0.00    -0.273 OA
HETATM   21  N1  UNL     1       8.970  14.937  23.283  1.00  0.00    -0.348 N
HETATM   22  C23 UNL     1       9.556  16.230  23.504  1.00  0.00     0.152 C
HETATM   23  C26 UNL     1       7.908  14.512  24.153  1.00  0.00     0.152 C
HETATM   24  C24 UNL     1       9.680  16.432  24.998  1.00  0.00     0.187 C
HETATM   25  O8  UNL     1       9.656  15.197  25.654  1.00  0.00    -0.388 OA
HETATM   26  C25 UNL     1       8.350  14.675  25.573  1.00  0.00     0.187 C
ENDBRANCH  18  19
ENDBRANCH  16  18
ENDBRANCH  14  16
ENDBRANCH  13  14
ENDBRANCH  12  13
BRANCH   1  27
HETATM   27  O2  UNL     1       8.019  16.517  17.894  1.00  0.00    -0.309 OA
BRANCH  27  28
HETATM   28  C2  UNL     1       8.672  15.877  16.875  1.00  0.00     0.255 C
HETATM   29  C1  UNL     1       8.383  16.067  15.436  1.00  0.00     0.126 C
HETATM   30  O1  UNL     1       9.577  15.075  17.188  1.00  0.00    -0.266 OA
ENDBRANCH  27  28
ENDBRANCH   1  27
BRANCH  10  31
HETATM   31  O4  UNL     1       6.236  17.312  22.789  1.00  0.00    -0.371 OA
ATOM     32  H4  UNL     1       5.361  17.071  23.070  1.00  0.00     0.212 HD
ENDBRANCH  10  31
BRANCH   7  33
HETATM   33  C10 UNL     1      11.385  20.613  19.913  1.00  0.00     0.110 C
BRANCH  33  34
HETATM   34  S1  UNL     1      12.818  21.676  20.008  1.00  0.00    -0.162 SA
BRANCH  34  35
HETATM   35  C11 UNL     1      14.082  21.339  18.790  1.00  0.00     0.039 C
HETATM   36  C12 UNL     1      13.542  20.619  17.586  1.00  0.00     0.021 C
HETATM   37  C13 UNL     1      15.286  20.631  19.376  1.00  0.00     0.021 C
ENDBRANCH  34  35
ENDBRANCH  33  34
ENDBRANCH   7  33
TORSDOF 11
ENDMDL