MODEL 2
REMARK VINA RESULT: -5.710334295      3.137      5.571
REMARK  12 active torsions:
REMARK  status: ('A' for Active; 'I' for Inactive)
REMARK    1  A    between atoms: C2_2  and  C3_3
REMARK    2  A    between atoms: C3_3  and  C4_4
REMARK    3  A    between atoms: C4_4  and  C5_5
REMARK    4  A    between atoms: C5_5  and  O2_7
REMARK    5  A    between atoms: C15_17  and  C16_18
REMARK    6  A    between atoms: C15_17  and  O3_23
REMARK    7  A    between atoms: O3_23  and  C20_24
REMARK    8  A    between atoms: C20_24  and  C21_26
REMARK    9  A    between atoms: C21_26  and  N2_27
REMARK   10  A    between atoms: N2_27  and  C22_29
REMARK   11  A    between atoms: C25_33  and  O6_34
REMARK   12  A    between atoms: O6_34  and  C26_35
ROOT
HETATM    1  C16 UNL     1       8.059  13.555  19.670  1.00  0.00     0.030 C
HETATM    2  C17 UNL     1       7.812  13.167  18.462  1.00  0.00     0.018 C
HETATM    3  C18 UNL     1       6.674  13.608  17.657  1.00  0.00     0.060 C
HETATM    4  C19 UNL     1       8.689  12.214  17.772  1.00  0.00     0.094 C
HETATM    5  N1  UNL     1       9.382  11.446  17.242  1.00  0.00    -0.192 NA
ENDROOT
BRANCH   1   6
HETATM    6  C15 UNL     1       7.414  14.461  20.606  1.00  0.00     0.100 C
HETATM    7  C13 UNL     1       6.071  13.807  21.120  1.00  0.00     0.043 C
HETATM    8  C12 UNL     1       5.533  14.846  22.018  1.00  0.00    -0.023 C
HETATM    9  C14 UNL     1       6.245  12.466  21.619  1.00  0.00     0.017 C
HETATM   10  C11 UNL     1       6.289  15.313  23.002  1.00  0.00    -0.025 C
HETATM   11  C10 UNL     1       7.654  14.747  23.141  1.00  0.00     0.020 C
HETATM   12  C9  UNL     1       8.445  15.387  24.230  1.00  0.00     0.006 C
HETATM   13  C23 UNL     1       8.304  14.563  21.838  1.00  0.00     0.036 C
HETATM   14  C8  UNL     1       8.407  14.460  25.451  1.00  0.00     0.007 C
HETATM   15  C28 UNL     1       9.849  15.750  24.021  1.00  0.00     0.004 C
HETATM   16  C7  UNL     1       9.813  14.033  25.664  1.00  0.00     0.021 C
HETATM   17  C4  UNL     1      10.572  15.273  25.256  1.00  0.00     0.061 C
HETATM   18  C25 UNL     1      10.478  15.286  22.761  1.00  0.00     0.142 C
HETATM   19  C29 UNL     1      10.026  17.301  24.013  1.00  0.00     0.020 C
HETATM   20  C24 UNL     1       9.423  15.506  21.617  1.00  0.00     0.042 C
BRANCH  17  21
HETATM   21  C3  UNL     1      12.019  14.884  25.020  1.00  0.00     0.047 C
BRANCH  21  22
HETATM   22  C2  UNL     1      12.242  13.668  25.893  1.00  0.00    -0.036 C
HETATM   23  C1  UNL     1      13.313  12.912  25.802  1.00  0.00     0.007 C
ENDBRANCH  21  22
ENDBRANCH  17  21
BRANCH  17  24
HETATM   24  C5  UNL     1      10.476  16.227  26.401  1.00  0.00     0.268 C
HETATM   25  O1  UNL     1      11.427  17.005  26.691  1.00  0.00    -0.264 OA
BRANCH  24  26
HETATM   26  O2  UNL     1       9.362  16.341  27.222  1.00  0.00    -0.326 OA
HETATM   27  C6  UNL     1       8.803  17.605  27.509  1.00  0.00     0.213 C
ENDBRANCH  24  26
ENDBRANCH  17  24
BRANCH  18  28
HETATM   28  O6  UNL     1      11.522  16.158  22.338  1.00  0.00    -0.315 OA
BRANCH  28  29
HETATM   29  C26 UNL     1      12.443  15.867  21.355  1.00  0.00     0.255 C
HETATM   30  C27 UNL     1      12.713  16.853  20.270  1.00  0.00     0.126 C
HETATM   31  O7  UNL     1      13.043  14.769  21.388  1.00  0.00    -0.266 OA
ENDBRANCH  28  29
ENDBRANCH  18  28
BRANCH   6  32
HETATM   32  O3  UNL     1       6.932  15.644  20.176  1.00  0.00    -0.303 OA
BRANCH  32  33
HETATM   33  C20 UNL     1       7.279  16.808  19.645  1.00  0.00     0.277 C
HETATM   34  O4  UNL     1       7.798  16.761  18.500  1.00  0.00    -0.263 OA
BRANCH  33  35
HETATM   35  C21 UNL     1       7.099  18.148  20.303  1.00  0.00     0.233 C
BRANCH  35  36
HETATM   36  N2  UNL     1       5.733  18.436  20.596  1.00  0.00    -0.359 N
ATOM     37  H2  UNL     1       5.087  18.493  19.809  1.00  0.00     0.162 HD
BRANCH  36  38
HETATM   38  C22 UNL     1       5.203  18.646  21.883  1.00  0.00     0.348 C
HETATM   39  O5  UNL     1       4.035  18.289  22.151  1.00  0.00    -0.284 OA
ENDBRANCH  36  38
ENDBRANCH  35  36
ENDBRANCH  33  35
ENDBRANCH  32  33
ENDBRANCH   6  32
ENDBRANCH   1   6
TORSDOF 12
ENDMDL