MODEL 5
REMARK VINA RESULT: -5.733501864      2.474      5.694
REMARK  7 active torsions:
REMARK  status: ('A' for Active; 'I' for Inactive)
REMARK    1  A    between atoms: N1_2  and  C2_4
REMARK    2  A    between atoms: C2_4  and  O1_5
REMARK    3  A    between atoms: C2_4  and  C3_7
REMARK    4  A    between atoms: C3_7  and  C4_8
REMARK    5  A    between atoms: C4_8  and  C5_9
REMARK    6  A    between atoms: C5_9  and  C6_10
REMARK    7  A    between atoms: C7_11  and  C8_12
REMARK       I    between atoms: C8_12  and  N2_14
ROOT
HETATM    1  C6  UNL     1     -17.331  13.709  33.019  1.00  0.00    -0.093 C
HETATM    2  C7  UNL     1     -16.709  12.892  32.398  1.00  0.00    -0.005 C
ENDROOT
BRANCH   2   3
HETATM    3  C8  UNL     1     -15.949  11.930  31.642  1.00  0.00     0.298 C
HETATM    4  O2  UNL     1     -15.226  12.384  30.722  1.00  0.00    -0.258 OA
HETATM    5  N2  UNL     1     -16.027  10.558  31.940  1.00  0.00    -0.338 N
HETATM    6  C9  UNL     1     -16.870  10.096  33.003  1.00  0.00     0.154 C
HETATM    7  C12 UNL     1     -15.264   9.612  31.179  1.00  0.00     0.154 C
HETATM    8  C10 UNL     1     -17.710   8.906  32.632  1.00  0.00     0.252 C
HETATM    9  N3  UNL     1     -17.273   8.231  31.448  1.00  0.00    -0.072 N
HETATM   10  C11 UNL     1     -15.840   8.214  31.278  1.00  0.00     0.252 C
ATOM     11  H32 UNL     1     -17.649   7.283  31.416  1.00  0.00     0.277 HD
ATOM     12  H31 UNL     1     -17.727   8.624  30.624  1.00  0.00     0.277 HD
ENDBRANCH   2   3
BRANCH   1  13
HETATM   13  C5  UNL     1     -18.088  14.727  33.808  1.00  0.00     0.121 C
BRANCH  13  14
HETATM   14  C4  UNL     1     -19.263  14.038  34.327  1.00  0.00    -0.010 C
BRANCH  14  15
HETATM   15  C3  UNL     1     -19.435  13.334  35.390  1.00  0.00     0.052 C
BRANCH  15  16
HETATM   16  C2  UNL     1     -18.883  12.141  35.921  1.00  0.00     0.134 C
BRANCH  16  17
HETATM   17  N1  UNL     1     -17.851  11.953  36.843  1.00  0.00    -0.375 N
HETATM   18  C1  UNL     1     -16.629  12.785  36.737  1.00  0.00     0.148 C
ATOM     19  H1  UNL     1     -17.938  11.252  37.579  1.00  0.00     0.161 HD
ENDBRANCH  16  17
BRANCH  16  20
HETATM   20  O1  UNL     1     -19.419  11.021  35.485  1.00  0.00    -0.346 OA
ATOM     21  H1  UNL     1     -19.506  10.979  34.540  1.00  0.00     0.219 HD
ENDBRANCH  16  20
ENDBRANCH  15  16
ENDBRANCH  14  15
ENDBRANCH  13  14
ENDBRANCH   1  13
TORSDOF 7
ENDMDL