MODEL 5
REMARK VINA RESULT: -5.846046121      1.979      2.355
REMARK  2 active torsions:
REMARK  status: ('A' for Active; 'I' for Inactive)
REMARK       I    between atoms: C2_2  and  N1_4
REMARK    1  A    between atoms: N1_4  and  C3_6
REMARK    2  A    between atoms: C3_6  and  C4_7
REMARK       I    between atoms: C4_7  and  N2_9
ROOT
HETATM    1  C3  UNL     1     -17.128  13.810  34.229  1.00  0.00     0.123 C
HETATM    2  C6  UNL     1     -18.575  14.176  34.250  1.00  0.00     0.052 C
HETATM    3  C7  UNL     1     -18.954  14.607  35.631  1.00  0.00     0.077 C
HETATM    4  S1  UNL     1     -17.882  13.552  36.683  1.00  0.00    -0.166 SA
HETATM    5  C8  UNL     1     -16.894  12.798  35.330  1.00  0.00     0.115 C
ENDROOT
BRANCH   1   6
HETATM    6  N1  UNL     1     -16.221  14.896  34.373  1.00  0.00    -0.343 N
HETATM    7  C2  UNL     1     -14.812  14.829  34.475  1.00  0.00     0.214 C
HETATM    8  C1  UNL     1     -13.946  16.022  34.628  1.00  0.00     0.117 C
HETATM    9  O1  UNL     1     -14.257  13.709  34.434  1.00  0.00    -0.274 OA
ATOM     10  H1  UNL     1     -16.634  15.828  34.407  1.00  0.00     0.163 HD
ENDBRANCH   1   6
BRANCH   1  11
HETATM   11  C4  UNL     1     -16.856  13.094  32.965  1.00  0.00     0.253 C
HETATM   12  O2  UNL     1     -17.191  13.598  31.880  1.00  0.00    -0.270 OA
HETATM   13  N2  UNL     1     -16.212  11.832  33.001  1.00  0.00    -0.301 N
HETATM   14  C5  UNL     1     -15.569  11.348  31.993  1.00  0.00     0.203 C
ATOM     15  H2  UNL     1     -16.259  11.284  33.860  1.00  0.00     0.171 HD
HETATM   16  N3  UNL     1     -14.942  10.075  32.087  1.00  0.00    -0.066 NA
HETATM   17  N4  UNL     1     -15.463  12.056  30.766  1.00  0.00    -0.066 NA
ENDBRANCH   1  11
TORSDOF 2
ENDMDL