MODEL 4
REMARK VINA RESULT: -5.350766349      4.127      6.132
REMARK  5 active torsions:
REMARK  status: ('A' for Active; 'I' for Inactive)
REMARK    1  A    between atoms: C1_2  and  N2_4
REMARK    2  A    between atoms: N2_4  and  N3_6
REMARK    3  A    between atoms: N4_11  and  C5_12
REMARK    4  A    between atoms: C5_12  and  N5_14
REMARK    5  A    between atoms: N5_14  and  C6_16
ROOT
HETATM    1  N3  UNL     1     -18.895  11.241  35.077  1.00  0.00    -0.305 N
ATOM      2  H3  UNL     1     -18.707  10.240  35.133  1.00  0.00     0.186 HD
HETATM    3  C2  UNL     1     -18.368  11.867  34.121  1.00  0.00     0.023 C
HETATM    4  C3  UNL     1     -18.474  13.291  33.813  1.00  0.00     0.075 C
HETATM    5  C4  UNL     1     -17.012  13.629  33.482  1.00  0.00     0.131 C
HETATM    6  N4  UNL     1     -16.419  12.408  33.078  1.00  0.00    -0.352 N
HETATM    7  C7  UNL     1     -17.504  11.350  33.055  1.00  0.00     0.179 C
ENDROOT
BRANCH   1   8
HETATM    8  N2  UNL     1     -19.709  11.786  36.063  1.00  0.00    -0.279 N
ATOM      9  H2  UNL     1     -19.846  12.797  36.085  1.00  0.00     0.189 HD
BRANCH   8  10
HETATM   10  C1  UNL     1     -20.354  10.993  37.034  1.00  0.00     0.199 C
HETATM   11  N1  UNL     1     -21.609  10.400  36.764  1.00  0.00    -0.068 NA
HETATM   12  S1  UNL     1     -19.653  10.750  38.489  1.00  0.00    -0.043 SA
ENDBRANCH   8  10
ENDBRANCH   1   8
BRANCH   6  13
HETATM   13  C5  UNL     1     -15.131  12.029  32.721  1.00  0.00     0.176 C
HETATM   14  S2  UNL     1     -13.948  12.453  33.885  1.00  0.00    -0.041 SA
BRANCH  13  15
HETATM   15  N5  UNL     1     -14.620  11.389  31.624  1.00  0.00    -0.311 N
ATOM     16  H5  UNL     1     -14.097  11.994  30.991  1.00  0.00     0.170 HD
BRANCH  15  17
HETATM   17  C6  UNL     1     -14.688  10.062  31.221  1.00  0.00     0.355 C
HETATM   18  O1  UNL     1     -15.255   9.559  30.270  1.00  0.00    -0.283 OA
ENDBRANCH  15  17
ENDBRANCH  13  15
ENDBRANCH   6  13
TORSDOF 5
ENDMDL