MODEL 5
REMARK VINA RESULT: -6.520734953      1.040      1.066
REMARK  3 active torsions:
REMARK  status: ('A' for Active; 'I' for Inactive)
REMARK    1  A    between atoms: C3_5  and  N2_6
REMARK    2  A    between atoms: C3_5  and  C6_16
REMARK    3  A    between atoms: N2_6  and  N3_8
REMARK       I    between atoms: N3_8  and  C4_10
ROOT
HETATM    1  C1  UNL     1     -14.646  15.814  34.976  1.00  0.00     0.123 C
HETATM    2  C2  UNL     1     -14.701  14.647  34.602  1.00  0.00    -0.074 C
HETATM    3  N1  UNL     1     -14.738  13.319  34.175  1.00  0.00    -0.314 N
ATOM      4  H1  UNL     1     -13.874  12.859  33.891  1.00  0.00     0.176 HD
HETATM    5  C3  UNL     1     -15.835  12.673  34.132  1.00  0.00     0.107 C
ENDROOT
BRANCH   5   6
HETATM    6  N2  UNL     1     -15.816  11.330  33.691  1.00  0.00    -0.286 N
ATOM      7  H2  UNL     1     -16.375  10.643  34.197  1.00  0.00     0.188 HD
BRANCH   6   8
HETATM    8  N3  UNL     1     -15.063  10.902  32.588  1.00  0.00    -0.272 N
HETATM    9  C4  UNL     1     -15.332   9.719  31.865  1.00  0.00     0.216 C
HETATM   10  N4  UNL     1     -14.971   9.588  30.499  1.00  0.00    -0.061 NA
HETATM   11  N5  UNL     1     -15.912   8.745  32.449  1.00  0.00    -0.266 N
HETATM   12  C5  UNL     1     -16.203   7.547  31.780  1.00  0.00     0.184 C
ATOM     13  H5  UNL     1     -16.172   8.839  33.430  1.00  0.00     0.180 HD
HETATM   14  N6  UNL     1     -16.452   6.563  31.213  1.00  0.00    -0.172 NA
ATOM     15  H3  UNL     1     -14.275  11.478  32.291  1.00  0.00     0.189 HD
ENDBRANCH   6   8
ENDBRANCH   5   6
BRANCH   5  16
HETATM   16  C6  UNL     1     -17.076  13.341  34.540  1.00  0.00     0.055 C
HETATM   17  C7  UNL     1     -18.183  12.376  34.896  1.00  0.00     0.012 C
HETATM   18  C8  UNL     1     -19.490  13.136  34.758  1.00  0.00     0.001 C
HETATM   19  C9  UNL     1     -19.257  14.611  35.009  1.00  0.00     0.000 C
HETATM   20  C10 UNL     1     -18.439  15.262  33.928  1.00  0.00     0.001 C
HETATM   21  C11 UNL     1     -17.551  14.161  33.332  1.00  0.00     0.012 C
ENDBRANCH   5  16
TORSDOF 3
ENDMDL