MODEL 3
REMARK VINA RESULT: -5.790805131      2.119      4.715
REMARK  5 active torsions:
REMARK  status: ('A' for Active; 'I' for Inactive)
REMARK    1  A    between atoms: N1_1  and  C1_5
REMARK    2  A    between atoms: C1_5  and  C2_6
REMARK    3  A    between atoms: C2_6  and  N2_7
REMARK    4  A    between atoms: C2_6  and  C8_13
REMARK    5  A    between atoms: C8_13  and  N3_14
ROOT
HETATM    1  C8  UNL     1     -15.357  12.477  34.804  1.00  0.00     0.242 C
HETATM    2  C9  UNL     1     -14.206  13.079  34.083  1.00  0.00     0.057 C
HETATM    3  C10 UNL     1     -13.208  13.780  34.988  1.00  0.00     0.023 C
HETATM    4  C11 UNL     1     -13.861  14.865  35.820  1.00  0.00     0.122 C
HETATM    5  N4  UNL     1     -15.131  14.411  36.359  1.00  0.00    -0.359 N
ATOM      6  H4  UNL     1     -15.672  15.051  36.943  1.00  0.00     0.162 HD
HETATM    7  C12 UNL     1     -15.644  13.134  36.110  1.00  0.00     0.260 C
HETATM    8  O1  UNL     1     -16.347  12.485  36.932  1.00  0.00    -0.270 OA
ENDROOT
BRANCH   1   9
HETATM    9  C2  UNL     1     -16.581  12.473  33.912  1.00  0.00     0.055 C
BRANCH   9  10
HETATM   10  C1  UNL     1     -16.939  13.817  33.353  1.00  0.00     0.284 C
BRANCH  10  11
HETATM   11  N1  UNL     1     -18.276  14.158  33.838  1.00  0.00    -0.074 N
ATOM     12  H13 UNL     1     -18.873  14.552  33.111  1.00  0.00     0.274 HD
ATOM     13  H12 UNL     1     -18.843  13.336  34.048  1.00  0.00     0.274 HD
ATOM     14  H11 UNL     1     -18.166  14.779  34.640  1.00  0.00     0.274 HD
ENDBRANCH  10  11
ENDBRANCH   9  10
BRANCH   9  15
HETATM   15  N2  UNL     1     -16.614  11.358  33.102  1.00  0.00    -0.384 N
HETATM   16  C3  UNL     1     -15.958  11.217  31.890  1.00  0.00     0.122 C
HETATM   17  C4  UNL     1     -15.295   9.827  31.804  1.00  0.00     0.020 C
HETATM   18  C5  UNL     1     -16.158   8.780  32.459  1.00  0.00     0.003 C
HETATM   19  C6  UNL     1     -17.599   9.188  32.543  1.00  0.00     0.020 C
HETATM   20  C7  UNL     1     -17.794  10.548  33.175  1.00  0.00     0.122 C
ENDBRANCH   9  15
ENDBRANCH   1   9
BRANCH   1  21
HETATM   21  N3  UNL     1     -15.029  11.087  35.179  1.00  0.00    -0.056 N
ATOM     22  H33 UNL     1     -14.162  10.764  34.750  1.00  0.00     0.276 HD
ATOM     23  H32 UNL     1     -14.745  11.007  36.156  1.00  0.00     0.276 HD
ATOM     24  H31 UNL     1     -15.821  10.485  34.955  1.00  0.00     0.276 HD
ENDBRANCH   1  21
TORSDOF 5
ENDMDL