MODEL 3
REMARK VINA RESULT: -6.445533814      1.110      1.163
REMARK  1 active torsions:
REMARK  status: ('A' for Active; 'I' for Inactive)
REMARK    1  A    between atoms: C2_2  and  N1_3
REMARK       I    between atoms: N1_3  and  C3_5
REMARK       I    between atoms: N3_7  and  C4_9
REMARK       I    between atoms: C4_9  and  N4_11
ROOT
HETATM    1  N1  UNL     1     -17.369   9.563  32.099  1.00  0.00    -0.365 N
ATOM      2  H1  UNL     1     -17.832   9.447  31.197  1.00  0.00     0.162 HD
HETATM    3  C3  UNL     1     -17.586  10.750  32.842  1.00  0.00     0.192 C
HETATM    4  N2  UNL     1     -18.698  10.806  33.711  1.00  0.00    -0.063 NA
HETATM    5  N3  UNL     1     -16.823  11.760  32.756  1.00  0.00    -0.283 N
ATOM      6  H3  UNL     1     -16.021  11.717  32.127  1.00  0.00     0.173 HD
HETATM    7  C4  UNL     1     -17.045  12.958  33.507  1.00  0.00     0.325 C
HETATM    8  O1  UNL     1     -18.182  13.509  33.409  1.00  0.00    -0.247 OA
HETATM    9  N4  UNL     1     -16.029  13.511  34.334  1.00  0.00    -0.327 N
HETATM   10  C5  UNL     1     -14.753  12.828  34.399  1.00  0.00     0.171 C
HETATM   11  C6  UNL     1     -14.262  12.620  35.801  1.00  0.00     0.080 C
HETATM   12  N5  UNL     1     -13.655  13.705  36.427  1.00  0.00    -0.379 N
ATOM     13  H5  UNL     1     -13.833  13.890  37.415  1.00  0.00     0.164 HD
HETATM   14  C7  UNL     1     -12.802  14.542  35.700  1.00  0.00     0.086 C
HETATM   15  C8  UNL     1     -13.402  15.887  35.334  1.00  0.00     0.212 C
HETATM   16  O2  UNL     1     -14.261  15.737  34.276  1.00  0.00    -0.385 OA
HETATM   17  C9  UNL     1     -15.580  15.924  34.548  1.00  0.00     0.188 C
HETATM   18  C10 UNL     1     -16.304  14.707  35.062  1.00  0.00     0.154 C
ENDROOT
BRANCH   1  19
HETATM   19  C2  UNL     1     -16.504   8.510  32.590  1.00  0.00     0.118 C
HETATM   20  C1  UNL     1     -16.447   7.360  31.631  1.00  0.00     0.026 C
ENDBRANCH   1  19
TORSDOF 1
ENDMDL