MODEL 5
REMARK VINA RESULT: -5.449567725      1.996      2.323
REMARK  2 active torsions:
REMARK  status: ('A' for Active; 'I' for Inactive)
REMARK    1  A    between atoms: N1_1  and  C1_5
REMARK    2  A    between atoms: C1_5  and  C2_6
REMARK       I    between atoms: C2_6  and  N2_8
ROOT
HETATM    1  C2  UNL     1     -17.216  13.465  37.051  1.00  0.00     0.249 C
HETATM    2  O1  UNL     1     -18.123  14.187  37.562  1.00  0.00    -0.271 OA
HETATM    3  N2  UNL     1     -16.500  13.846  35.888  1.00  0.00    -0.327 N
HETATM    4  C3  UNL     1     -16.906  15.102  35.380  1.00  0.00     0.068 C
HETATM    5  C4  UNL     1     -17.899  15.257  34.275  1.00  0.00     0.056 C
HETATM    6  C5  UNL     1     -17.595  14.337  33.043  1.00  0.00     0.088 C
HETATM    7  C6  UNL     1     -16.698  13.358  33.502  1.00  0.00    -0.140 C
HETATM    8  C7  UNL     1     -15.776  12.409  33.992  1.00  0.00     0.180 C
HETATM    9  C8  UNL     1     -15.501  12.834  35.490  1.00  0.00     0.184 C
HETATM   10  N3  UNL     1     -16.234  11.026  34.078  1.00  0.00    -0.373 N
ATOM     11  H3  UNL     1     -16.808  10.700  34.856  1.00  0.00     0.160 HD
HETATM   12  C9  UNL     1     -15.845  10.164  33.037  1.00  0.00     0.077 C
HETATM   13  C10 UNL     1     -15.517  10.863  31.748  1.00  0.00     0.166 C
HETATM   14  N4  UNL     1     -14.389  11.724  32.057  1.00  0.00    -0.353 N
ATOM     15  H4  UNL     1     -13.599  11.842  31.423  1.00  0.00     0.162 HD
HETATM   16  C11 UNL     1     -14.468  12.383  33.297  1.00  0.00     0.259 C
HETATM   17  O2  UNL     1     -13.479  12.930  33.804  1.00  0.00    -0.270 OA
ENDROOT
BRANCH   1  18
HETATM   18  C1  UNL     1     -16.919  12.182  37.716  1.00  0.00     0.332 C
BRANCH  18  19
HETATM   19  N1  UNL     1     -18.124  11.380  37.905  1.00  0.00    -0.071 N
ATOM     20  H13 UNL     1     -18.006  10.704  38.659  1.00  0.00     0.274 HD
ATOM     21  H12 UNL     1     -18.881  11.934  38.307  1.00  0.00     0.274 HD
ATOM     22  H11 UNL     1     -18.414  10.925  37.040  1.00  0.00     0.274 HD
ENDBRANCH  18  19
ENDBRANCH   1  18
TORSDOF 2
ENDMDL