MODEL 2
REMARK VINA RESULT: -6.075552640      0.831      1.480
REMARK  5 active torsions:
REMARK  status: ('A' for Active; 'I' for Inactive)
REMARK    1  A    between atoms: C2_2  and  C3_3
REMARK    2  A    between atoms: C3_3  and  N1_4
REMARK       I    between atoms: N1_4  and  C4_6
REMARK       I    between atoms: C4_6  and  N2_8
REMARK    3  A    between atoms: N2_8  and  N3_10
REMARK    4  A    between atoms: N3_10  and  C5_12
REMARK    5  A    between atoms: C5_12  and  N4_14
ROOT
HETATM    1  N3  UNL     1     -16.492  12.778  32.489  1.00  0.00    -0.272 N
ATOM      2  H3  UNL     1     -15.835  13.068  31.765  1.00  0.00     0.189 HD
ENDROOT
BRANCH   1   3
HETATM    3  N2  UNL     1     -17.248  11.632  32.286  1.00  0.00    -0.249 N
HETATM    4  C4  UNL     1     -16.703  10.367  32.606  1.00  0.00     0.335 C
HETATM    5  N1  UNL     1     -17.476   9.215  32.403  1.00  0.00    -0.338 N
HETATM    6  O1  UNL     1     -15.532  10.295  33.067  1.00  0.00    -0.246 OA
ATOM      7  H1  UNL     1     -18.419   9.308  32.027  1.00  0.00     0.164 HD
ATOM      8  H2  UNL     1     -18.192  11.702  31.908  1.00  0.00     0.192 HD
BRANCH   5   9
HETATM    9  C3  UNL     1     -16.971   7.906  32.712  1.00  0.00     0.151 C
BRANCH   9  10
HETATM   10  C2  UNL     1     -16.369   7.268  31.520  1.00  0.00    -0.018 C
HETATM   11  C1  UNL     1     -16.432   5.959  31.362  1.00  0.00     0.008 C
ENDBRANCH   9  10
ENDBRANCH   5   9
ENDBRANCH   1   3
BRANCH   1  12
HETATM   12  C5  UNL     1     -16.600  13.556  33.661  1.00  0.00     0.189 C
HETATM   13  S1  UNL     1     -18.049  13.892  34.372  1.00  0.00    -0.039 SA
BRANCH  12  14
HETATM   14  N4  UNL     1     -15.419  14.081  34.245  1.00  0.00    -0.353 N
HETATM   15  C6  UNL     1     -15.409  15.411  34.860  1.00  0.00     0.151 C
HETATM   16  C7  UNL     1     -14.040  16.022  34.619  1.00  0.00     0.187 C
HETATM   17  O2  UNL     1     -13.125  15.308  35.360  1.00  0.00    -0.388 OA
HETATM   18  C8  UNL     1     -13.205  13.938  35.272  1.00  0.00     0.187 C
HETATM   19  C9  UNL     1     -14.154  13.383  34.270  1.00  0.00     0.151 C
ENDBRANCH  12  14
ENDBRANCH   1  12
TORSDOF 5
ENDMDL