MODEL 4
REMARK VINA RESULT: -6.067821704      2.694      7.003
REMARK  3 active torsions:
REMARK  status: ('A' for Active; 'I' for Inactive)
REMARK    1  A    between atoms: C2_2  and  C4_4
REMARK    2  A    between atoms: C4_4  and  N1_5
REMARK       I    between atoms: N1_5  and  C5_7
REMARK       I    between atoms: C5_7  and  N2_9
REMARK       I    between atoms: N3_12  and  C8_13
REMARK       I    between atoms: C8_13  and  N4_15
REMARK    3  A    between atoms: N4_15  and  N5_17
ROOT
HETATM    1  N1  UNL     1     -16.624   9.655  32.122  1.00  0.00    -0.339 N
ATOM      2  H1  UNL     1     -17.641   9.588  32.098  1.00  0.00     0.164 HD
HETATM    3  C5  UNL     1     -16.012  10.707  32.834  1.00  0.00     0.318 C
HETATM    4  O1  UNL     1     -14.772  10.844  32.902  1.00  0.00    -0.247 OA
HETATM    5  N2  UNL     1     -16.818  11.651  33.502  1.00  0.00    -0.331 N
HETATM    6  C6  UNL     1     -18.260  11.527  33.446  1.00  0.00     0.147 C
HETATM    7  C7  UNL     1     -18.836  12.814  33.993  1.00  0.00     0.147 C
HETATM    8  N3  UNL     1     -18.308  12.962  35.355  1.00  0.00    -0.330 N
HETATM    9  C8  UNL     1     -19.194  13.301  36.396  1.00  0.00     0.336 C
HETATM   10  O2  UNL     1     -20.416  13.473  36.159  1.00  0.00    -0.245 OA
HETATM   11  N4  UNL     1     -18.677  13.443  37.710  1.00  0.00    -0.258 N
ATOM     12  H4  UNL     1     -17.685  13.303  37.901  1.00  0.00     0.191 HD
HETATM   13  C9  UNL     1     -16.892  12.758  35.608  1.00  0.00     0.147 C
HETATM   14  C10 UNL     1     -16.206  12.747  34.250  1.00  0.00     0.147 C
ENDROOT
BRANCH   1  15
HETATM   15  C4  UNL     1     -15.819   8.662  31.420  1.00  0.00     0.157 C
BRANCH  15  16
HETATM   16  C2  UNL     1     -16.414   7.333  31.706  1.00  0.00    -0.075 C
HETATM   17  C1  UNL     1     -16.304   6.309  30.888  1.00  0.00     0.015 C
HETATM   18  C3  UNL     1     -17.165   7.202  32.999  1.00  0.00     0.044 C
ENDBRANCH  15  16
ENDBRANCH   1  15
BRANCH  11  19
HETATM   19  N5  UNL     1     -19.565  13.778  38.734  1.00  0.00    -0.341 N
ATOM     20  H52 UNL     1     -20.379  13.193  38.915  1.00  0.00     0.177 HD
ATOM     21  H51 UNL     1     -19.370  14.616  39.283  1.00  0.00     0.177 HD
ENDBRANCH  11  19
TORSDOF 3
ENDMDL