MODEL 4
REMARK VINA RESULT: -6.310738662      2.297      3.542
REMARK  3 active torsions:
REMARK  status: ('A' for Active; 'I' for Inactive)
REMARK       I    between atoms: C2_2  and  N1_4
REMARK       I    between atoms: C3_6  and  N2_7
REMARK       I    between atoms: C3_6  and  N5_17
REMARK    1  A    between atoms: N2_7  and  C4_9
REMARK    2  A    between atoms: C4_9  and  C5_10
REMARK       I    between atoms: C5_10  and  N3_12
REMARK    3  A    between atoms: N3_12  and  N4_14
ROOT
HETATM    1  C1  UNL     1     -15.913  13.388  38.469  1.00  0.00     0.118 C
HETATM    2  C2  UNL     1     -15.835  12.448  37.322  1.00  0.00     0.231 C
HETATM    3  O1  UNL     1     -14.896  11.609  37.337  1.00  0.00    -0.273 OA
HETATM    4  N1  UNL     1     -16.723  12.434  36.241  1.00  0.00    -0.160 N
ATOM      5  H1  UNL     1     -17.589  11.911  36.372  1.00  0.00     0.187 HD
HETATM    6  C3  UNL     1     -16.570  12.998  35.124  1.00  0.00     0.679 C
HETATM    7  N2  UNL     1     -17.615  12.859  34.136  1.00  0.00    -0.217 N
ATOM      8  H2  UNL     1     -18.127  13.662  33.769  1.00  0.00     0.178 HD
HETATM    9  N5  UNL     1     -15.443  13.769  34.742  1.00  0.00    -0.218 N
HETATM   10  C6  UNL     1     -15.505  15.180  34.946  1.00  0.00     0.141 C
HETATM   11  C7  UNL     1     -14.294  15.948  34.586  1.00  0.00     0.020 C
HETATM   12  C8  UNL     1     -12.987  15.252  34.715  1.00  0.00     0.003 C
HETATM   13  C9  UNL     1     -13.086  13.763  34.913  1.00  0.00     0.020 C
HETATM   14  C10 UNL     1     -14.260  13.172  34.163  1.00  0.00     0.141 C
ENDROOT
BRANCH   7  15
HETATM   15  C4  UNL     1     -17.883  11.524  33.706  1.00  0.00     0.242 C
BRANCH  15  16
HETATM   16  C5  UNL     1     -16.913  10.935  32.799  1.00  0.00     0.253 C
HETATM   17  O2  UNL     1     -16.516  11.652  31.824  1.00  0.00    -0.270 OA
HETATM   18  N3  UNL     1     -16.393   9.642  32.925  1.00  0.00    -0.275 N
ATOM     19  H3  UNL     1     -16.698   9.051  33.698  1.00  0.00     0.189 HD
BRANCH  18  20
HETATM   20  N4  UNL     1     -15.468   9.152  32.013  1.00  0.00    -0.343 N
ATOM     21  H42 UNL     1     -14.494   9.443  32.103  1.00  0.00     0.176 HD
ATOM     22  H41 UNL     1     -15.751   8.514  31.269  1.00  0.00     0.176 HD
ENDBRANCH  18  20
ENDBRANCH  15  16
ENDBRANCH   7  15
TORSDOF 3
ENDMDL