MODEL 1
REMARK VINA RESULT: -6.217365118      0.000      0.000
REMARK  6 active torsions:
REMARK  status: ('A' for Active; 'I' for Inactive)
REMARK    1  A    between atoms: C2_2  and  S1_3
REMARK    2  A    between atoms: S1_3  and  N1_4
REMARK    3  A    between atoms: S1_3  and  N2_8
REMARK    4  A    between atoms: C3_10  and  N3_11
REMARK    5  A    between atoms: C3_10  and  C9_18
REMARK    6  A    between atoms: N3_11  and  C4_13
ROOT
HETATM    1  N2  UNL     1      49.758  49.426  36.627  1.00  0.00    -0.290 N
ATOM      2  H2  UNL     1      50.094  48.688  37.246  1.00  0.00     0.178 HD
HETATM    3  C3  UNL     1      48.481  49.543  36.528  1.00  0.00     0.092 C
ENDROOT
BRANCH   3   4
HETATM    4  N3  UNL     1      47.746  48.597  37.323  1.00  0.00    -0.374 N
ATOM      5  H3  UNL     1      47.523  47.688  36.916  1.00  0.00     0.161 HD
BRANCH   4   6
HETATM    6  C4  UNL     1      47.313  48.871  38.659  1.00  0.00     0.082 C
HETATM    7  C5  UNL     1      48.237  49.740  39.449  1.00  0.00     0.025 C
HETATM    8  C6  UNL     1      48.245  49.225  40.868  1.00  0.00     0.002 C
HETATM    9  C7  UNL     1      47.446  47.967  40.901  1.00  0.00     0.002 C
HETATM   10  C8  UNL     1      47.300  47.591  39.463  1.00  0.00     0.025 C
ENDBRANCH   4   6
ENDBRANCH   3   4
BRANCH   3  11
HETATM   11  C9  UNL     1      47.838  50.548  35.684  1.00  0.00     0.086 A
HETATM   12  C10 UNL     1      46.330  50.645  35.888  1.00  0.00     0.048 A
HETATM   13  C11 UNL     1      46.945  50.306  34.576  1.00  0.00     0.087 A
HETATM   14 BR1  UNL     1      46.703  51.751  33.269  1.00  0.00    -0.072 Br
HETATM   15 BR2  UNL     1      46.661  48.605  33.753  1.00  0.00    -0.072 Br
ENDBRANCH   3  11
BRANCH   1  16
HETATM   16  S1  UNL     1      50.948  50.349  35.852  1.00  0.00     0.105 S
HETATM   17  O1  UNL     1      50.913  51.818  36.208  1.00  0.00    -0.229 OA
BRANCH  16  18
HETATM   18  C2  UNL     1      50.781  50.255  34.083  1.00  0.00     0.135 C
HETATM   19  C1  UNL     1      50.666  48.851  33.593  1.00  0.00     0.021 C
ENDBRANCH  16  18
BRANCH  16  20
HETATM   20  N1  UNL     1      52.399  49.882  36.249  1.00  0.00    -0.345 N
ATOM     21  H12 UNL     1      53.254  50.165  35.769  1.00  0.00     0.167 HD
ATOM     22  H11 UNL     1      52.334  49.259  37.054  1.00  0.00     0.167 HD
ENDBRANCH  16  20
ENDBRANCH   1  16
TORSDOF 6
ENDMDL