MODEL 2
REMARK VINA RESULT: -8.212365717      2.695      3.364
REMARK  5 active torsions:
REMARK  status: ('A' for Active; 'I' for Inactive)
REMARK       I    between atoms: C1_2  and  N1_3
REMARK    1  A    between atoms: C1_2  and  C8_13
REMARK    2  A    between atoms: N1_3  and  C2_5
REMARK    3  A    between atoms: C2_5  and  C3_6
REMARK       I    between atoms: C3_6  and  N2_8
REMARK       I    between atoms: C8_13  and  N3_15
REMARK    4  A    between atoms: C12_19  and  C13_20
REMARK    5  A    between atoms: C13_20  and  C14_21
ROOT
HETATM    1  C8  UNL     1      53.149  51.822  35.194  1.00  0.00     0.311 C
HETATM    2  O3  UNL     1      52.866  53.041  34.868  1.00  0.00    -0.262 OA
HETATM    3  N3  UNL     1      54.458  51.347  35.094  1.00  0.00    -0.344 N
HETATM    4  C9  UNL     1      55.500  52.283  34.630  1.00  0.00     0.126 C
HETATM    5  C10 UNL     1      56.598  52.156  35.663  1.00  0.00     0.020 C
HETATM    6  C11 UNL     1      57.209  50.788  35.522  1.00  0.00     0.008 C
HETATM    7  C12 UNL     1      56.272  49.671  35.257  1.00  0.00     0.004 C
HETATM    8  C21 UNL     1      54.830  50.017  35.418  1.00  0.00     0.130 C
ENDROOT
BRANCH   1   9
HETATM    9  C1  UNL     1      52.068  50.961  35.668  1.00  0.00     0.309 C
HETATM   10  O1  UNL     1      51.940  50.539  36.832  1.00  0.00    -0.262 OA
HETATM   11  N1  UNL     1      51.036  50.535  34.746  1.00  0.00    -0.344 N
ATOM     12  H1  UNL     1      51.089  50.846  33.775  1.00  0.00     0.163 HD
BRANCH  11  13
HETATM   13  C2  UNL     1      49.952  49.703  35.134  1.00  0.00     0.226 C
BRANCH  13  14
HETATM   14  C3  UNL     1      48.705  50.411  35.500  1.00  0.00     0.237 C
HETATM   15  O2  UNL     1      48.692  51.442  36.222  1.00  0.00    -0.272 OA
HETATM   16  N2  UNL     1      47.469  49.914  35.023  1.00  0.00    -0.351 N
HETATM   17  C4  UNL     1      46.173  50.491  35.292  1.00  0.00     0.126 C
HETATM   18  C7  UNL     1      47.293  48.753  34.190  1.00  0.00     0.126 C
HETATM   19  C5  UNL     1      45.241  49.943  34.229  1.00  0.00     0.021 C
HETATM   20  C6  UNL     1      46.151  49.212  33.278  1.00  0.00     0.021 C
ENDBRANCH  13  14
ENDBRANCH  11  13
ENDBRANCH   1   9
BRANCH   7  21
HETATM   21  C13 UNL     1      56.635  49.050  33.934  1.00  0.00     0.011 C
BRANCH  21  22
HETATM   22  C14 UNL     1      57.572  47.903  33.985  1.00  0.00    -0.014 C
HETATM   23  C15 UNL     1      57.886  47.672  35.474  1.00  0.00     0.005 C
HETATM   24  C16 UNL     1      58.598  46.386  35.692  1.00  0.00     0.006 C
HETATM   25  C17 UNL     1      57.801  45.159  35.647  1.00  0.00     0.079 C
HETATM   26  C18 UNL     1      56.325  45.310  35.495  1.00  0.00     0.243 C
HETATM   27  F1  UNL     1      55.710  45.783  36.662  1.00  0.00    -0.206 F
HETATM   28  F2  UNL     1      55.817  44.006  35.361  1.00  0.00    -0.206 F
HETATM   29  C19 UNL     1      55.903  46.065  34.283  1.00  0.00     0.079 C
HETATM   30  C20 UNL     1      57.018  46.616  33.461  1.00  0.00     0.010 C
ENDBRANCH  21  22
ENDBRANCH   7  21
TORSDOF 5
ENDMDL