MODEL 1
REMARK VINA RESULT: -7.237621004      0.000      0.000
REMARK  4 active torsions:
REMARK  status: ('A' for Active; 'I' for Inactive)
REMARK    1  A    between atoms: C1_2  and  C2_3
REMARK       I    between atoms: C1_2  and  N2_21
REMARK    2  A    between atoms: C2_3  and  N1_4
REMARK       I    between atoms: N1_4  and  C3_6
REMARK    3  A    between atoms: C3_6  and  C4_8
REMARK    4  A    between atoms: C10_15  and  C11_16
ROOT
HETATM    1  C4  UNL     1      55.627  47.467  35.082  1.00  0.00     0.045 C
HETATM    2  C5  UNL     1      57.062  47.818  34.855  1.00  0.00     0.024 C
HETATM    3  C6  UNL     1      57.882  46.584  34.702  1.00  0.00    -0.009 C
HETATM    4  C7  UNL     1      57.748  45.668  35.897  1.00  0.00     0.048 C
HETATM    5  C8  UNL     1      56.299  45.271  36.013  1.00  0.00     0.105 C
HETATM    6  F1  UNL     1      56.146  44.439  37.119  1.00  0.00    -0.243 F
HETATM    7  C9  UNL     1      55.801  44.556  34.783  1.00  0.00     0.054 C
HETATM    8  C10 UNL     1      55.949  45.509  33.615  1.00  0.00    -0.027 C
HETATM    9  C12 UNL     1      57.412  45.839  33.479  1.00  0.00     0.015 C
HETATM   10  C13 UNL     1      55.103  46.728  33.884  1.00  0.00     0.029 C
HETATM   11  C14 UNL     1      55.506  46.512  36.274  1.00  0.00     0.062 C
ENDROOT
BRANCH   1  12
HETATM   12  C3  UNL     1      54.792  48.661  35.358  1.00  0.00     0.227 C
HETATM   13  N1  UNL     1      53.388  48.544  35.506  1.00  0.00    -0.352 N
ATOM     14  H1  UNL     1      52.983  47.612  35.414  1.00  0.00     0.162 HD
HETATM   15  O2  UNL     1      55.385  49.767  35.454  1.00  0.00    -0.273 OA
BRANCH  13  16
HETATM   16  C2  UNL     1      52.498  49.619  35.770  1.00  0.00     0.225 C
BRANCH  16  17
HETATM   17  C1  UNL     1      51.137  49.434  35.223  1.00  0.00     0.237 C
HETATM   18  O1  UNL     1      50.877  48.544  34.357  1.00  0.00    -0.272 OA
HETATM   19  N2  UNL     1      50.109  50.273  35.683  1.00  0.00    -0.347 N
HETATM   20  C15 UNL     1      50.369  51.290  36.661  1.00  0.00     0.152 C
HETATM   21  C18 UNL     1      48.776  50.118  35.172  1.00  0.00     0.152 C
HETATM   22  C16 UNL     1      49.393  51.263  37.811  1.00  0.00     0.187 C
HETATM   23  O3  UNL     1      48.192  50.706  37.425  1.00  0.00    -0.388 OA
HETATM   24  C17 UNL     1      47.867  50.917  36.108  1.00  0.00     0.187 C
ENDBRANCH  16  17
ENDBRANCH  13  16
ENDBRANCH   1  12
BRANCH   8  25
HETATM   25  C11 UNL     1      55.514  44.853  32.315  1.00  0.00     0.095 C
HETATM   26 BR1  UNL     1      53.605  44.556  32.289  1.00  0.00    -0.096 Br
ENDBRANCH   8  25
TORSDOF 4
ENDMDL