MODEL 5
REMARK VINA RESULT: -6.773419232      4.457      5.685
REMARK  4 active torsions:
REMARK  status: ('A' for Active; 'I' for Inactive)
REMARK       I    between atoms: C1_2  and  N1_3
REMARK    1  A    between atoms: C1_2  and  C6_15
REMARK    2  A    between atoms: N1_3  and  S1_5
REMARK    3  A    between atoms: S1_5  and  N2_8
REMARK    4  A    between atoms: C3_10  and  C4_12
ROOT
HETATM    1  O1  UNL     1      46.586  46.820  33.795  1.00  0.00    -0.272 OA
HETATM    2  C1  UNL     1      47.619  47.231  33.225  1.00  0.00     0.241 C
HETATM    3  N1  UNL     1      48.207  48.494  33.410  1.00  0.00    -0.237 N
ATOM      4  H1  UNL     1      49.052  48.727  32.889  1.00  0.00     0.183 HD
ENDROOT
BRANCH   2   5
HETATM    5  C6  UNL     1      48.295  46.303  32.259  1.00  0.00     0.043 C
HETATM    6  C7  UNL     1      49.780  46.492  32.395  1.00  0.00     0.024 C
HETATM    7  C8  UNL     1      50.449  45.667  31.309  1.00  0.00    -0.013 C
HETATM    8  C9  UNL     1      49.965  46.118  29.950  1.00  0.00     0.009 C
HETATM    9  C13 UNL     1      50.107  44.216  31.580  1.00  0.00     0.009 C
HETATM   10  C10 UNL     1      48.494  45.898  29.830  1.00  0.00    -0.013 C
HETATM   11  C11 UNL     1      48.158  44.443  30.067  1.00  0.00     0.009 C
HETATM   12  C15 UNL     1      47.799  46.710  30.896  1.00  0.00     0.024 C
HETATM   13  C12 UNL     1      48.627  44.032  31.438  1.00  0.00    -0.013 C
HETATM   14  C14 UNL     1      47.918  44.865  32.480  1.00  0.00     0.024 C
ENDBRANCH   2   5
BRANCH   3  15
HETATM   15  S1  UNL     1      47.550  49.654  34.482  1.00  0.00     0.323 S
HETATM   16  O2  UNL     1      47.415  48.949  35.846  1.00  0.00    -0.182 OA
HETATM   17  O3  UNL     1      48.628  50.720  34.653  1.00  0.00    -0.182 OA
BRANCH  15  18
HETATM   18  N2  UNL     1      46.115  50.254  33.966  1.00  0.00    -0.287 N
HETATM   19  C2  UNL     1      44.852  49.716  33.963  1.00  0.00     0.182 C
HETATM   20  C3  UNL     1      44.720  50.191  32.491  1.00  0.00     0.145 C
HETATM   21  F1  UNL     1      43.700  51.066  32.335  1.00  0.00    -0.239 F
HETATM   22  C5  UNL     1      46.057  50.942  32.730  1.00  0.00     0.182 C
BRANCH  20  23
HETATM   23  C4  UNL     1      44.899  49.118  31.470  1.00  0.00     0.132 C
HETATM   24 BR1  UNL     1      43.963  49.397  29.828  1.00  0.00    -0.093 Br
ENDBRANCH  20  23
ENDBRANCH  15  18
ENDBRANCH   3  15
TORSDOF 4
ENDMDL