MODEL 2
REMARK VINA RESULT: -7.982137821      1.662      2.799
REMARK  7 active torsions:
REMARK  status: ('A' for Active; 'I' for Inactive)
REMARK    1  A    between atoms: O1_1  and  C1_3
REMARK    2  A    between atoms: C1_3  and  N1_4
REMARK    3  A    between atoms: C1_3  and  C9_20
REMARK    4  A    between atoms: C4_7  and  N2_8
REMARK    5  A    between atoms: N2_8  and  S1_10
REMARK    6  A    between atoms: S1_10  and  N3_13
REMARK    7  A    between atoms: C9_20  and  C10_21
ROOT
HETATM    1  N1  UNL     1      47.172  50.824  33.190  1.00  0.00    -0.363 N
HETATM    2  C2  UNL     1      48.255  50.069  32.499  1.00  0.00     0.127 C
HETATM    3  C3  UNL     1      48.673  49.066  33.556  1.00  0.00     0.047 C
HETATM    4  C4  UNL     1      48.076  49.556  34.836  1.00  0.00     0.113 C
HETATM    5  C8  UNL     1      47.710  50.992  34.490  1.00  0.00     0.150 C
ENDROOT
BRANCH   1   6
HETATM    6  C1  UNL     1      45.997  51.185  32.561  1.00  0.00     0.122 C
BRANCH   6   7
HETATM    7  O1  UNL     1      45.814  52.478  32.409  1.00  0.00    -0.349 OA
ATOM      8  H1  UNL     1      46.017  53.009  33.170  1.00  0.00     0.219 HD
ENDBRANCH   6   7
BRANCH   6   9
HETATM    9  C9  UNL     1      44.893  50.368  32.020  1.00  0.00     0.028 C
HETATM   10  C16 UNL     1      43.568  50.994  32.273  1.00  0.00     0.018 C
HETATM   11  C17 UNL     1      43.041  49.709  32.928  1.00  0.00     0.002 C
HETATM   12  C18 UNL     1      44.517  49.281  32.957  1.00  0.00     0.018 C
BRANCH   9  13
HETATM   13  C10 UNL     1      45.131  49.927  30.577  1.00  0.00     0.002 C
HETATM   14  C11 UNL     1      45.500  48.470  30.494  1.00  0.00     0.006 C
HETATM   15  C12 UNL     1      45.739  47.976  29.105  1.00  0.00     0.000 C
HETATM   16  C13 UNL     1      44.985  48.759  28.053  1.00  0.00     0.000 C
HETATM   17  C14 UNL     1      43.664  49.138  28.696  1.00  0.00     0.000 C
HETATM   18  C15 UNL     1      44.029  50.279  29.644  1.00  0.00     0.006 C
ENDBRANCH   9  13
ENDBRANCH   6   9
ENDBRANCH   1   6
BRANCH   4  19
HETATM   19  N2  UNL     1      48.879  49.411  35.980  1.00  0.00    -0.300 N
ATOM     20  H2  UNL     1      49.823  49.028  35.917  1.00  0.00     0.173 HD
BRANCH  19  21
HETATM   21  S1  UNL     1      48.232  49.891  37.459  1.00  0.00     0.299 S
HETATM   22  O2  UNL     1      48.472  51.331  37.801  1.00  0.00    -0.188 OA
HETATM   23  O3  UNL     1      46.732  49.710  37.417  1.00  0.00    -0.188 OA
BRANCH  21  24
HETATM   24  N3  UNL     1      48.797  48.851  38.740  1.00  0.00    -0.182 NA
HETATM   25  C5  UNL     1      47.910  47.714  38.856  1.00  0.00     0.189 C
HETATM   26  C6  UNL     1      47.337  48.201  40.150  1.00  0.00     0.268 C
HETATM   27  F1  UNL     1      47.548  47.271  41.155  1.00  0.00    -0.204 F
HETATM   28  F2  UNL     1      46.030  48.611  40.106  1.00  0.00    -0.204 F
HETATM   29  C7  UNL     1      48.374  49.281  40.057  1.00  0.00     0.189 C
ENDBRANCH  21  24
ENDBRANCH  19  21
ENDBRANCH   4  19
TORSDOF 7
ENDMDL