MODEL 4
REMARK VINA RESULT: -7.268746522      4.439      6.085
REMARK  4 active torsions:
REMARK  status: ('A' for Active; 'I' for Inactive)
REMARK       I    between atoms: C1_2  and  N1_3
REMARK    1  A    between atoms: C1_2  and  C11_15
REMARK    2  A    between atoms: N1_3  and  C2_5
REMARK    3  A    between atoms: N2_8  and  C5_9
REMARK    4  A    between atoms: C5_9  and  C6_10
REMARK       I    between atoms: N3_16  and  C12_17
REMARK       I    between atoms: C12_17  and  N4_19
ROOT
HETATM    1  C11 UNL     1      48.286  50.182  35.182  1.00  0.00     0.253 C
HETATM    2  N3  UNL     1      47.916  49.825  33.793  1.00  0.00    -0.314 N
HETATM    3  C12 UNL     1      48.435  48.866  32.929  1.00  0.00     0.321 C
HETATM    4  O2  UNL     1      49.345  48.061  33.382  1.00  0.00    -0.247 OA
HETATM    5  N4  UNL     1      48.083  48.654  31.571  1.00  0.00    -0.329 N
HETATM    6  C13 UNL     1      47.129  49.346  30.745  1.00  0.00     0.132 C
HETATM    7  C14 UNL     1      47.406  48.832  29.348  1.00  0.00     0.006 C
HETATM    8  C15 UNL     1      46.804  47.440  29.301  1.00  0.00     0.008 C
HETATM    9  C16 UNL     1      47.638  46.663  30.326  1.00  0.00     0.026 C
HETATM   10  C17 UNL     1      48.701  47.618  30.723  1.00  0.00     0.089 C
HETATM   11  C18 UNL     1      48.870  48.458  29.463  1.00  0.00     0.031 C
HETATM   12  C19 UNL     1      46.752  50.733  33.637  1.00  0.00     0.135 C
HETATM   13  C20 UNL     1      45.970  50.385  34.932  1.00  0.00     0.101 C
HETATM   14  C21 UNL     1      47.037  49.800  35.887  1.00  0.00     0.274 C
HETATM   15  F1  UNL     1      46.874  50.386  37.136  1.00  0.00    -0.203 F
HETATM   16  F2  UNL     1      46.899  48.446  36.007  1.00  0.00    -0.203 F
ENDROOT
BRANCH   1  17
HETATM   17  C1  UNL     1      49.559  49.746  35.665  1.00  0.00     0.247 C
HETATM   18  O1  UNL     1      49.751  49.070  36.732  1.00  0.00    -0.271 OA
HETATM   19  N1  UNL     1      50.762  50.046  34.961  1.00  0.00    -0.354 N
ATOM     20  H1  UNL     1      50.703  50.585  34.096  1.00  0.00     0.162 HD
BRANCH  19  21
HETATM   21  C2  UNL     1      52.087  49.608  35.438  1.00  0.00     0.087 C
HETATM   22  C3  UNL     1      52.777  49.015  34.240  1.00  0.00     0.055 C
HETATM   23  C4  UNL     1      53.939  49.861  33.771  1.00  0.00     0.274 C
HETATM   24  N2  UNL     1      54.822  50.028  34.892  1.00  0.00     0.088 N
HETATM   25  C9  UNL     1      54.231  50.852  35.889  1.00  0.00     0.274 C
HETATM   26  C10 UNL     1      52.764  50.777  36.034  1.00  0.00     0.055 C
BRANCH  24  27
HETATM   27  C5  UNL     1      56.030  50.665  34.405  1.00  0.00     0.277 C
BRANCH  27  28
HETATM   28  C6  UNL     1      56.922  51.119  35.539  1.00  0.00     0.014 A
HETATM   29  C7  UNL     1      58.403  51.156  35.132  1.00  0.00     0.007 A
HETATM   30  C8  UNL     1      57.655  52.387  35.488  1.00  0.00     0.007 A
ENDBRANCH  27  28
ENDBRANCH  24  27
ENDBRANCH  19  21
ENDBRANCH   1  17
TORSDOF 4
ENDMDL