MODEL 4
REMARK VINA RESULT: -7.042657426      2.470      3.509
REMARK  4 active torsions:
REMARK  status: ('A' for Active; 'I' for Inactive)
REMARK    1  A    between atoms: C2_2  and  C3_3
REMARK       I    between atoms: C3_3  and  N1_5
REMARK    2  A    between atoms: N1_5  and  C4_7
REMARK    3  A    between atoms: N2_17  and  S1_18
REMARK    4  A    between atoms: S1_18  and  N3_21
ROOT
HETATM    1  C1  UNL     1      47.318  48.857  34.849  1.00  0.00     0.044 C
HETATM    2  C2  UNL     1      47.244  50.360  34.962  1.00  0.00     0.107 C
HETATM    3  C12 UNL     1      45.747  50.717  35.147  1.00  0.00     0.051 C
HETATM    4  C13 UNL     1      46.136  50.643  36.617  1.00  0.00     0.113 C
HETATM    5  N2  UNL     1      47.472  50.978  36.197  1.00  0.00    -0.175 NA
ENDROOT
BRANCH   2   6
HETATM    6  C3  UNL     1      47.764  51.023  33.753  1.00  0.00     0.241 C
HETATM    7  O1  UNL     1      48.992  51.097  33.570  1.00  0.00    -0.271 OA
HETATM    8  N1  UNL     1      46.879  51.568  32.806  1.00  0.00    -0.354 N
ATOM      9  H1  UNL     1      45.878  51.489  32.985  1.00  0.00     0.162 HD
BRANCH   8  10
HETATM   10  C4  UNL     1      47.302  52.235  31.592  1.00  0.00     0.088 C
HETATM   11  C5  UNL     1      46.152  52.641  30.713  1.00  0.00     0.030 C
HETATM   12  C6  UNL     1      46.375  51.981  29.383  1.00  0.00    -0.012 C
HETATM   13  C7  UNL     1      47.235  52.859  28.497  1.00  0.00     0.005 C
HETATM   14  C11 UNL     1      47.232  50.759  29.727  1.00  0.00     0.011 C
HETATM   15  C8  UNL     1      48.459  53.337  29.242  1.00  0.00     0.001 C
HETATM   16  C9  UNL     1      49.170  52.222  29.960  1.00  0.00     0.007 C
HETATM   17  C10 UNL     1      48.190  51.368  30.737  1.00  0.00     0.009 C
ENDBRANCH   8  10
ENDBRANCH   2   6
BRANCH   5  18
HETATM   18  S1  UNL     1      48.719  50.591  37.242  1.00  0.00     0.302 S
HETATM   19  O2  UNL     1      49.941  50.038  36.550  1.00  0.00    -0.188 OA
HETATM   20  O3  UNL     1      49.214  51.902  37.861  1.00  0.00    -0.188 OA
BRANCH  18  21
HETATM   21  N3  UNL     1      48.199  49.634  38.532  1.00  0.00    -0.298 N
HETATM   22  C14 UNL     1      48.234  48.225  38.369  1.00  0.00     0.142 C
HETATM   23  C15 UNL     1      47.245  47.615  39.353  1.00  0.00     0.099 C
HETATM   24  C16 UNL     1      47.599  48.002  40.755  1.00  0.00     0.246 C
HETATM   25  F1  UNL     1      47.980  46.872  41.481  1.00  0.00    -0.206 F
HETATM   26  F2  UNL     1      46.491  48.522  41.432  1.00  0.00    -0.206 F
HETATM   27  C17 UNL     1      48.690  49.018  40.857  1.00  0.00     0.099 C
HETATM   28  C18 UNL     1      48.519  50.112  39.832  1.00  0.00     0.142 C
ENDBRANCH  18  21
ENDBRANCH   5  18
TORSDOF 4
ENDMDL