MODEL 4
REMARK VINA RESULT: -7.551485110      1.627      2.022
REMARK  4 active torsions:
REMARK  status: ('A' for Active; 'I' for Inactive)
REMARK    1  A    between atoms: C7_7  and  N1_8
REMARK       I    between atoms: N1_8  and  C8_10
REMARK    2  A    between atoms: C8_10  and  C9_12
REMARK    3  A    between atoms: N2_15  and  S1_16
REMARK    4  A    between atoms: S1_16  and  N3_19
ROOT
HETATM    1  C9  UNL     1      54.149  48.498  35.145  1.00  0.00     0.087 C
HETATM    2  C10 UNL     1      53.131  48.403  34.040  1.00  0.00     0.060 C
HETATM    3  C11 UNL     1      51.820  48.885  34.535  1.00  0.00     0.083 C
HETATM    4  N2  UNL     1      51.798  49.957  35.424  1.00  0.00    -0.257 N
HETATM    5  C17 UNL     1      52.954  50.580  35.878  1.00  0.00     0.083 C
HETATM    6  C18 UNL     1      54.259  49.919  35.619  1.00  0.00     0.060 C
ENDROOT
BRANCH   1   7
HETATM    7  C8  UNL     1      55.449  47.962  34.674  1.00  0.00     0.222 C
HETATM    8  N1  UNL     1      55.864  46.647  35.022  1.00  0.00    -0.356 N
ATOM      9  H1  UNL     1      55.243  46.084  35.604  1.00  0.00     0.162 HD
HETATM   10  O1  UNL     1      56.166  48.705  33.961  1.00  0.00    -0.273 OA
BRANCH   8  11
HETATM   11  C7  UNL     1      57.107  46.070  34.600  1.00  0.00     0.088 C
HETATM   12  C2  UNL     1      58.075  45.981  35.765  1.00  0.00     0.004 C
HETATM   13  C1  UNL     1      58.847  47.296  35.862  1.00  0.00     0.012 C
HETATM   14  C3  UNL     1      59.035  44.822  35.607  1.00  0.00     0.006 C
HETATM   15  C4  UNL     1      59.473  44.635  34.171  1.00  0.00     0.001 C
HETATM   16  C5  UNL     1      58.298  44.435  33.240  1.00  0.00     0.002 C
HETATM   17  C6  UNL     1      56.979  44.728  33.963  1.00  0.00     0.025 C
ENDBRANCH   8  11
ENDBRANCH   1   7
BRANCH   4  18
HETATM   18  S1  UNL     1      50.354  50.227  36.269  1.00  0.00     0.308 S
HETATM   19  O2  UNL     1      50.550  51.212  37.369  1.00  0.00    -0.188 OA
HETATM   20  O3  UNL     1      49.960  48.919  36.933  1.00  0.00    -0.188 OA
BRANCH  18  21
HETATM   21  N3  UNL     1      49.066  50.658  35.223  1.00  0.00    -0.187 NA
HETATM   22  C12 UNL     1      47.919  51.139  35.930  1.00  0.00     0.109 C
HETATM   23  C13 UNL     1      47.128  50.019  36.517  1.00  0.00     0.021 C
HETATM   24  C14 UNL     1      46.852  48.921  35.548  1.00  0.00     0.081 C
HETATM   25  C15 UNL     1      47.388  49.204  34.163  1.00  0.00     0.256 C
HETATM   26  F1  UNL     1      47.383  48.009  33.470  1.00  0.00    -0.205 F
HETATM   27  F2  UNL     1      46.522  50.061  33.482  1.00  0.00    -0.205 F
HETATM   28  C16 UNL     1      48.800  49.714  34.188  1.00  0.00     0.188 C
ENDBRANCH  18  21
ENDBRANCH   4  18
TORSDOF 4
ENDMDL