MODEL 4
REMARK VINA RESULT: -7.084284988      1.744      2.205
REMARK  4 active torsions:
REMARK  status: ('A' for Active; 'I' for Inactive)
REMARK    1  A    between atoms: C1_2  and  C2_3
REMARK       I    between atoms: C1_2  and  N1_6
REMARK    2  A    between atoms: C7_9  and  C8_10
REMARK    3  A    between atoms: C8_10  and  C9_11
REMARK    4  A    between atoms: C9_11  and  C10_12
REMARK       I    between atoms: N2_17  and  C13_18
REMARK       I    between atoms: C13_18  and  N3_20
ROOT
HETATM    1  C9  UNL     1      48.688  47.961  31.304  1.00  0.00     0.022 C
HETATM    2  C11 UNL     1      49.065  46.718  32.029  1.00  0.00     0.035 C
HETATM    3  C12 UNL     1      48.377  45.468  31.470  1.00  0.00     0.128 C
HETATM    4  N2  UNL     1      48.717  45.406  30.037  1.00  0.00    -0.334 N
HETATM    5  C13 UNL     1      49.486  44.344  29.548  1.00  0.00     0.320 C
HETATM    6  O2  UNL     1      49.866  43.496  30.444  1.00  0.00    -0.247 OA
HETATM    7  N3  UNL     1      49.901  44.062  28.246  1.00  0.00    -0.331 N
HETATM    8  C14 UNL     1      50.730  42.863  28.023  1.00  0.00     0.155 C
HETATM    9  C15 UNL     1      50.035  41.902  27.070  1.00  0.00     0.252 C
HETATM   10  N4  UNL     1      49.525  42.613  25.911  1.00  0.00    -0.072 N
ATOM     11  H41 UNL     1      48.506  42.603  25.885  1.00  0.00     0.277 HD
ATOM     12  H42 UNL     1      49.710  42.102  25.048  1.00  0.00     0.277 HD
HETATM   13  C16 UNL     1      50.042  43.954  25.851  1.00  0.00     0.252 C
HETATM   14  C17 UNL     1      49.606  44.806  27.046  1.00  0.00     0.155 C
HETATM   15  C18 UNL     1      48.171  46.514  29.284  1.00  0.00     0.128 C
HETATM   16  C19 UNL     1      47.675  47.606  30.175  1.00  0.00     0.035 C
ENDROOT
BRANCH   1  17
HETATM   17  C8  UNL     1      47.915  48.878  32.194  1.00  0.00     0.020 C
BRANCH  17  18
HETATM   18  C7  UNL     1      47.849  48.658  33.640  1.00  0.00    -0.011 C
HETATM   19  C6  UNL     1      48.993  49.485  34.263  1.00  0.00     0.024 C
HETATM   20  C5  UNL     1      48.533  50.316  35.425  1.00  0.00     0.126 C
HETATM   21  N1  UNL     1      47.777  49.535  36.377  1.00  0.00    -0.352 N
HETATM   22  C1  UNL     1      47.949  49.684  37.751  1.00  0.00     0.224 C
HETATM   23  C21 UNL     1      46.834  48.589  35.846  1.00  0.00     0.126 C
HETATM   24  O1  UNL     1      48.771  50.517  38.191  1.00  0.00    -0.273 OA
HETATM   25  C20 UNL     1      46.612  49.037  34.380  1.00  0.00     0.024 C
BRANCH  22  26
HETATM   26  C2  UNL     1      47.170  48.870  38.700  1.00  0.00     0.078 A
HETATM   27  C3  UNL     1      47.937  47.633  39.178  1.00  0.00     0.015 A
HETATM   28  C4  UNL     1      47.590  48.733  40.116  1.00  0.00     0.015 A
ENDBRANCH  22  26
ENDBRANCH  17  18
ENDBRANCH   1  17
BRANCH   1  29
HETATM   29  C10 UNL     1      49.791  48.676  30.592  1.00  0.00     0.361 C
HETATM   30  F1  UNL     1      50.151  49.892  31.128  1.00  0.00    -0.214 F
HETATM   31  F2  UNL     1      50.992  47.946  30.581  1.00  0.00    -0.214 F
ENDBRANCH   1  29
TORSDOF 4
ENDMDL