MODEL 4
REMARK VINA RESULT: -6.424061507      2.229      2.705
REMARK  3 active torsions:
REMARK  status: ('A' for Active; 'I' for Inactive)
REMARK    1  A    between atoms: O1_2  and  N1_3
REMARK    2  A    between atoms: N1_3  and  S1_5
REMARK    3  A    between atoms: S1_5  and  N2_8
ROOT
HETATM    1  N2  UNL     1      48.381  49.249  36.010  1.00  0.00    -0.187 NA
HETATM    2  C2  UNL     1      49.547  50.014  35.783  1.00  0.00     0.110 C
HETATM    3  C3  UNL     1      49.946  50.183  34.350  1.00  0.00     0.026 C
HETATM    4  C4  UNL     1      48.808  50.099  33.375  1.00  0.00    -0.019 C
HETATM    5  C5  UNL     1      49.009  48.986  32.406  1.00  0.00     0.028 C
HETATM    6  C6  UNL     1      49.656  49.956  31.416  1.00  0.00     0.073 C
HETATM    7 BR1  UNL     1      49.010  49.819  29.621  1.00  0.00    -0.090 Br
HETATM    8  C7  UNL     1      49.046  51.076  32.226  1.00  0.00     0.081 C
HETATM    9 BR2  UNL     1      47.423  51.805  31.486  1.00  0.00    -0.089 Br
HETATM   10  C8  UNL     1      47.479  50.309  33.969  1.00  0.00     0.014 C
HETATM   11  C9  UNL     1      46.304  49.572  33.431  1.00  0.00     0.009 C
HETATM   12  C10 UNL     1      46.617  48.473  34.425  1.00  0.00     0.022 C
HETATM   13  C11 UNL     1      47.235  49.577  35.257  1.00  0.00     0.080 C
ENDROOT
BRANCH   1  14
HETATM   14  S1  UNL     1      47.977  49.320  37.688  1.00  0.00     0.321 S
HETATM   15  O2  UNL     1      46.516  49.599  37.857  1.00  0.00    -0.186 OA
HETATM   16  O3  UNL     1      48.731  50.459  38.356  1.00  0.00    -0.186 OA
BRANCH  14  17
HETATM   17  N1  UNL     1      48.448  47.878  38.519  1.00  0.00    -0.179 N
ATOM     18  H1  UNL     1      48.479  46.939  38.122  1.00  0.00     0.208 HD
BRANCH  17  19
HETATM   19  O1  UNL     1      48.766  48.217  39.787  1.00  0.00    -0.275 OA
HETATM   20  C1  UNL     1      47.687  47.917  40.623  1.00  0.00     0.238 C
ENDBRANCH  17  19
ENDBRANCH  14  17
ENDBRANCH   1  14
TORSDOF 3
ENDMDL