MODEL 4
REMARK VINA RESULT: -7.524342796      2.206      6.538
REMARK  6 active torsions:
REMARK  status: ('A' for Active; 'I' for Inactive)
REMARK       I    between atoms: N2_8  and  C7_9
REMARK       I    between atoms: C7_9  and  N3_11
REMARK    1  A    between atoms: N3_11  and  C8_13
REMARK    2  A    between atoms: C8_13  and  C9_14
REMARK    3  A    between atoms: C8_13  and  C11_20
REMARK    4  A    between atoms: C9_14  and  C10_15
REMARK    5  A    between atoms: C10_15  and  N4_16
REMARK       I    between atoms: C11_20  and  N5_22
REMARK    6  A    between atoms: N5_22  and  C12_24
ROOT
HETATM    1  C8  UNL     1      18.782 -20.189 -19.776  1.00  0.00     0.179 C
ENDROOT
BRANCH   1   2
HETATM    2  N3  UNL     1      18.660 -21.626 -20.194  1.00  0.00    -0.330 N
HETATM    3  C7  UNL     1      18.287 -22.607 -19.239  1.00  0.00     0.319 C
HETATM    4  N2  UNL     1      18.163 -23.970 -19.605  1.00  0.00    -0.334 N
HETATM    5  O1  UNL     1      18.058 -22.295 -18.047  1.00  0.00    -0.247 OA
HETATM    6  C6  UNL     1      18.412 -24.370 -20.972  1.00  0.00     0.128 C
HETATM    7  C22 UNL     1      17.788 -25.001 -18.655  1.00  0.00     0.128 C
HETATM    8  C5  UNL     1      17.759 -25.713 -21.200  1.00  0.00     0.031 C
HETATM    9  C4  UNL     1      16.388 -25.680 -20.606  1.00  0.00    -0.009 C
HETATM   10  C3  UNL     1      15.507 -24.597 -21.182  1.00  0.00     0.041 C
HETATM   11  C23 UNL     1      16.421 -25.510 -19.098  1.00  0.00     0.031 C
HETATM   12  C24 UNL     1      15.550 -26.907 -20.908  1.00  0.00     0.281 C
HETATM   13  C2  UNL     1      14.123 -25.087 -20.764  1.00  0.00     0.272 C
HETATM   14  N1  UNL     1      14.259 -26.479 -20.395  1.00  0.00     0.085 N
HETATM   15  C1  UNL     1      13.244 -27.286 -21.031  1.00  0.00     0.309 C
ATOM     16  H3  UNL     1      18.845 -21.897 -21.160  1.00  0.00     0.165 HD
ENDBRANCH   1   2
BRANCH   1  17
HETATM   17  C9  UNL     1      19.910 -19.692 -20.613  1.00  0.00     0.062 C
BRANCH  17  18
HETATM   18  C10 UNL     1      20.893 -18.781 -19.998  1.00  0.00     0.232 C
BRANCH  18  19
HETATM   19  N4  UNL     1      20.777 -18.667 -18.553  1.00  0.00    -0.079 N
ATOM     20  H43 UNL     1      19.879 -18.254 -18.300  1.00  0.00     0.274 HD
ATOM     21  H42 UNL     1      20.671 -19.588 -18.130  1.00  0.00     0.274 HD
ATOM     22  H41 UNL     1      21.542 -18.156 -18.111  1.00  0.00     0.274 HD
ENDBRANCH  18  19
ENDBRANCH  17  18
ENDBRANCH   1  17
BRANCH   1  23
HETATM   23  C11 UNL     1      17.482 -19.532 -20.006  1.00  0.00     0.241 C
HETATM   24  O2  UNL     1      17.458 -18.569 -20.840  1.00  0.00    -0.271 OA
HETATM   25  N5  UNL     1      16.263 -19.870 -19.393  1.00  0.00    -0.350 N
ATOM     26  H5  UNL     1      16.278 -20.645 -18.731  1.00  0.00     0.163 HD
BRANCH  25  27
HETATM   27  C12 UNL     1      14.992 -19.223 -19.611  1.00  0.00     0.034 C
HETATM   28  C13 UNL     1      13.886 -20.095 -18.987  1.00  0.00     0.035 C
HETATM   29  C14 UNL     1      12.568 -19.411 -19.109  1.00  0.00    -0.012 C
HETATM   30  C15 UNL     1      12.617 -18.093 -18.367  1.00  0.00     0.009 C
HETATM   31  C19 UNL     1      12.213 -19.140 -20.543  1.00  0.00     0.009 C
HETATM   32  C16 UNL     1      13.619 -17.199 -19.019  1.00  0.00    -0.012 C
HETATM   33  C17 UNL     1      13.344 -16.988 -20.494  1.00  0.00     0.009 C
HETATM   34  C21 UNL     1      14.989 -17.877 -18.945  1.00  0.00     0.035 C
HETATM   35  C18 UNL     1      13.312 -18.329 -21.153  1.00  0.00    -0.012 C
HETATM   36  C20 UNL     1      14.633 -19.069 -21.069  1.00  0.00     0.035 C
ENDBRANCH  25  27
ENDBRANCH   1  23
TORSDOF 6
ENDMDL