MODEL 4
REMARK VINA RESULT: -7.170119935      1.064      1.756
REMARK  5 active torsions:
REMARK  status: ('A' for Active; 'I' for Inactive)
REMARK    1  A    between atoms: C5_6  and  C6_7
REMARK    2  A    between atoms: C5_6  and  N5_28
REMARK       I    between atoms: C6_7  and  N2_9
REMARK    3  A    between atoms: N2_9  and  C7_11
REMARK    4  A    between atoms: C7_11  and  N3_12
REMARK       I    between atoms: N3_12  and  C8_14
REMARK       I    between atoms: C8_14  and  N4_16
REMARK    5  A    between atoms: N4_16  and  C9_18
ROOT
HETATM    1  C7  UNL     1      16.485 -19.743 -18.695  1.00  0.00     0.251 C
ENDROOT
BRANCH   1   2
HETATM    2  N2  UNL     1      15.142 -20.211 -18.981  1.00  0.00    -0.341 N
HETATM    3  C6  UNL     1      14.497 -19.965 -20.218  1.00  0.00     0.279 C
HETATM    4  O1  UNL     1      15.135 -19.322 -21.077  1.00  0.00    -0.268 OA
ATOM      5  H2  UNL     1      14.642 -20.737 -18.264  1.00  0.00     0.164 HD
BRANCH   3   6
HETATM    6  C5  UNL     1      13.149 -20.439 -20.491  1.00  0.00     0.310 C
HETATM    7  N1  UNL     1      12.401 -19.474 -21.219  1.00  0.00    -0.376 N
HETATM    8  C1  UNL     1      12.570 -19.255 -22.585  1.00  0.00     0.146 C
HETATM    9  C2  UNL     1      11.011 -19.521 -20.801  1.00  0.00     0.119 C
HETATM   10  C3  UNL     1      10.983 -20.362 -19.539  1.00  0.00     0.024 C
HETATM   11  C4  UNL     1      12.405 -20.308 -19.130  1.00  0.00     0.076 C
BRANCH   6  12
HETATM   12  N5  UNL     1      13.001 -21.762 -20.998  1.00  0.00     0.127 N
HETATM   13  C19 UNL     1      12.903 -22.793 -19.961  1.00  0.00     0.276 C
HETATM   14  C20 UNL     1      12.356 -24.017 -20.726  1.00  0.00     0.030 C
HETATM   15  C21 UNL     1      13.323 -24.537 -21.739  1.00  0.00     0.003 C
HETATM   16  C22 UNL     1      13.740 -23.397 -22.646  1.00  0.00     0.030 C
HETATM   17  C23 UNL     1      14.190 -22.236 -21.743  1.00  0.00     0.276 C
ENDBRANCH   6  12
ENDBRANCH   3   6
ENDBRANCH   1   2
BRANCH   1  18
HETATM   18  N3  UNL     1      17.479 -20.579 -19.326  1.00  0.00    -0.327 N
HETATM   19  C8  UNL     1      17.330 -21.987 -19.356  1.00  0.00     0.318 C
HETATM   20  O2  UNL     1      16.315 -22.501 -18.823  1.00  0.00    -0.247 OA
HETATM   21  N4  UNL     1      18.281 -22.832 -19.965  1.00  0.00    -0.334 N
ATOM     22  H4  UNL     1      19.093 -22.387 -20.392  1.00  0.00     0.165 HD
ATOM     23  H3  UNL     1      18.298 -20.150 -19.755  1.00  0.00     0.165 HD
BRANCH  21  24
HETATM   24  C9  UNL     1      18.203 -24.259 -20.036  1.00  0.00     0.035 C
HETATM   25  C10 UNL     1      17.937 -24.915 -18.717  1.00  0.00     0.035 C
HETATM   26  C11 UNL     1      18.002 -26.413 -18.844  1.00  0.00    -0.012 C
HETATM   27  C12 UNL     1      19.285 -26.922 -19.412  1.00  0.00     0.009 C
HETATM   28  C16 UNL     1      16.827 -26.819 -19.736  1.00  0.00     0.009 C
HETATM   29  C13 UNL     1      19.471 -26.293 -20.786  1.00  0.00    -0.012 C
HETATM   30  C14 UNL     1      18.344 -26.707 -21.682  1.00  0.00     0.009 C
HETATM   31  C18 UNL     1      19.530 -24.802 -20.573  1.00  0.00     0.035 C
HETATM   32  C15 UNL     1      17.047 -26.187 -21.090  1.00  0.00    -0.012 C
HETATM   33  C17 UNL     1      17.148 -24.689 -21.033  1.00  0.00     0.035 C
ENDBRANCH  21  24
ENDBRANCH   1  18
TORSDOF 5
ENDMDL