MODEL 3
REMARK VINA RESULT: -8.619258957      0.903      1.150
REMARK  7 active torsions:
REMARK  status: ('A' for Active; 'I' for Inactive)
REMARK    1  A    between atoms: C2_2  and  C3_3
REMARK    2  A    between atoms: C3_3  and  C4_4
REMARK    3  A    between atoms: C4_4  and  C5_5
REMARK       I    between atoms: N1_15  and  C15_16
REMARK    4  A    between atoms: C15_16  and  C16_18
REMARK    5  A    between atoms: C16_18  and  C17_19
REMARK    6  A    between atoms: C17_19  and  C18_20
REMARK    7  A    between atoms: C20_23  and  C21_24
ROOT
HETATM    1  C5  UNL     1      13.156 -25.565 -20.284  1.00  0.00     0.043 C
HETATM    2  C6  UNL     1      12.465 -26.831 -20.097  1.00  0.00    -0.021 C
HETATM    3  C7  UNL     1      12.995 -28.178 -20.280  1.00  0.00    -0.029 C
HETATM    4  C8  UNL     1      14.133 -28.733 -19.501  1.00  0.00     0.038 C
HETATM    5  C9  UNL     1      15.552 -28.321 -20.030  1.00  0.00     0.084 C
HETATM    6  C10 UNL     1      15.359 -27.038 -20.562  1.00  0.00    -0.173 C
HETATM    7  C11 UNL     1      15.565 -25.782 -21.159  1.00  0.00     0.087 C
HETATM    8  C12 UNL     1      16.392 -24.836 -20.336  1.00  0.00     0.030 C
HETATM    9  C13 UNL     1      16.888 -23.718 -21.161  1.00  0.00     0.046 C
HETATM   10  C14 UNL     1      18.278 -23.263 -20.891  1.00  0.00     0.134 C
HETATM   11  N1  UNL     1      18.227 -21.860 -21.227  1.00  0.00    -0.345 N
HETATM   12  C15 UNL     1      19.398 -21.002 -21.412  1.00  0.00     0.243 C
HETATM   13  O1  UNL     1      19.180 -19.809 -21.701  1.00  0.00    -0.268 OA
HETATM   14  C19 UNL     1      16.875 -21.387 -21.362  1.00  0.00     0.169 C
HETATM   15  C20 UNL     1      15.987 -22.524 -20.900  1.00  0.00     0.143 C
HETATM   16  N3  UNL     1      14.813 -22.693 -21.690  1.00  0.00    -0.336 N
ATOM     17  H3  UNL     1      14.443 -21.850 -22.130  1.00  0.00     0.164 HD
HETATM   18  C22 UNL     1      14.083 -23.916 -21.941  1.00  0.00     0.246 C
HETATM   19  O4  UNL     1      13.254 -23.708 -22.901  1.00  0.00    -0.268 OA
HETATM   20  C23 UNL     1      14.107 -25.240 -21.358  1.00  0.00     0.010 C
ENDROOT
BRANCH  12  21
HETATM   21  C16 UNL     1      20.708 -21.543 -21.260  1.00  0.00     0.075 C
BRANCH  21  22
HETATM   22  C17 UNL     1      21.792 -21.528 -21.920  1.00  0.00     0.020 C
BRANCH  22  23
HETATM   23  C18 UNL     1      22.156 -21.018 -23.224  1.00  0.00     0.100 C
HETATM   24  N2  UNL     1      21.667 -21.659 -24.360  1.00  0.00    -0.115 NA
ENDBRANCH  22  23
ENDBRANCH  21  22
ENDBRANCH  12  21
BRANCH  15  25
HETATM   25  C21 UNL     1      15.719 -22.324 -19.462  1.00  0.00     0.204 C
HETATM   26  O2  UNL     1      14.660 -22.681 -18.895  1.00  0.00    -0.646 OA
HETATM   27  O3  UNL     1      16.685 -21.709 -18.698  1.00  0.00    -0.646 OA
ENDBRANCH  15  25
BRANCH   1  28
HETATM   28  C4  UNL     1      12.035 -24.501 -20.471  1.00  0.00     0.013 C
BRANCH  28  29
HETATM   29  C3  UNL     1      10.783 -24.905 -19.745  1.00  0.00     0.001 C
BRANCH  29  30
HETATM   30  C2  UNL     1       9.596 -24.836 -20.682  1.00  0.00    -0.005 C
HETATM   31  C1  UNL     1       8.514 -25.817 -20.317  1.00  0.00     0.005 C
ENDBRANCH  29  30
ENDBRANCH  28  29
ENDBRANCH   1  28
TORSDOF 7
ENDMDL