MODEL 3
REMARK VINA RESULT: -7.108533414      2.782      4.279
REMARK  7 active torsions:
REMARK  status: ('A' for Active; 'I' for Inactive)
REMARK       I    between atoms: C1_2  and  N1_3
REMARK    1  A    between atoms: C1_2  and  C13_21
REMARK    2  A    between atoms: N1_3  and  C2_5
REMARK       I    between atoms: N2_8  and  C5_9
REMARK    3  A    between atoms: C5_9  and  C6_11
REMARK    4  A    between atoms: C19_27  and  C20_28
REMARK    5  A    between atoms: C19_27  and  C21_31
REMARK    6  A    between atoms: C20_28  and  O3_29
REMARK    7  A    between atoms: C21_31  and  C22_32
ROOT
HETATM    1  O1  UNL     1      13.720 -24.270 -22.156  1.00  0.00    -0.273 OA
HETATM    2  C1  UNL     1      14.095 -25.229 -21.363  1.00  0.00     0.223 C
HETATM    3  N1  UNL     1      12.987 -25.739 -20.673  1.00  0.00    -0.356 N
ATOM      4  H1  UNL     1      13.154 -26.501 -20.015  1.00  0.00     0.162 HD
ENDROOT
BRANCH   3   5
HETATM    5  C2  UNL     1      11.620 -25.270 -20.819  1.00  0.00     0.087 C
HETATM    6  C3  UNL     1      11.485 -24.062 -19.918  1.00  0.00     0.045 C
HETATM    7  C4  UNL     1      10.152 -23.406 -20.017  1.00  0.00     0.127 C
HETATM    8  N2  UNL     1       9.102 -24.362 -20.327  1.00  0.00    -0.352 N
HETATM    9  C5  UNL     1       7.940 -23.902 -21.000  1.00  0.00     0.224 C
HETATM   10  C11 UNL     1       9.309 -25.731 -19.932  1.00  0.00     0.127 C
HETATM   11  O2  UNL     1       7.833 -22.699 -21.332  1.00  0.00    -0.273 OA
HETATM   12  C12 UNL     1      10.607 -26.318 -20.402  1.00  0.00     0.045 C
BRANCH   9  13
HETATM   13  C6  UNL     1       6.805 -24.801 -21.343  1.00  0.00     0.081 C
HETATM   14  C7  UNL     1       5.932 -24.197 -22.417  1.00  0.00     0.041 C
HETATM   15  C8  UNL     1       4.522 -24.756 -22.411  1.00  0.00     0.233 C
HETATM   16  N3  UNL     1       3.845 -24.453 -21.161  1.00  0.00    -0.075 N
HETATM   17  C9  UNL     1       4.794 -24.002 -20.160  1.00  0.00     0.233 C
ATOM     18  H32 UNL     1       3.089 -23.782 -21.295  1.00  0.00     0.277 HD
ATOM     19  H31 UNL     1       3.292 -25.243 -20.829  1.00  0.00     0.277 HD
HETATM   20  C10 UNL     1       5.936 -24.979 -20.110  1.00  0.00     0.041 C
ENDBRANCH   9  13
ENDBRANCH   3   5
BRANCH   2  21
HETATM   21  C13 UNL     1      15.478 -25.556 -21.351  1.00  0.00     0.093 C
HETATM   22  C14 UNL     1      15.771 -27.029 -21.381  1.00  0.00    -0.000 C
HETATM   23  C15 UNL     1      15.520 -27.808 -20.153  1.00  0.00     0.006 C
HETATM   24  C18 UNL     1      17.323 -26.933 -21.262  1.00  0.00     0.011 C
HETATM   25  C16 UNL     1      16.451 -27.145 -19.134  1.00  0.00     0.006 C
HETATM   26  C17 UNL     1      17.261 -26.131 -19.950  1.00  0.00    -0.003 C
HETATM   27  C19 UNL     1      16.416 -24.959 -20.354  1.00  0.00    -0.003 C
BRANCH  27  28
HETATM   28  C20 UNL     1      17.322 -23.950 -21.035  1.00  0.00     0.175 C
BRANCH  28  29
HETATM   29  O3  UNL     1      16.589 -23.083 -21.869  1.00  0.00    -0.400 OA
ATOM     30  H3  UNL     1      17.070 -22.283 -22.044  1.00  0.00     0.209 HD
ENDBRANCH  28  29
ENDBRANCH  27  28
BRANCH  27  31
HETATM   31  C21 UNL     1      15.796 -24.303 -19.188  1.00  0.00     0.017 C
BRANCH  31  32
HETATM   32  C22 UNL     1      16.798 -23.586 -18.324  1.00  0.00    -0.014 A
HETATM   33  C23 UNL     1      16.115 -22.991 -17.072  1.00  0.00     0.005 A
HETATM   34  C24 UNL     1      17.223 -23.995 -17.000  1.00  0.00     0.005 A
ENDBRANCH  31  32
ENDBRANCH  27  31
ENDBRANCH   2  21
TORSDOF 7
ENDMDL