MODEL 5
REMARK VINA RESULT: -7.488622431      3.008      7.563
REMARK  5 active torsions:
REMARK  status: ('A' for Active; 'I' for Inactive)
REMARK    1  A    between atoms: C2_2  and  C4_4
REMARK    2  A    between atoms: C4_4  and  N1_5
REMARK    3  A    between atoms: C4_4  and  C22_30
REMARK       I    between atoms: N1_5  and  C5_7
REMARK       I    between atoms: C5_7  and  N2_9
REMARK    4  A    between atoms: N2_9  and  C6_11
REMARK    5  A    between atoms: N3_23  and  C18_24
ROOT
HETATM    1  C18 UNL     1      19.804 -20.861 -22.753  1.00  0.00     0.191 C
HETATM    2  C19 UNL     1      19.922 -21.963 -23.772  1.00  0.00     0.048 C
HETATM    3  C20 UNL     1      21.149 -20.376 -22.448  1.00  0.00     0.084 C
HETATM    4  N4  UNL     1      22.232 -19.949 -22.193  1.00  0.00    -0.195 NA
ENDROOT
BRANCH   1   5
HETATM    5  N3  UNL     1      19.091 -21.225 -21.554  1.00  0.00    -0.324 N
HETATM    6  C16 UNL     1      18.198 -20.272 -20.930  1.00  0.00     0.037 C
HETATM    7  C8  UNL     1      17.101 -21.051 -20.291  1.00  0.00     0.020 C
HETATM    8  C15 UNL     1      17.405 -19.495 -21.965  1.00  0.00     0.036 C
HETATM    9  C17 UNL     1      19.018 -19.404 -20.050  1.00  0.00     0.039 C
HETATM   10  C7  UNL     1      17.541 -21.919 -19.155  1.00  0.00     0.042 C
HETATM   11  C9  UNL     1      15.976 -20.116 -20.113  1.00  0.00    -0.004 C
HETATM   12  C6  UNL     1      18.333 -23.034 -19.865  1.00  0.00     0.179 C
HETATM   13  C21 UNL     1      19.222 -22.486 -20.892  1.00  0.00     0.244 C
HETATM   14  O2  UNL     1      20.237 -23.162 -21.270  1.00  0.00    -0.271 OA
HETATM   15  C10 UNL     1      15.953 -19.267 -18.885  1.00  0.00     0.005 C
HETATM   16  C14 UNL     1      16.015 -19.339 -21.414  1.00  0.00    -0.008 C
HETATM   17  C11 UNL     1      14.742 -18.329 -19.071  1.00  0.00     0.000 C
HETATM   18  C12 UNL     1      15.262 -17.306 -20.094  1.00  0.00     0.000 C
HETATM   19  C13 UNL     1      15.514 -17.962 -21.397  1.00  0.00     0.005 C
BRANCH  12  20
HETATM   20  N2  UNL     1      17.386 -23.969 -20.381  1.00  0.00    -0.330 N
HETATM   21  C5  UNL     1      16.513 -24.864 -19.787  1.00  0.00     0.317 C
HETATM   22  N1  UNL     1      15.616 -25.629 -20.583  1.00  0.00    -0.328 N
HETATM   23  O1  UNL     1      16.473 -25.043 -18.546  1.00  0.00    -0.247 OA
ATOM     24  H1  UNL     1      15.601 -25.438 -21.585  1.00  0.00     0.165 HD
ATOM     25  H2  UNL     1      17.344 -23.980 -21.400  1.00  0.00     0.165 HD
BRANCH  22  26
HETATM   26  C4  UNL     1      14.730 -26.648 -20.093  1.00  0.00     0.190 C
BRANCH  26  27
HETATM   27  C2  UNL     1      13.437 -26.667 -20.887  1.00  0.00     0.011 C
HETATM   28  C1  UNL     1      13.299 -25.301 -21.588  1.00  0.00     0.012 C
HETATM   29  C3  UNL     1      12.224 -26.866 -20.046  1.00  0.00     0.012 C
ENDBRANCH  26  27
BRANCH  26  30
HETATM   30  C22 UNL     1      15.443 -27.937 -20.100  1.00  0.00     0.197 C
HETATM   31  O3  UNL     1      15.112 -28.786 -21.008  1.00  0.00    -0.646 OA
HETATM   32  O4  UNL     1      16.436 -28.343 -19.249  1.00  0.00    -0.646 OA
ENDBRANCH  26  30
ENDBRANCH  22  26
ENDBRANCH  12  20
ENDBRANCH   1   5
TORSDOF 5
ENDMDL