MODEL 5
REMARK VINA RESULT: -7.670412762      3.131      8.361
REMARK  4 active torsions:
REMARK  status: ('A' for Active; 'I' for Inactive)
REMARK       I    between atoms: C1_2  and  N2_4
REMARK       I    between atoms: N2_4  and  C2_6
REMARK       I    between atoms: C2_6  and  N3_8
REMARK    1  A    between atoms: N4_11  and  C5_12
REMARK    2  A    between atoms: C5_12  and  C6_13
REMARK    3  A    between atoms: C6_13  and  C7_14
REMARK       I    between atoms: C7_14  and  N5_16
REMARK    4  A    between atoms: N5_16  and  C8_18
ROOT
HETATM    1  C5  UNL     1      15.965 -20.059 -20.230  1.00  0.00     0.168 C
HETATM    2  C18 UNL     1      16.401 -18.614 -20.187  1.00  0.00     0.042 C
HETATM    3  C19 UNL     1      16.948 -18.752 -21.599  1.00  0.00     0.005 C
HETATM    4  C20 UNL     1      16.668 -20.216 -21.524  1.00  0.00     0.042 C
ENDROOT
BRANCH   1   5
HETATM    5  N4  UNL     1      14.519 -20.110 -20.364  1.00  0.00     0.101 N
HETATM    6  C4  UNL     1      13.851 -20.378 -19.122  1.00  0.00     0.293 C
HETATM    7  C3  UNL     1      13.065 -21.678 -19.130  1.00  0.00     0.158 C
HETATM    8  N3  UNL     1      12.160 -21.688 -20.241  1.00  0.00    -0.331 N
HETATM    9  C2  UNL     1      10.931 -22.431 -20.195  1.00  0.00     0.326 C
HETATM   10  C22 UNL     1      12.544 -20.914 -21.418  1.00  0.00     0.158 C
HETATM   11  N2  UNL     1      10.032 -22.445 -21.283  1.00  0.00    -0.263 N
HETATM   12  O2  UNL     1      10.673 -23.072 -19.158  1.00  0.00    -0.247 OA
HETATM   13  C1  UNL     1       8.836 -23.202 -21.170  1.00  0.00     0.336 C
ATOM     14  H2  UNL     1      10.238 -21.922 -22.134  1.00  0.00     0.174 HD
HETATM   15  N1  UNL     1       7.895 -23.238 -22.260  1.00  0.00    -0.040 NA
HETATM   16  O1  UNL     1       8.554 -23.858 -20.136  1.00  0.00    -0.251 OA
HETATM   17  C21 UNL     1      14.076 -20.954 -21.426  1.00  0.00     0.293 C
ENDBRANCH   1   5
BRANCH   1  18
HETATM   18  C6  UNL     1      16.402 -20.829 -19.052  1.00  0.00     0.144 C
BRANCH  18  19
HETATM   19  C7  UNL     1      17.092 -22.096 -19.295  1.00  0.00     0.220 C
HETATM   20  O3  UNL     1      18.314 -22.191 -19.129  1.00  0.00    -0.274 OA
HETATM   21  N5  UNL     1      16.362 -23.232 -19.724  1.00  0.00    -0.352 N
ATOM     22  H5  UNL     1      15.356 -23.118 -19.854  1.00  0.00     0.163 HD
BRANCH  21  23
HETATM   23  C8  UNL     1      16.914 -24.532 -19.992  1.00  0.00     0.034 C
HETATM   24  C9  UNL     1      17.458 -25.119 -18.677  1.00  0.00     0.035 C
HETATM   25  C10 UNL     1      18.166 -26.424 -18.894  1.00  0.00    -0.012 C
HETATM   26  C11 UNL     1      17.188 -27.403 -19.494  1.00  0.00     0.009 C
HETATM   27  C15 UNL     1      19.319 -26.132 -19.839  1.00  0.00     0.009 C
HETATM   28  C12 UNL     1      16.663 -26.825 -20.782  1.00  0.00    -0.012 C
HETATM   29  C13 UNL     1      17.809 -26.672 -21.746  1.00  0.00     0.009 C
HETATM   30  C17 UNL     1      15.939 -25.507 -20.548  1.00  0.00     0.035 C
HETATM   31  C14 UNL     1      18.790 -25.685 -21.159  1.00  0.00    -0.012 C
HETATM   32  C16 UNL     1      18.061 -24.368 -20.975  1.00  0.00     0.035 C
ENDBRANCH  21  23
ENDBRANCH  18  19
ENDBRANCH   1  18
TORSDOF 4
ENDMDL