MODEL 4
REMARK VINA RESULT: -7.337241878      3.344      5.906
REMARK  5 active torsions:
REMARK  status: ('A' for Active; 'I' for Inactive)
REMARK    1  A    between atoms: C5_5  and  N1_6
REMARK    2  A    between atoms: N1_6  and  S1_8
REMARK    3  A    between atoms: S1_8  and  C6_11
REMARK    4  A    between atoms: C6_11  and  C7_12
REMARK       I    between atoms: N2_17  and  C10_18
REMARK       I    between atoms: C10_18  and  N3_20
REMARK    5  A    between atoms: N3_20  and  C11_22
ROOT
HETATM    1  C1  UNL     1      13.059 -26.980 -19.820  1.00  0.00     0.016 C
HETATM    2  C2  UNL     1      14.199 -26.310 -20.591  1.00  0.00    -0.035 C
HETATM    3  C3  UNL     1      14.980 -27.479 -21.221  1.00  0.00     0.012 C
HETATM    4  C4  UNL     1      15.954 -27.791 -20.073  1.00  0.00     0.027 C
HETATM    5  C5  UNL     1      16.446 -26.358 -19.824  1.00  0.00     0.099 C
HETATM    6  C8  UNL     1      15.131 -25.635 -19.669  1.00  0.00     0.035 C
HETATM    7  C9  UNL     1      15.246 -24.161 -19.790  1.00  0.00     0.135 C
HETATM    8  N2  UNL     1      14.184 -23.500 -20.492  1.00  0.00    -0.334 N
HETATM    9  C10 UNL     1      14.282 -22.102 -20.727  1.00  0.00     0.318 C
HETATM   10  O5  UNL     1      13.332 -21.513 -21.352  1.00  0.00    -0.247 OA
HETATM   11  N3  UNL     1      15.410 -21.363 -20.280  1.00  0.00    -0.338 N
ATOM     12  H3  UNL     1      16.155 -21.852 -19.784  1.00  0.00     0.164 HD
HETATM   13  C18 UNL     1      13.018 -24.225 -20.969  1.00  0.00     0.128 C
HETATM   14  C19 UNL     1      13.594 -25.470 -21.659  1.00  0.00     0.029 C
ENDROOT
BRANCH  11  15
HETATM   15  C11 UNL     1      15.539 -19.938 -20.505  1.00  0.00     0.086 C
HETATM   16  C12 UNL     1      14.916 -19.162 -19.396  1.00  0.00     0.025 C
HETATM   17  C13 UNL     1      15.894 -18.286 -18.653  1.00  0.00     0.002 C
HETATM   18  C14 UNL     1      16.549 -17.252 -19.498  1.00  0.00     0.000 C
HETATM   19  C15 UNL     1      16.142 -17.260 -20.934  1.00  0.00     0.000 C
HETATM   20  C16 UNL     1      16.956 -18.313 -21.672  1.00  0.00     0.002 C
HETATM   21  C17 UNL     1      16.973 -19.552 -20.791  1.00  0.00     0.025 C
ENDBRANCH  11  15
BRANCH   5  22
HETATM   22  N1  UNL     1      17.173 -25.988 -20.999  1.00  0.00    -0.314 N
ATOM     23  H1  UNL     1      16.771 -25.996 -21.936  1.00  0.00     0.172 HD
BRANCH  22  24
HETATM   24  S1  UNL     1      18.788 -25.529 -20.666  1.00  0.00     0.236 S
HETATM   25  O1  UNL     1      19.286 -24.711 -21.826  1.00  0.00    -0.205 OA
HETATM   26  O2  UNL     1      18.935 -24.694 -19.437  1.00  0.00    -0.205 OA
BRANCH  24  27
HETATM   27  C6  UNL     1      19.856 -26.973 -20.578  1.00  0.00     0.275 C
BRANCH  27  28
HETATM   28  C7  UNL     1      20.137 -27.314 -19.169  1.00  0.00     0.188 C
HETATM   29  O3  UNL     1      19.231 -27.636 -18.364  1.00  0.00    -0.647 OA
HETATM   30  O4  UNL     1      21.436 -27.278 -18.699  1.00  0.00    -0.647 OA
ENDBRANCH  27  28
ENDBRANCH  24  27
ENDBRANCH  22  24
ENDBRANCH   5  22
TORSDOF 5
ENDMDL