MODEL 1
REMARK VINA RESULT: -7.787397755      0.000      0.000
REMARK  8 active torsions:
REMARK  status: ('A' for Active; 'I' for Inactive)
REMARK    1  A    between atoms: C3_3  and  C4_4
REMARK       I    between atoms: C4_4  and  N1_6
REMARK    2  A    between atoms: C8_10  and  C9_11
REMARK    3  A    between atoms: C9_11  and  O2_12
REMARK    4  A    between atoms: N2_18  and  C14_19
REMARK    5  A    between atoms: C14_19  and  C15_20
REMARK    6  A    between atoms: C15_20  and  N3_21
REMARK    7  A    between atoms: N3_21  and  C16_23
REMARK    8  A    between atoms: C22_29  and  O3_30
ROOT
HETATM    1  C1  UNL     1      12.906 -24.108 -21.335  1.00  0.00     0.033 C
HETATM    2  C2  UNL     1      12.225 -25.414 -20.995  1.00  0.00     0.092 C
HETATM    3  C3  UNL     1      11.564 -25.221 -19.644  1.00  0.00     0.100 C
HETATM    4  C10 UNL     1      10.840 -26.444 -19.180  1.00  0.00     0.016 C
HETATM    5  C11 UNL     1      11.859 -27.431 -18.625  1.00  0.00     0.002 C
HETATM    6  C12 UNL     1      12.121 -28.458 -19.695  1.00  0.00     0.020 C
HETATM    7  C13 UNL     1      12.240 -27.786 -21.034  1.00  0.00     0.122 C
HETATM    8  N2  UNL     1      12.966 -26.571 -21.048  1.00  0.00    -0.384 N
ENDROOT
BRANCH   8   9
HETATM    9  C14 UNL     1      14.318 -26.684 -21.340  1.00  0.00     0.102 C
BRANCH   9  10
HETATM   10  C15 UNL     1      15.276 -26.580 -20.169  1.00  0.00     0.100 C
BRANCH  10  11
HETATM   11  N3  UNL     1      16.374 -25.763 -20.275  1.00  0.00    -0.388 N
ATOM     12  H3  UNL     1      17.180 -26.174 -20.747  1.00  0.00     0.159 HD
BRANCH  11  13
HETATM   13  C16 UNL     1      16.545 -24.476 -19.837  1.00  0.00     0.036 C
HETATM   14  C17 UNL     1      16.777 -23.406 -20.871  1.00  0.00     0.036 C
HETATM   15  C18 UNL     1      17.499 -22.361 -20.035  1.00  0.00    -0.009 C
HETATM   16  C19 UNL     1      18.648 -23.260 -19.543  1.00  0.00     0.012 C
HETATM   17  C23 UNL     1      16.686 -21.895 -18.869  1.00  0.00     0.042 C
HETATM   18  C20 UNL     1      17.833 -24.397 -18.974  1.00  0.00     0.017 C
HETATM   19  C21 UNL     1      17.373 -23.956 -17.601  1.00  0.00     0.045 C
HETATM   20  C22 UNL     1      16.234 -23.039 -17.999  1.00  0.00     0.061 C
HETATM   21  C24 UNL     1      15.457 -24.002 -18.914  1.00  0.00     0.069 C
BRANCH  20  22
HETATM   22  O3  UNL     1      15.488 -22.599 -16.939  1.00  0.00    -0.390 OA
ATOM     23  H3  UNL     1      15.335 -21.662 -16.945  1.00  0.00     0.210 HD
ENDBRANCH  20  22
ENDBRANCH  11  13
ENDBRANCH  10  11
ENDBRANCH   9  10
ENDBRANCH   8   9
BRANCH   3  24
HETATM   24  C4  UNL     1      10.710 -24.036 -19.573  1.00  0.00     0.226 C
HETATM   25  O1  UNL     1      11.178 -22.991 -18.960  1.00  0.00    -0.273 OA
HETATM   26  N1  UNL     1       9.411 -23.889 -20.102  1.00  0.00    -0.345 N
HETATM   27  C5  UNL     1       8.649 -22.623 -19.977  1.00  0.00     0.126 C
HETATM   28  C8  UNL     1       8.509 -24.739 -20.808  1.00  0.00     0.110 C
HETATM   29  C6  UNL     1       7.918 -22.522 -21.311  1.00  0.00     0.022 C
HETATM   30  C7  UNL     1       8.161 -23.845 -22.010  1.00  0.00     0.029 C
BRANCH  28  31
HETATM   31  C9  UNL     1       7.199 -24.951 -20.065  1.00  0.00     0.189 C
BRANCH  31  32
HETATM   32  O2  UNL     1       7.153 -26.171 -19.417  1.00  0.00    -0.399 OA
ATOM     33  H2  UNL     1       6.896 -26.879 -19.997  1.00  0.00     0.209 HD
ENDBRANCH  31  32
ENDBRANCH  28  31
ENDBRANCH   3  24
TORSDOF 8
ENDMDL