MODEL 3
REMARK VINA RESULT: -8.291695392      1.367      1.613
REMARK  5 active torsions:
REMARK  status: ('A' for Active; 'I' for Inactive)
REMARK    1  A    between atoms: N1_1  and  S1_4
REMARK    2  A    between atoms: S1_4  and  N2_7
REMARK    3  A    between atoms: N2_7  and  C1_9
REMARK    4  A    between atoms: C8_16  and  C9_17
REMARK       I    between atoms: C9_17  and  N3_19
REMARK    5  A    between atoms: N3_19  and  C10_21
ROOT
HETATM    1  C1  UNL     1      17.988 -19.532 -20.021  1.00  0.00     0.186 C
HETATM    2  C2  UNL     1      19.166 -20.438 -19.761  1.00  0.00     0.035 C
HETATM    3  C3  UNL     1      19.055 -21.777 -20.419  1.00  0.00     0.004 C
HETATM    4  C4  UNL     1      18.417 -21.664 -21.781  1.00  0.00     0.025 C
HETATM    5  C5  UNL     1      17.016 -22.237 -21.663  1.00  0.00     0.088 C
HETATM    6  C6  UNL     1      16.313 -22.397 -22.968  1.00  0.00     0.028 C
HETATM    7  C7  UNL     1      14.931 -21.830 -22.777  1.00  0.00     0.037 C
HETATM    8  C8  UNL     1      14.858 -21.486 -21.286  1.00  0.00     0.179 C
HETATM    9  N4  UNL     1      16.235 -21.260 -20.902  1.00  0.00    -0.332 N
HETATM   10  C19 UNL     1      16.698 -20.277 -19.973  1.00  0.00     0.244 C
HETATM   11  O4  UNL     1      15.888 -20.067 -19.046  1.00  0.00    -0.271 OA
ENDROOT
BRANCH   8  12
HETATM   12  C9  UNL     1      14.271 -22.680 -20.636  1.00  0.00     0.241 C
HETATM   13  O3  UNL     1      14.626 -22.951 -19.457  1.00  0.00    -0.271 OA
HETATM   14  N3  UNL     1      13.346 -23.462 -21.353  1.00  0.00    -0.355 N
ATOM     15  H3  UNL     1      13.111 -23.173 -22.302  1.00  0.00     0.162 HD
BRANCH  14  16
HETATM   16  C10 UNL     1      12.699 -24.663 -20.821  1.00  0.00     0.084 C
HETATM   17  C11 UNL     1      13.092 -25.840 -21.611  1.00  0.00     0.025 C
HETATM   18  C12 UNL     1      14.002 -26.828 -20.970  1.00  0.00     0.002 C
HETATM   19  C13 UNL     1      13.612 -27.343 -19.630  1.00  0.00     0.000 C
HETATM   20  C14 UNL     1      12.477 -28.297 -19.597  1.00  0.00     0.000 C
HETATM   21  C15 UNL     1      11.117 -27.779 -19.859  1.00  0.00     0.000 C
HETATM   22  C16 UNL     1      10.836 -26.409 -19.345  1.00  0.00     0.000 C
HETATM   23  C17 UNL     1      10.313 -25.481 -20.442  1.00  0.00     0.002 C
HETATM   24  C18 UNL     1      11.244 -24.375 -20.697  1.00  0.00     0.025 C
ENDBRANCH  14  16
ENDBRANCH   8  12
BRANCH   1  25
HETATM   25  N2  UNL     1      17.982 -18.501 -19.003  1.00  0.00    -0.289 N
ATOM     26  H2  UNL     1      17.346 -18.490 -18.206  1.00  0.00     0.174 HD
BRANCH  25  27
HETATM   27  S1  UNL     1      19.174 -17.299 -19.298  1.00  0.00     0.313 S
HETATM   28  O1  UNL     1      18.546 -15.935 -19.140  1.00  0.00    -0.183 OA
HETATM   29  O2  UNL     1      19.720 -17.363 -20.696  1.00  0.00    -0.183 OA
BRANCH  27  30
HETATM   30  N1  UNL     1      20.505 -17.433 -18.206  1.00  0.00    -0.312 N
ATOM     31  H12 UNL     1      20.479 -17.926 -17.314  1.00  0.00     0.170 HD
ATOM     32  H11 UNL     1      21.307 -16.941 -18.601  1.00  0.00     0.170 HD
ENDBRANCH  27  30
ENDBRANCH  25  27
ENDBRANCH   1  25
TORSDOF 5
ENDMDL