MODEL 2
REMARK VINA RESULT: -7.417048732      3.925      6.798
REMARK  6 active torsions:
REMARK  status: ('A' for Active; 'I' for Inactive)
REMARK    1  A    between atoms: S1_2  and  N1_5
REMARK    2  A    between atoms: N1_5  and  C2_6
REMARK    3  A    between atoms: N1_5  and  C5_13
REMARK    4  A    between atoms: C2_6  and  C3_7
REMARK    5  A    between atoms: C3_7  and  C4_8
REMARK    6  A    between atoms: C4_8  and  N2_9
REMARK       I    between atoms: N3_16  and  C8_17
ROOT
HETATM    1  C5  UNL     1      15.471 -20.477 -20.438  1.00  0.00     0.086 C
HETATM    2  C6  UNL     1      16.073 -19.919 -21.719  1.00  0.00     0.041 C
HETATM    3  C7  UNL     1      17.553 -20.083 -21.638  1.00  0.00     0.127 C
HETATM    4  N3  UNL     1      18.052 -21.037 -20.710  1.00  0.00    -0.355 N
HETATM    5  C8  UNL     1      19.470 -21.098 -20.587  1.00  0.00     0.183 C
HETATM    6  N4  UNL     1      20.117 -22.184 -20.372  1.00  0.00    -0.374 N
ATOM      7  H41 UNL     1      21.132 -22.228 -20.284  1.00  0.00     0.158 HD
ATOM      8  H42 UNL     1      19.562 -23.036 -20.289  1.00  0.00     0.158 HD
HETATM    9  N5  UNL     1      20.243 -19.911 -20.703  1.00  0.00    -0.064 NA
HETATM   10  C9  UNL     1      17.273 -21.917 -19.902  1.00  0.00     0.137 C
HETATM   11  C10 UNL     1      15.786 -21.903 -20.347  1.00  0.00     0.000 C
HETATM   12  C11 UNL     1      15.818 -22.715 -21.611  1.00  0.00    -0.002 C
HETATM   13  C12 UNL     1      14.483 -23.177 -22.123  1.00  0.00     0.010 C
HETATM   14  C13 UNL     1      13.598 -23.786 -21.105  1.00  0.00    -0.014 C
HETATM   15  C14 UNL     1      13.742 -25.276 -21.024  1.00  0.00     0.005 C
HETATM   16  C15 UNL     1      15.074 -25.792 -20.730  1.00  0.00     0.005 C
HETATM   17  C16 UNL     1      16.114 -24.844 -20.279  1.00  0.00    -0.014 C
HETATM   18  C17 UNL     1      16.621 -23.996 -21.420  1.00  0.00     0.010 C
HETATM   19  C18 UNL     1      15.795 -24.054 -19.059  1.00  0.00     0.010 C
HETATM   20  C19 UNL     1      15.055 -22.737 -19.340  1.00  0.00    -0.002 C
HETATM   21  C20 UNL     1      13.672 -23.165 -19.746  1.00  0.00     0.010 C
ENDROOT
BRANCH   1  22
HETATM   22  N1  UNL     1      14.183 -19.933 -20.096  1.00  0.00    -0.205 NA
BRANCH  22  23
HETATM   23  S1  UNL     1      14.432 -18.382 -19.275  1.00  0.00     0.208 S
HETATM   24  C1  UNL     1      14.132 -17.006 -20.274  1.00  0.00     0.180 C
HETATM   25  O1  UNL     1      13.490 -18.377 -18.116  1.00  0.00    -0.212 OA
HETATM   26  O2  UNL     1      15.802 -18.385 -18.627  1.00  0.00    -0.212 OA
ENDBRANCH  22  23
BRANCH  22  27
HETATM   27  C2  UNL     1      13.332 -19.712 -21.238  1.00  0.00     0.109 C
BRANCH  27  28
HETATM   28  C3  UNL     1      11.974 -20.222 -21.289  1.00  0.00     0.043 C
BRANCH  28  29
HETATM   29  C4  UNL     1      10.939 -19.576 -20.407  1.00  0.00     0.230 C
BRANCH  29  30
HETATM   30  N2  UNL     1      11.060 -19.943 -19.027  1.00  0.00    -0.079 N
ATOM     31  H23 UNL     1      10.299 -20.564 -18.750  1.00  0.00     0.274 HD
ATOM     32  H22 UNL     1      11.851 -20.571 -18.887  1.00  0.00     0.274 HD
ATOM     33  H21 UNL     1      11.119 -19.141 -18.400  1.00  0.00     0.274 HD
ENDBRANCH  29  30
ENDBRANCH  28  29
ENDBRANCH  27  28
ENDBRANCH  22  27
ENDBRANCH   1  22
TORSDOF 6
ENDMDL