MODEL 3
REMARK VINA RESULT: -6.725483795      1.344      1.580
REMARK  8 active torsions:
REMARK  status: ('A' for Active; 'I' for Inactive)
REMARK    1  A    between atoms: C5_6  and  O1_7
REMARK    2  A    between atoms: C9_12  and  O2_13
REMARK    3  A    between atoms: O2_13  and  C10_14
REMARK    4  A    between atoms: C11_16  and  C12_17
REMARK    5  A    between atoms: C12_17  and  O4_18
REMARK    6  A    between atoms: C13_20  and  O5_21
REMARK    7  A    between atoms: C14_23  and  O6_24
REMARK    8  A    between atoms: C15_26  and  O7_27
ROOT
HETATM    1  C10 UNL     1      19.369 -44.688 -73.583  1.00  0.00     0.292 C
HETATM    2  O3  UNL     1      19.274 -45.605 -74.602  1.00  0.00    -0.348 OA
HETATM    3  C11 UNL     1      18.729 -46.813 -74.242  1.00  0.00     0.179 C
HETATM    4  C13 UNL     1      17.384 -46.679 -73.567  1.00  0.00     0.180 C
HETATM    5  C14 UNL     1      17.319 -45.545 -72.594  1.00  0.00     0.183 C
HETATM    6  C15 UNL     1      17.947 -44.292 -73.187  1.00  0.00     0.204 C
ENDROOT
BRANCH   1   7
HETATM    7  O2  UNL     1      20.032 -43.561 -73.967  1.00  0.00    -0.353 OA
BRANCH   7   8
HETATM    8  C9  UNL     1      21.184 -43.278 -73.294  1.00  0.00     0.132 C
HETATM    9  C8  UNL     1      21.666 -44.370 -72.384  1.00  0.00     0.039 C
HETATM   10  C7  UNL     1      23.181 -44.348 -72.464  1.00  0.00     0.029 C
HETATM   11  C6  UNL     1      23.451 -43.007 -73.160  1.00  0.00     0.030 C
HETATM   12  C17 UNL     1      23.701 -45.309 -73.528  1.00  0.00     0.234 C
HETATM   13  C5  UNL     1      24.836 -43.175 -73.674  1.00  0.00     0.129 C
HETATM   14  C16 UNL     1      22.384 -43.082 -74.233  1.00  0.00     0.055 C
HETATM   15  C4  UNL     1      24.723 -44.560 -74.328  1.00  0.00     0.050 C
HETATM   16  C3  UNL     1      24.007 -44.283 -75.657  1.00  0.00     0.045 C
HETATM   17  C2  UNL     1      22.569 -44.249 -75.147  1.00  0.00     0.230 C
HETATM   18  N1  UNL     1      22.549 -45.522 -74.422  1.00  0.00     0.094 N
HETATM   19  C1  UNL     1      22.888 -46.605 -75.286  1.00  0.00     0.310 C
BRANCH  13  20
HETATM   20  O1  UNL     1      25.715 -43.182 -72.620  1.00  0.00    -0.395 OA
ATOM     21  H1  UNL     1      25.856 -44.060 -72.286  1.00  0.00     0.210 HD
ENDBRANCH  13  20
ENDBRANCH   7   8
ENDBRANCH   1   7
BRANCH   6  22
HETATM   22  O7  UNL     1      17.203 -43.869 -74.260  1.00  0.00    -0.388 OA
ATOM     23  H7  UNL     1      17.114 -42.923 -74.289  1.00  0.00     0.210 HD
ENDBRANCH   6  22
BRANCH   3  24
HETATM   24  C12 UNL     1      19.697 -47.677 -73.459  1.00  0.00     0.198 C
BRANCH  24  25
HETATM   25  O4  UNL     1      19.574 -48.999 -73.820  1.00  0.00    -0.398 OA
ATOM     26  H4  UNL     1      19.911 -49.143 -74.696  1.00  0.00     0.209 HD
ENDBRANCH  24  25
ENDBRANCH   3  24
BRANCH   5  27
HETATM   27  O6  UNL     1      17.914 -45.883 -71.383  1.00  0.00    -0.390 OA
ATOM     28  H6  UNL     1      18.859 -45.799 -71.426  1.00  0.00     0.210 HD
ENDBRANCH   5  27
BRANCH   4  29
HETATM   29  O5  UNL     1      16.993 -47.841 -72.924  1.00  0.00    -0.390 OA
ATOM     30  H5  UNL     1      16.733 -48.524 -73.530  1.00  0.00     0.210 HD
ENDBRANCH   4  29
TORSDOF 8
ENDMDL