MODEL 3
REMARK VINA RESULT: -6.837718178      2.570      3.266
REMARK  6 active torsions:
REMARK  status: ('A' for Active; 'I' for Inactive)
REMARK    1  A    between atoms: O1_2  and  N1_3
REMARK    2  A    between atoms: N1_3  and  C2_5
REMARK    3  A    between atoms: N2_6  and  C3_7
REMARK    4  A    between atoms: C6_15  and  C7_16
REMARK    5  A    between atoms: C12_28  and  O3_29
REMARK    6  A    between atoms: O3_29  and  C13_30
ROOT
HETATM    1  C2  UNL     1      19.803 -44.977 -72.519  1.00  0.00     0.145 C
HETATM    2  N2  UNL     1      19.995 -46.192 -73.214  1.00  0.00    -0.295 N
HETATM    3  C10 UNL     1      21.354 -45.808 -73.500  1.00  0.00     0.335 C
HETATM    4  N7  UNL     1      21.624 -45.278 -74.791  1.00  0.00    -0.047 N
ATOM      5  H71 UNL     1      21.290 -45.760 -75.625  1.00  0.00     0.279 HD
ATOM      6  H72 UNL     1      22.571 -45.297 -75.169  1.00  0.00     0.279 HD
HETATM    7  C11 UNL     1      21.018 -44.012 -74.374  1.00  0.00     0.285 C
HETATM    8  C12 UNL     1      21.118 -44.456 -72.972  1.00  0.00     0.191 C
ENDROOT
BRANCH   2   9
HETATM    9  C3  UNL     1      19.226 -47.380 -73.554  1.00  0.00     0.310 C
HETATM   10  N3  UNL     1      19.046 -47.341 -74.979  1.00  0.00    -0.334 N
HETATM   11  C4  UNL     1      18.168 -47.678 -75.824  1.00  0.00     0.163 A
ATOM     12  H3  UNL     1      19.855 -46.923 -75.439  1.00  0.00     0.165 HD
HETATM   13  N4  UNL     1      17.755 -47.761 -77.101  1.00  0.00    -0.242 N
HETATM   14  C5  UNL     1      16.948 -48.278 -75.500  1.00  0.00     0.168 A
HETATM   15  O2  UNL     1      16.649 -48.310 -76.759  1.00  0.00    -0.230 OA
ATOM     16  H4  UNL     1      18.164 -47.491 -77.996  1.00  0.00     0.196 HD
HETATM   17  C6  UNL     1      16.455 -48.610 -74.317  1.00  0.00     0.069 C
HETATM   18  N5  UNL     1      17.123 -48.392 -73.083  1.00  0.00    -0.303 N
HETATM   19  N6  UNL     1      18.033 -47.375 -72.778  1.00  0.00    -0.295 N
ATOM     20  H5  UNL     1      16.916 -49.053 -72.334  1.00  0.00     0.186 HD
ATOM     21  H6  UNL     1      17.854 -46.680 -72.053  1.00  0.00     0.184 HD
BRANCH  17  22
HETATM   22  C7  UNL     1      15.144 -49.236 -74.226  1.00  0.00     0.040 A
HETATM   23  C8  UNL     1      14.208 -49.397 -75.340  1.00  0.00     0.011 A
HETATM   24  C9  UNL     1      15.086 -50.577 -75.012  1.00  0.00     0.011 A
ENDBRANCH  17  22
ENDBRANCH   2   9
BRANCH   1  25
HETATM   25  N1  UNL     1      18.877 -44.510 -71.793  1.00  0.00    -0.252 N
ATOM     26  H1  UNL     1      19.082 -44.257 -70.827  1.00  0.00     0.196 HD
BRANCH  25  27
HETATM   27  O1  UNL     1      17.629 -44.340 -72.267  1.00  0.00    -0.284 OA
HETATM   28  C1  UNL     1      17.276 -43.874 -73.539  1.00  0.00     0.237 C
ENDBRANCH  25  27
ENDBRANCH   1  25
BRANCH   8  29
HETATM   29  O3  UNL     1      21.805 -43.896 -72.020  1.00  0.00    -0.357 OA
BRANCH  29  30
HETATM   30  C13 UNL     1      22.772 -42.987 -72.123  1.00  0.00     0.052 C
HETATM   31  C14 UNL     1      23.146 -42.618 -70.667  1.00  0.00     0.045 C
HETATM   32  C15 UNL     1      24.072 -43.459 -72.732  1.00  0.00     0.045 C
HETATM   33  C16 UNL     1      22.438 -41.669 -72.769  1.00  0.00     0.045 C
ENDBRANCH  29  30
ENDBRANCH   8  29
TORSDOF 6
ENDMDL