MODEL 1
REMARK VINA RESULT: -6.727539679      0.000      0.000
REMARK  9 active torsions:
REMARK  status: ('A' for Active; 'I' for Inactive)
REMARK    1  A    between atoms: C3_3  and  O1_4
REMARK    2  A    between atoms: C5_6  and  C6_7
REMARK    3  A    between atoms: C6_7  and  O2_8
REMARK    4  A    between atoms: C11_17  and  C12_18
REMARK    5  A    between atoms: C12_18  and  O4_19
REMARK    6  A    between atoms: C12_18  and  C13_21
REMARK    7  A    between atoms: C13_21  and  O5_24
REMARK    8  A    between atoms: C16_26  and  O6_27
REMARK    9  A    between atoms: C17_29  and  O7_30
ROOT
HETATM    1  C1  UNL     1      22.607 -43.583 -75.852  1.00  0.00     0.100 C
HETATM    2  C2  UNL     1      22.755 -44.359 -74.921  1.00  0.00    -0.147 C
HETATM    3  C3  UNL     1      22.969 -45.275 -73.820  1.00  0.00     0.148 C
HETATM    4  C5  UNL     1      21.781 -45.861 -73.191  1.00  0.00     0.094 C
HETATM    5  C7  UNL     1      21.370 -47.250 -73.578  1.00  0.00     0.098 A
HETATM    6  N1  UNL     1      20.244 -47.713 -72.872  1.00  0.00    -0.382 N
ATOM      7  H1  UNL     1      20.114 -47.882 -71.874  1.00  0.00     0.160 HD
HETATM    8  C8  UNL     1      19.411 -47.862 -73.873  1.00  0.00     0.095 A
HETATM    9  C9  UNL     1      20.469 -47.411 -74.748  1.00  0.00     0.010 A
HETATM   10  C10 UNL     1      21.044 -47.115 -75.895  1.00  0.00     0.147 C
HETATM   11  O3  UNL     1      22.380 -46.716 -75.760  1.00  0.00    -0.343 OA
HETATM   12  C11 UNL     1      23.317 -47.434 -74.928  1.00  0.00     0.153 C
HETATM   13  C16 UNL     1      24.044 -46.320 -74.174  1.00  0.00     0.205 C
HETATM   14  C17 UNL     1      22.533 -48.148 -73.872  1.00  0.00     0.192 C
ENDROOT
BRANCH   3  15
HETATM   15  O1  UNL     1      23.626 -44.486 -72.828  1.00  0.00    -0.370 OA
HETATM   16  C4  UNL     1      24.603 -43.673 -73.366  1.00  0.00     0.204 C
ENDBRANCH   3  15
BRANCH   4  17
HETATM   17  C6  UNL     1      20.648 -44.906 -73.145  1.00  0.00     0.175 C
BRANCH  17  18
HETATM   18  O2  UNL     1      19.959 -44.771 -71.982  1.00  0.00    -0.400 OA
ATOM     19  H2  UNL     1      19.121 -44.323 -72.000  1.00  0.00     0.209 HD
ENDBRANCH  17  18
ENDBRANCH   4  17
BRANCH  13  20
HETATM   20  O6  UNL     1      24.523 -46.755 -72.940  1.00  0.00    -0.388 OA
ATOM     21  H6  UNL     1      25.440 -46.950 -73.099  1.00  0.00     0.210 HD
ENDBRANCH  13  20
BRANCH  12  22
HETATM   22  C12 UNL     1      24.120 -48.222 -75.853  1.00  0.00     0.192 C
BRANCH  22  23
HETATM   23  O4  UNL     1      25.255 -48.666 -75.175  1.00  0.00    -0.389 OA
ATOM     24  H4  UNL     1      25.801 -49.141 -75.790  1.00  0.00     0.210 HD
ENDBRANCH  22  23
BRANCH  22  25
HETATM   25  C13 UNL     1      24.468 -47.737 -77.186  1.00  0.00     0.079 C
HETATM   26  C14 UNL     1      25.696 -48.550 -77.647  1.00  0.00     0.048 C
HETATM   27  C15 UNL     1      24.887 -46.296 -77.294  1.00  0.00     0.048 C
BRANCH  25  28
HETATM   28  O5  UNL     1      23.532 -47.959 -78.172  1.00  0.00    -0.388 OA
ATOM     29  H5  UNL     1      23.875 -48.117 -79.044  1.00  0.00     0.210 HD
ENDBRANCH  25  28
ENDBRANCH  22  25
ENDBRANCH  12  22
BRANCH  14  30
HETATM   30  O7  UNL     1      22.166 -49.429 -74.197  1.00  0.00    -0.389 OA
ATOM     31  H7  UNL     1      22.897 -49.979 -74.452  1.00  0.00     0.210 HD
ENDBRANCH  14  30
TORSDOF 9
ENDMDL