MODEL 4
REMARK VINA RESULT: -6.545646781      2.608      6.047
REMARK  7 active torsions:
REMARK  status: ('A' for Active; 'I' for Inactive)
REMARK    1  A    between atoms: N1_2  and  C2_4
REMARK    2  A    between atoms: N2_9  and  C7_10
REMARK    3  A    between atoms: C7_10  and  C8_11
REMARK    4  A    between atoms: C15_19  and  O2_20
REMARK    5  A    between atoms: C16_22  and  O3_23
REMARK    6  A    between atoms: C17_25  and  O4_26
REMARK    7  A    between atoms: C18_28  and  O5_29
ROOT
HETATM    1  C2  UNL     1      23.044 -48.231 -74.689  1.00  0.00     0.112 C
HETATM    2  C3  UNL     1      21.675 -47.814 -75.099  1.00  0.00     0.019 C
HETATM    3  C4  UNL     1      20.601 -48.435 -74.213  1.00  0.00     0.012 C
HETATM    4  C5  UNL     1      19.279 -47.775 -74.347  1.00  0.00     0.045 C
HETATM    5  C6  UNL     1      18.993 -46.638 -73.447  1.00  0.00     0.058 C
HETATM    6  N2  UNL     1      19.892 -45.559 -73.400  1.00  0.00    -0.385 N
HETATM    7  C11 UNL     1      21.277 -45.846 -73.558  1.00  0.00     0.131 C
HETATM    8  C12 UNL     1      21.444 -46.354 -75.000  1.00  0.00     0.050 C
HETATM    9  C13 UNL     1      22.591 -45.517 -75.498  1.00  0.00     0.169 C
HETATM   10  O1  UNL     1      22.235 -44.302 -74.895  1.00  0.00    -0.363 OA
HETATM   11  C14 UNL     1      22.227 -44.756 -73.544  1.00  0.00     0.147 A
HETATM   12  C15 UNL     1      23.189 -44.181 -72.725  1.00  0.00     0.199 A
HETATM   13  C16 UNL     1      23.666 -45.365 -73.344  1.00  0.00     0.158 A
HETATM   14  C17 UNL     1      23.837 -45.817 -74.718  1.00  0.00     0.148 C
HETATM   15  C18 UNL     1      24.152 -47.273 -74.880  1.00  0.00     0.181 C
ENDROOT
BRANCH   6  16
HETATM   16  C7  UNL     1      19.590 -44.531 -72.454  1.00  0.00     0.127 C
BRANCH  16  17
HETATM   17  C8  UNL     1      18.757 -43.430 -73.023  1.00  0.00     0.003 A
HETATM   18  C9  UNL     1      19.420 -42.228 -73.616  1.00  0.00     0.007 A
HETATM   19  C10 UNL     1      18.720 -43.191 -74.470  1.00  0.00     0.007 A
ENDBRANCH  16  17
ENDBRANCH   6  16
BRANCH  12  20
HETATM   20  O2  UNL     1      23.017 -44.130 -71.342  1.00  0.00    -0.389 OA
ATOM     21  H2  UNL     1      22.297 -44.587 -70.922  1.00  0.00     0.210 HD
ENDBRANCH  12  20
BRANCH  13  22
HETATM   22  O3  UNL     1      23.753 -46.451 -72.433  1.00  0.00    -0.380 OA
ATOM     23  H3  UNL     1      23.049 -47.088 -72.483  1.00  0.00     0.211 HD
ENDBRANCH  13  22
BRANCH   1  24
HETATM   24  N1  UNL     1      23.471 -49.492 -75.218  1.00  0.00    -0.418 N
HETATM   25  C1  UNL     1      23.894 -50.500 -74.365  1.00  0.00     0.140 C
ATOM     26  H1  UNL     1      23.465 -49.650 -76.225  1.00  0.00     0.153 HD
ENDBRANCH   1  24
BRANCH  14  27
HETATM   27  O4  UNL     1      24.879 -45.096 -75.324  1.00  0.00    -0.381 OA
ATOM     28  H4  UNL     1      25.662 -45.628 -75.244  1.00  0.00     0.211 HD
ENDBRANCH  14  27
BRANCH  15  29
HETATM   29  O5  UNL     1      24.877 -47.500 -76.050  1.00  0.00    -0.390 OA
ATOM     30  H5  UNL     1      25.014 -46.712 -76.563  1.00  0.00     0.210 HD
ENDBRANCH  15  29
TORSDOF 7
ENDMDL