MODEL 4
REMARK VINA RESULT: -5.893766169      5.243      8.227
REMARK  6 active torsions:
REMARK  status: ('A' for Active; 'I' for Inactive)
REMARK    1  A    between atoms: N1_2  and  C2_4
REMARK    2  A    between atoms: C2_4  and  C4_6
REMARK       I    between atoms: C4_6  and  N2_8
REMARK    3  A    between atoms: C12_22  and  C13_23
REMARK    4  A    between atoms: C12_22  and  C14_26
REMARK    5  A    between atoms: C13_23  and  O2_24
REMARK    6  A    between atoms: C14_26  and  O4_28
ROOT
HETATM    1  C4  UNL     1      19.338 -47.286 -74.220  1.00  0.00     0.245 C
HETATM    2  O1  UNL     1      19.541 -48.402 -74.690  1.00  0.00    -0.271 OA
HETATM    3  N2  UNL     1      17.971 -46.781 -74.214  1.00  0.00    -0.326 N
HETATM    4  C5  UNL     1      17.895 -45.519 -73.525  1.00  0.00     0.150 C
HETATM    5  C6  UNL     1      16.491 -45.135 -73.273  1.00  0.00     0.139 C
HETATM    6  N3  UNL     1      16.166 -44.490 -72.032  1.00  0.00    -0.400 N
ATOM      7  H3  UNL     1      16.354 -44.931 -71.132  1.00  0.00     0.158 HD
HETATM    8  C7  UNL     1      15.577 -43.225 -72.122  1.00  0.00     0.060 C
HETATM    9  C8  UNL     1      14.986 -42.703 -73.374  1.00  0.00     0.088 C
HETATM   10  C9  UNL     1      13.664 -43.191 -73.792  1.00  0.00     0.060 C
HETATM   11  N4  UNL     1      13.445 -43.940 -74.922  1.00  0.00    -0.400 N
ATOM     12  H4  UNL     1      12.615 -44.533 -74.899  1.00  0.00     0.158 HD
HETATM   13  C10 UNL     1      14.185 -44.005 -76.084  1.00  0.00     0.138 C
HETATM   14  C11 UNL     1      14.449 -45.490 -76.443  1.00  0.00     0.135 C
HETATM   15  N5  UNL     1      15.795 -45.881 -76.369  1.00  0.00    -0.397 N
ATOM     16  H5  UNL     1      16.507 -45.178 -76.570  1.00  0.00     0.154 HD
HETATM   17  C12 UNL     1      16.220 -47.156 -76.042  1.00  0.00     0.169 C
HETATM   18  C16 UNL     1      16.929 -47.483 -74.800  1.00  0.00     0.110 C
ENDROOT
BRANCH   1  19
HETATM   19  C2  UNL     1      20.496 -46.546 -73.697  1.00  0.00     0.165 C
HETATM   20  C3  UNL     1      21.154 -45.893 -74.933  1.00  0.00     0.042 C
BRANCH  19  21
HETATM   21  N1  UNL     1      21.507 -47.386 -73.108  1.00  0.00    -0.414 N
HETATM   22  C1  UNL     1      22.810 -47.323 -73.693  1.00  0.00     0.140 C
ATOM     23  H1  UNL     1      21.304 -47.995 -72.315  1.00  0.00     0.153 HD
ENDBRANCH  19  21
ENDBRANCH   1  19
BRANCH  17  24
HETATM   24  C13 UNL     1      17.115 -47.583 -77.266  1.00  0.00     0.211 C
BRANCH  24  25
HETATM   25  O2  UNL     1      17.740 -48.771 -77.033  1.00  0.00    -0.398 OA
ATOM     26  H2  UNL     1      18.076 -49.149 -77.837  1.00  0.00     0.209 HD
ENDBRANCH  24  25
ENDBRANCH  17  24
BRANCH  17  27
HETATM   27  C14 UNL     1      15.114 -48.163 -76.176  1.00  0.00     0.294 C
HETATM   28  O3  UNL     1      14.841 -48.644 -77.285  1.00  0.00    -0.262 OA
BRANCH  27  29
HETATM   29  O4  UNL     1      14.367 -48.586 -75.080  1.00  0.00    -0.324 OA
HETATM   30  C15 UNL     1      14.206 -49.984 -74.798  1.00  0.00     0.213 C
ENDBRANCH  27  29
ENDBRANCH  17  27
TORSDOF 6
ENDMDL