MODEL 1
REMARK VINA RESULT: -7.072283217      0.000      0.000
REMARK  7 active torsions:
REMARK  status: ('A' for Active; 'I' for Inactive)
REMARK    1  A    between atoms: C2_2  and  C4_4
REMARK    2  A    between atoms: C2_2  and  C16_29
REMARK    3  A    between atoms: C5_5  and  C6_6
REMARK    4  A    between atoms: C10_13  and  O4_14
REMARK    5  A    between atoms: C12_17  and  O5_18
REMARK    6  A    between atoms: C14_21  and  N1_22
REMARK    7  A    between atoms: C15_26  and  O6_27
ROOT
HETATM    1  C6  UNL     1      17.828 -44.620 -72.766  1.00  0.00     0.175 C
HETATM    2  O1  UNL     1      17.144 -45.721 -72.415  1.00  0.00    -0.371 OA
HETATM    3  C7  UNL     1      17.436 -46.922 -73.006  1.00  0.00     0.160 C
HETATM    4  C8  UNL     1      16.774 -47.106 -74.319  1.00  0.00     0.166 C
HETATM    5  O2  UNL     1      15.609 -47.911 -74.279  1.00  0.00    -0.347 OA
HETATM    6  C9  UNL     1      16.143 -49.167 -74.297  1.00  0.00     0.327 A
HETATM    7  O3  UNL     1      16.393 -50.070 -75.206  1.00  0.00    -0.314 OA
HETATM    8  C10 UNL     1      16.871 -48.949 -75.660  1.00  0.00     0.224 A
HETATM    9  C11 UNL     1      17.765 -47.906 -75.179  1.00  0.00     0.114 C
HETATM   10  C12 UNL     1      18.941 -48.192 -74.393  1.00  0.00     0.139 C
HETATM   11  C13 UNL     1      18.893 -47.166 -73.274  1.00  0.00     0.080 C
HETATM   12  C14 UNL     1      19.642 -45.950 -73.729  1.00  0.00     0.224 C
HETATM   13  C15 UNL     1      18.787 -44.742 -73.907  1.00  0.00     0.181 C
ENDROOT
BRANCH   1  14
HETATM   14  C5  UNL     1      16.869 -43.527 -73.099  1.00  0.00     0.005 C
HETATM   15  C4  UNL     1      15.751 -43.753 -73.761  1.00  0.00    -0.008 C
BRANCH  15  16
HETATM   16  C2  UNL     1      14.813 -42.643 -74.078  1.00  0.00     0.059 C
HETATM   17  C1  UNL     1      14.309 -42.748 -75.504  1.00  0.00     0.031 C
HETATM   18  C3  UNL     1      15.461 -41.287 -73.922  1.00  0.00     0.031 C
BRANCH  16  19
HETATM   19  C16 UNL     1      13.669 -42.734 -73.113  1.00  0.00     0.185 C
HETATM   20  O7  UNL     1      12.609 -43.344 -73.398  1.00  0.00    -0.647 OA
HETATM   21  O8  UNL     1      13.735 -42.143 -71.857  1.00  0.00    -0.647 OA
ENDBRANCH  16  19
ENDBRANCH  15  16
ENDBRANCH   1  14
BRANCH  13  22
HETATM   22  O6  UNL     1      19.650 -43.622 -73.825  1.00  0.00    -0.391 OA
ATOM     23  H6  UNL     1      19.400 -43.039 -74.533  1.00  0.00     0.210 HD
ENDBRANCH  13  22
BRANCH  12  24
HETATM   24  N1  UNL     1      20.732 -45.647 -72.794  1.00  0.00    -0.072 N
ATOM     25  H13 UNL     1      20.855 -44.643 -72.665  1.00  0.00     0.274 HD
ATOM     26  H12 UNL     1      20.490 -45.893 -71.834  1.00  0.00     0.274 HD
ATOM     27  H11 UNL     1      21.594 -46.100 -73.098  1.00  0.00     0.274 HD
ENDBRANCH  12  24
BRANCH  10  28
HETATM   28  O5  UNL     1      19.136 -49.479 -73.933  1.00  0.00    -0.394 OA
ATOM     29  H5  UNL     1      19.375 -49.609 -73.023  1.00  0.00     0.210 HD
ENDBRANCH  10  28
BRANCH   8  30
HETATM   30  O4  UNL     1      15.978 -48.426 -76.650  1.00  0.00    -0.361 OA
ATOM     31  H4  UNL     1      15.966 -48.972 -77.427  1.00  0.00     0.213 HD
ENDBRANCH   8  30
TORSDOF 7
ENDMDL