MODEL 4
REMARK VINA RESULT: -6.705585400      2.036      6.108
REMARK  8 active torsions:
REMARK  status: ('A' for Active; 'I' for Inactive)
REMARK    1  A    between atoms: C4_4  and  C5_5
REMARK    2  A    between atoms: C5_5  and  O1_6
REMARK    3  A    between atoms: C9_12  and  O3_13
REMARK    4  A    between atoms: C11_16  and  C12_17
REMARK    5  A    between atoms: C12_17  and  C13_18
REMARK    6  A    between atoms: C15_22  and  O6_23
REMARK    7  A    between atoms: C16_25  and  O7_26
REMARK    8  A    between atoms: C17_28  and  O8_29
ROOT
HETATM    1  C1  UNL     1      13.910 -46.845 -77.232  1.00  0.00     0.012 C
HETATM    2  C2  UNL     1      15.370 -47.276 -77.002  1.00  0.00     0.014 C
HETATM    3  C3  UNL     1      15.828 -46.743 -75.684  1.00  0.00     0.021 C
HETATM    4  C4  UNL     1      16.938 -47.535 -75.034  1.00  0.00     0.018 C
HETATM    5  C6  UNL     1      17.501 -48.322 -76.172  1.00  0.00     0.164 C
HETATM    6  O2  UNL     1      18.802 -48.527 -75.793  1.00  0.00    -0.373 OA
HETATM    7  C7  UNL     1      19.149 -47.146 -75.694  1.00  0.00     0.166 C
HETATM    8  C8  UNL     1      18.134 -46.755 -74.592  1.00  0.00     0.060 C
HETATM    9  C9  UNL     1      18.905 -47.282 -73.442  1.00  0.00     0.135 C
HETATM   10  C10 UNL     1      20.326 -46.886 -73.637  1.00  0.00     0.083 C
HETATM   11  C11 UNL     1      20.781 -45.562 -73.308  1.00  0.00     0.137 C
HETATM   12  O5  UNL     1      20.998 -44.838 -74.508  1.00  0.00    -0.382 OA
HETATM   13  C14 UNL     1      21.240 -45.778 -75.487  1.00  0.00     0.209 C
HETATM   14  C15 UNL     1      20.497 -47.028 -75.113  1.00  0.00     0.114 C
HETATM   15  C16 UNL     1      16.694 -49.408 -76.712  1.00  0.00     0.177 C
HETATM   16  C17 UNL     1      15.419 -48.735 -77.241  1.00  0.00     0.153 C
ENDROOT
BRANCH   4  17
HETATM   17  C5  UNL     1      16.314 -48.309 -73.938  1.00  0.00     0.176 C
BRANCH  17  18
HETATM   18  O1  UNL     1      15.640 -47.418 -73.077  1.00  0.00    -0.400 OA
ATOM     19  H1  UNL     1      15.346 -47.896 -72.310  1.00  0.00     0.209 HD
ENDBRANCH  17  18
ENDBRANCH   4  17
BRANCH  15  20
HETATM   20  O7  UNL     1      16.425 -50.482 -75.893  1.00  0.00    -0.390 OA
ATOM     21  H7  UNL     1      17.151 -50.879 -75.426  1.00  0.00     0.210 HD
ENDBRANCH  15  20
BRANCH   9  22
HETATM   22  O3  UNL     1      18.427 -47.062 -72.176  1.00  0.00    -0.394 OA
ATOM     23  H3  UNL     1      19.022 -47.161 -71.443  1.00  0.00     0.210 HD
ENDBRANCH   9  22
BRANCH  16  24
HETATM   24  O8  UNL     1      14.273 -49.432 -76.871  1.00  0.00    -0.393 OA
ATOM     25  H8  UNL     1      14.036 -49.362 -75.954  1.00  0.00     0.210 HD
ENDBRANCH  16  24
BRANCH  14  26
HETATM   26  O6  UNL     1      21.249 -48.163 -75.468  1.00  0.00    -0.384 OA
ATOM     27  H6  UNL     1      21.021 -48.879 -74.886  1.00  0.00     0.210 HD
ENDBRANCH  14  26
BRANCH  11  28
HETATM   28  C12 UNL     1      19.995 -44.677 -72.436  1.00  0.00     0.102 C
BRANCH  28  29
HETATM   29  C13 UNL     1      19.447 -43.529 -73.258  1.00  0.00     0.233 C
HETATM   30  O4  UNL     1      18.257 -43.314 -73.348  1.00  0.00    -0.307 OA
ENDBRANCH  28  29
ENDBRANCH  11  28
TORSDOF 8
ENDMDL