MODEL 3
REMARK VINA RESULT: -7.063100839      3.178      6.180
REMARK  5 active torsions:
REMARK  status: ('A' for Active; 'I' for Inactive)
REMARK    1  A    between atoms: O1_2  and  C2_3
REMARK    2  A    between atoms: C2_3  and  C3_5
REMARK    3  A    between atoms: C3_5  and  C4_6
REMARK    4  A    between atoms: C5_7  and  C6_8
REMARK       I    between atoms: C6_8  and  N1_10
REMARK    5  A    between atoms: N1_10  and  C7_12
ROOT
HETATM    1  C3  UNL     1      21.522 -47.498 -74.730  1.00  0.00     0.397 A
HETATM    2  N2  UNL     1      21.721 -47.263 -73.312  1.00  0.00     0.026 N
ATOM      3  H21 UNL     1      22.295 -47.898 -72.756  1.00  0.00     0.285 HD
ATOM      4  H22 UNL     1      20.956 -47.397 -72.651  1.00  0.00     0.285 HD
HETATM    5  C11 UNL     1      22.186 -45.949 -73.629  1.00  0.00     0.452 A
HETATM    6  N3  UNL     1      22.041 -46.199 -75.043  1.00  0.00     0.026 N
ATOM      7  H31 UNL     1      21.509 -45.556 -75.629  1.00  0.00     0.285 HD
ATOM      8  H32 UNL     1      22.838 -46.097 -75.671  1.00  0.00     0.285 HD
HETATM    9  C12 UNL     1      21.297 -44.875 -73.123  1.00  0.00     0.301 C
HETATM   10  O4  UNL     1      20.138 -45.136 -72.712  1.00  0.00    -0.268 OA
HETATM   11  N4  UNL     1      21.801 -43.547 -73.120  1.00  0.00    -0.275 N
ATOM     12  H4  UNL     1      21.149 -42.762 -73.099  1.00  0.00     0.173 HD
HETATM   13  C13 UNL     1      23.205 -43.294 -73.146  1.00  0.00     0.329 C
HETATM   14  O5  UNL     1      23.640 -42.128 -73.143  1.00  0.00    -0.247 OA
HETATM   15  N5  UNL     1      24.083 -44.423 -73.175  1.00  0.00    -0.275 N
ATOM     16  H5  UNL     1      25.091 -44.266 -73.195  1.00  0.00     0.173 HD
HETATM   17  C14 UNL     1      23.592 -45.759 -73.177  1.00  0.00     0.301 C
HETATM   18  O6  UNL     1      24.329 -46.719 -72.813  1.00  0.00    -0.268 OA
ENDROOT
BRANCH   1  19
HETATM   19  C2  UNL     1      22.320 -48.644 -75.267  1.00  0.00     0.328 C
HETATM   20  O2  UNL     1      22.865 -48.650 -76.380  1.00  0.00    -0.260 OA
BRANCH  19  21
HETATM   21  O1  UNL     1      22.444 -49.758 -74.449  1.00  0.00    -0.323 OA
HETATM   22  C1  UNL     1      23.710 -50.412 -74.271  1.00  0.00     0.213 C
ENDBRANCH  19  21
ENDBRANCH   1  19
BRANCH   1  23
HETATM   23  C4  UNL     1      20.076 -47.691 -75.018  1.00  0.00     0.058 C
HETATM   24  C5  UNL     1      19.254 -48.222 -74.129  1.00  0.00     0.075 C
BRANCH  24  25
HETATM   25  C6  UNL     1      17.855 -48.397 -74.439  1.00  0.00     0.241 C
HETATM   26  O3  UNL     1      16.996 -48.177 -73.564  1.00  0.00    -0.269 OA
HETATM   27  N1  UNL     1      17.447 -48.816 -75.722  1.00  0.00    -0.350 N
ATOM     28  H1  UNL     1      18.151 -48.997 -76.438  1.00  0.00     0.163 HD
BRANCH  27  29
HETATM   29  C7  UNL     1      16.044 -48.994 -76.039  1.00  0.00     0.022 C
HETATM   30  C8  UNL     1      15.299 -47.680 -75.962  1.00  0.00     0.037 C
HETATM   31  C9  UNL     1      15.987 -49.458 -77.493  1.00  0.00     0.037 C
HETATM   32  C10 UNL     1      15.377 -49.989 -75.127  1.00  0.00     0.037 C
ENDBRANCH  27  29
ENDBRANCH  24  25
ENDBRANCH   1  23
TORSDOF 5
ENDMDL