MODEL 2
REMARK VINA RESULT: -5.934552947      2.371      5.193
REMARK  4 active torsions:
REMARK  status: ('A' for Active; 'I' for Inactive)
REMARK    1  A    between atoms: C2_2  and  N1_3
REMARK    2  A    between atoms: N4_16  and  C9_17
REMARK    3  A    between atoms: C9_17  and  C10_18
REMARK    4  A    between atoms: C10_18  and  N5_19
ROOT
HETATM    1  N1  UNL     1      16.532 -43.369 -74.093  1.00  0.00     0.091 N
HETATM    2  C3  UNL     1      15.863 -44.535 -73.507  1.00  0.00     0.299 C
HETATM    3  C4  UNL     1      16.814 -45.516 -72.917  1.00  0.00     0.262 C
HETATM    4  N2  UNL     1      16.410 -46.892 -73.232  1.00  0.00    -0.072 N
ATOM      5  H21 UNL     1      15.509 -46.915 -73.710  1.00  0.00     0.277 HD
ATOM      6  H22 UNL     1      16.155 -47.407 -72.389  1.00  0.00     0.277 HD
HETATM    7  C5  UNL     1      17.426 -47.586 -73.988  1.00  0.00     0.259 C
HETATM    8  C6  UNL     1      18.360 -48.347 -73.049  1.00  0.00     0.259 C
HETATM    9  N3  UNL     1      19.664 -47.754 -72.996  1.00  0.00    -0.072 N
ATOM     10  H31 UNL     1      20.054 -47.798 -72.055  1.00  0.00     0.277 HD
ATOM     11  H32 UNL     1      19.616 -46.741 -73.103  1.00  0.00     0.277 HD
HETATM   12  C7  UNL     1      20.573 -48.353 -73.980  1.00  0.00     0.251 C
HETATM   13  C8  UNL     1      22.002 -48.335 -73.483  1.00  0.00     0.144 C
HETATM   14  N4  UNL     1      22.780 -47.446 -74.272  1.00  0.00    -0.408 N
HETATM   15  C11 UNL     1      23.730 -46.639 -73.592  1.00  0.00     0.136 C
HETATM   16  C12 UNL     1      23.332 -45.158 -73.662  1.00  0.00     0.133 C
HETATM   17  N6  UNL     1      23.606 -44.719 -74.995  1.00  0.00    -0.418 N
ATOM     18  H6  UNL     1      23.970 -45.345 -75.714  1.00  0.00     0.153 HD
HETATM   19  C13 UNL     1      23.333 -43.340 -75.250  1.00  0.00     0.140 C
HETATM   20  C14 UNL     1      21.920 -43.062 -75.695  1.00  0.00     0.189 C
HETATM   21  O1  UNL     1      21.171 -42.427 -74.680  1.00  0.00    -0.363 OA
HETATM   22  C15 UNL     1      19.934 -42.128 -75.240  1.00  0.00     0.399 C
HETATM   23  N7  UNL     1      19.039 -41.548 -74.266  1.00  0.00    -0.053 N
ATOM     24  H71 UNL     1      18.215 -41.147 -74.713  1.00  0.00     0.279 HD
ATOM     25  H72 UNL     1      19.433 -40.698 -73.862  1.00  0.00     0.279 HD
HETATM   26  C16 UNL     1      18.667 -42.492 -73.236  1.00  0.00     0.265 C
HETATM   27  C17 UNL     1      17.187 -42.628 -73.056  1.00  0.00     0.300 C
ENDROOT
BRANCH  14  28
HETATM   28  C9  UNL     1      23.093 -47.860 -75.591  1.00  0.00     0.144 C
BRANCH  28  29
HETATM   29  C10 UNL     1      24.387 -48.622 -75.731  1.00  0.00     0.248 C
BRANCH  29  30
HETATM   30  N5  UNL     1      25.280 -47.824 -76.580  1.00  0.00    -0.078 N
ATOM     31  H53 UNL     1      24.778 -47.274 -77.277  1.00  0.00     0.274 HD
ATOM     32  H52 UNL     1      25.712 -47.046 -76.082  1.00  0.00     0.274 HD
ATOM     33  H51 UNL     1      25.963 -48.461 -76.992  1.00  0.00     0.274 HD
ENDBRANCH  29  30
ENDBRANCH  28  29
ENDBRANCH  14  28
BRANCH   1  34
HETATM   34  C2  UNL     1      15.438 -42.516 -74.586  1.00  0.00     0.268 C
HETATM   35  C1  UNL     1      14.490 -42.137 -73.483  1.00  0.00     0.037 C
ENDBRANCH   1  34
TORSDOF 4
ENDMDL