MODEL 3
REMARK VINA RESULT: -6.445101504      1.669      2.504
REMARK  8 active torsions:
REMARK  status: ('A' for Active; 'I' for Inactive)
REMARK    1  A    between atoms: C2_2  and  N1_3
REMARK    2  A    between atoms: N1_3  and  C3_4
REMARK    3  A    between atoms: C5_6  and  O1_7
REMARK    4  A    between atoms: C6_9  and  N2_10
REMARK    5  A    between atoms: C11_18  and  O5_19
REMARK    6  A    between atoms: C12_21  and  O6_22
REMARK    7  A    between atoms: C13_24  and  O7_25
REMARK    8  A    between atoms: C14_27  and  O8_28
ROOT
HETATM    1  N1  UNL     1      21.561 -47.224 -74.429  1.00  0.00     0.024 N
HETATM    2  C10 UNL     1      22.019 -47.226 -75.793  1.00  0.00     0.281 C
HETATM    3  C11 UNL     1      23.368 -47.877 -75.985  1.00  0.00     0.176 C
HETATM    4  C12 UNL     1      23.221 -49.321 -75.600  1.00  0.00     0.181 C
HETATM    5  C13 UNL     1      22.676 -49.445 -74.212  1.00  0.00     0.206 C
HETATM    6  C14 UNL     1      22.204 -48.203 -73.586  1.00  0.00     0.361 C
ENDROOT
BRANCH   1   7
HETATM    7  C2  UNL     1      21.894 -45.946 -73.865  1.00  0.00     0.243 C
HETATM    8  C1  UNL     1      22.189 -44.855 -74.799  1.00  0.00     0.035 C
ENDBRANCH   1   7
BRANCH   1   9
HETATM    9  C3  UNL     1      20.151 -47.514 -74.453  1.00  0.00     0.375 C
HETATM   10  C4  UNL     1      19.680 -48.541 -73.483  1.00  0.00     0.138 C
HETATM   11  C5  UNL     1      18.143 -48.543 -73.539  1.00  0.00     0.152 C
HETATM   12  C6  UNL     1      17.645 -48.468 -74.947  1.00  0.00     0.166 C
HETATM   13  C9  UNL     1      18.499 -47.581 -75.825  1.00  0.00     0.327 C
HETATM   14  O2  UNL     1      18.532 -46.314 -75.311  1.00  0.00    -0.201 OA
HETATM   15  O4  UNL     1      19.809 -47.991 -75.732  1.00  0.00    -0.295 OA
HETATM   16  O3  UNL     1      19.354 -46.390 -74.322  1.00  0.00    -0.166 OA
BRANCH  11  17
HETATM   17  O1  UNL     1      17.748 -47.445 -72.780  1.00  0.00    -0.393 OA
ATOM     18  H1  UNL     1      17.195 -46.930 -73.355  1.00  0.00     0.210 HD
ENDBRANCH  11  17
BRANCH  12  19
HETATM   19  N2  UNL     1      16.279 -48.162 -74.986  1.00  0.00    -0.410 N
HETATM   20  C7  UNL     1      15.825 -47.027 -75.676  1.00  0.00     0.143 C
HETATM   21  C8  UNL     1      15.348 -48.991 -74.331  1.00  0.00     0.143 C
ENDBRANCH  12  19
ENDBRANCH   1   9
BRANCH   6  22
HETATM   22  O8  UNL     1      23.283 -47.634 -72.868  1.00  0.00    -0.367 OA
ATOM     23  H8  UNL     1      23.428 -48.088 -72.047  1.00  0.00     0.212 HD
ENDBRANCH   6  22
BRANCH   3  24
HETATM   24  O5  UNL     1      23.595 -47.864 -77.382  1.00  0.00    -0.391 OA
ATOM     25  H5  UNL     1      22.744 -48.018 -77.776  1.00  0.00     0.210 HD
ENDBRANCH   3  24
BRANCH   5  26
HETATM   26  O7  UNL     1      23.736 -49.966 -73.424  1.00  0.00    -0.388 OA
ATOM     27  H7  UNL     1      23.332 -50.292 -72.628  1.00  0.00     0.210 HD
ENDBRANCH   5  26
BRANCH   4  28
HETATM   28  O6  UNL     1      24.405 -50.042 -75.781  1.00  0.00    -0.390 OA
ATOM     29  H6  UNL     1      25.064 -49.543 -76.247  1.00  0.00     0.210 HD
ENDBRANCH   4  28
TORSDOF 8
ENDMDL