MODEL 1
REMARK VINA RESULT: -6.313241751      0.000      0.000
REMARK  6 active torsions:
REMARK  status: ('A' for Active; 'I' for Inactive)
REMARK    1  A    between atoms: C2_2  and  C3_3
REMARK    2  A    between atoms: C3_3  and  C4_5
REMARK    3  A    between atoms: C4_5  and  N1_6
REMARK    4  A    between atoms: C8_10  and  N2_11
REMARK    5  A    between atoms: N2_11  and  C9_13
REMARK    6  A    between atoms: C11_15  and  C12_16
ROOT
HETATM    1  N2  UNL     1      31.456  13.786  54.697  1.00  0.00    -0.371 N
ATOM      2  H2  UNL     1      32.267  13.225  54.959  1.00  0.00     0.161 HD
ENDROOT
BRANCH   1   3
HETATM    3  C8  UNL     1      30.306  13.099  54.169  1.00  0.00     0.084 C
HETATM    4  C7  UNL     1      30.519  11.604  54.097  1.00  0.00     0.027 C
HETATM    5  C6  UNL     1      29.604  11.078  52.994  1.00  0.00     0.032 C
HETATM    6  C5  UNL     1      28.280  10.630  53.569  1.00  0.00     0.273 C
HETATM    7  N1  UNL     1      28.141  11.171  54.931  1.00  0.00     0.095 N
HETATM    8  C17 UNL     1      27.933  12.579  54.768  1.00  0.00     0.275 C
HETATM    9  C16 UNL     1      29.171  13.318  55.153  1.00  0.00     0.055 C
BRANCH   7  10
HETATM   10  C4  UNL     1      27.073  10.530  55.604  1.00  0.00     0.350 C
BRANCH  10  11
HETATM   11  C3  UNL     1      27.480   9.764  56.793  1.00  0.00     0.154 C
HETATM   12  O1  UNL     1      28.334   8.904  56.853  1.00  0.00    -0.296 OA
BRANCH  11  13
HETATM   13  C2  UNL     1      26.786  10.045  58.110  1.00  0.00     0.076 C
HETATM   14  C1  UNL     1      26.675  11.557  58.201  1.00  0.00     0.013 C
ENDBRANCH  11  13
ENDBRANCH  10  11
ENDBRANCH   7  10
ENDBRANCH   1   3
BRANCH   1  15
HETATM   15  C9  UNL     1      31.534  15.198  54.879  1.00  0.00     0.117 A
HETATM   16  C10 UNL     1      31.954  15.818  56.040  1.00  0.00     0.076 A
HETATM   17  C11 UNL     1      31.915  17.202  55.876  1.00  0.00     0.037 A
HETATM   18  N3  UNL     1      31.468  17.375  54.613  1.00  0.00    -0.302 N
HETATM   19  N4  UNL     1      31.245  16.203  54.033  1.00  0.00    -0.286 N
ATOM     20  H3  UNL     1      31.321  18.281  54.167  1.00  0.00     0.186 HD
ATOM     21  H4  UNL     1      30.901  16.080  53.080  1.00  0.00     0.188 HD
BRANCH  17  22
HETATM   22  C12 UNL     1      32.305  18.247  56.862  1.00  0.00    -0.007 C
HETATM   23  C13 UNL     1      32.459  17.559  58.218  1.00  0.00     0.021 C
HETATM   24  C14 UNL     1      33.625  18.873  56.459  1.00  0.00     0.021 C
HETATM   25  C15 UNL     1      31.222  19.285  57.020  1.00  0.00     0.021 C
ENDBRANCH  17  22
ENDBRANCH   1  15
TORSDOF 6
ENDMDL