MODEL 2
REMARK VINA RESULT: -6.047686595      0.833      1.208
REMARK  6 active torsions:
REMARK  status: ('A' for Active; 'I' for Inactive)
REMARK    1  A    between atoms: C5_5  and  O1_7
REMARK    2  A    between atoms: C7_9  and  C8_10
REMARK    3  A    between atoms: C8_10  and  C9_11
REMARK    4  A    between atoms: C9_11  and  C10_12
REMARK    5  A    between atoms: C12_16  and  C13_17
REMARK    6  A    between atoms: C17_23  and  O2_25
ROOT
HETATM    1  C1  UNL     1      27.734  10.202  56.420  1.00  0.00     0.013 C
HETATM    2  C2  UNL     1      27.890  10.562  54.968  1.00  0.00     0.016 C
HETATM    3  C3  UNL     1      26.689  11.295  54.465  1.00  0.00     0.010 C
HETATM    4  C4  UNL     1      26.988  12.720  54.075  1.00  0.00     0.038 C
HETATM    5  C5  UNL     1      27.892  13.411  55.035  1.00  0.00     0.061 C
HETATM    6  C6  UNL     1      27.315  13.553  56.413  1.00  0.00     0.046 C
HETATM    7  C7  UNL     1      29.233  12.721  55.028  1.00  0.00     0.054 C
HETATM    8  C17 UNL     1      29.195  11.285  54.695  1.00  0.00     0.064 C
HETATM    9  C18 UNL     1      30.333  10.586  55.400  1.00  0.00     0.046 C
ENDROOT
BRANCH   7  10
HETATM   10  C8  UNL     1      30.117  13.518  54.112  1.00  0.00     0.017 C
BRANCH  10  11
HETATM   11  C9  UNL     1      31.525  13.720  54.551  1.00  0.00     0.059 C
BRANCH  11  12
HETATM   12  C10 UNL     1      31.648  15.165  54.948  1.00  0.00     0.024 A
HETATM   13  C11 UNL     1      31.019  15.596  56.089  1.00  0.00     0.113 A
HETATM   14  N1  UNL     1      31.117  16.892  56.464  1.00  0.00    -0.366 N
HETATM   15  C12 UNL     1      31.822  17.789  55.747  1.00  0.00     0.028 A
ATOM     16  H1  UNL     1      30.646  17.199  57.315  1.00  0.00     0.165 HD
HETATM   17  C16 UNL     1      32.447  17.333  54.601  1.00  0.00     0.113 A
HETATM   18  N2  UNL     1      32.350  16.036  54.222  1.00  0.00    -0.366 N
ATOM     19  H2  UNL     1      32.820  15.723  53.373  1.00  0.00     0.165 HD
BRANCH  15  20
HETATM   20  C13 UNL     1      31.923  19.222  56.173  1.00  0.00     0.037 A
HETATM   21  C14 UNL     1      31.392  19.531  57.505  1.00  0.00     0.011 A
HETATM   22  C15 UNL     1      32.872  19.606  57.254  1.00  0.00     0.011 A
ENDBRANCH  15  20
ENDBRANCH  11  12
ENDBRANCH  10  11
ENDBRANCH   7  10
BRANCH   5  23
HETATM   23  O1  UNL     1      28.092  14.696  54.532  1.00  0.00    -0.390 OA
ATOM     24  H1  UNL     1      28.524  14.591  53.692  1.00  0.00     0.210 HD
ENDBRANCH   5  23
BRANCH   8  25
HETATM   25  O2  UNL     1      29.463  11.170  53.321  1.00  0.00    -0.389 OA
ATOM     26  H2  UNL     1      30.221  11.710  53.131  1.00  0.00     0.210 HD
ENDBRANCH   8  25
TORSDOF 6
ENDMDL