MODEL 1
REMARK VINA RESULT: -6.486543705      0.000      0.000
REMARK  6 active torsions:
REMARK  status: ('A' for Active; 'I' for Inactive)
REMARK    1  A    between atoms: C2_2  and  O1_3
REMARK    2  A    between atoms: O1_3  and  C3_4
REMARK    3  A    between atoms: C3_4  and  C4_6
REMARK    4  A    between atoms: C7_11  and  N2_12
REMARK    5  A    between atoms: N2_12  and  C8_14
REMARK    6  A    between atoms: C8_14  and  C9_15
ROOT
HETATM    1  C4  UNL     1      32.594  16.604  55.480  1.00  0.00     0.084 A
HETATM    2  C5  UNL     1      31.702  17.165  56.382  1.00  0.00     0.108 A
HETATM    3  N1  UNL     1      30.591  16.416  56.475  1.00  0.00    -0.360 N
ATOM      4  H1  UNL     1      29.777  16.595  57.063  1.00  0.00     0.165 HD
HETATM    5  C6  UNL     1      30.773  15.374  55.630  1.00  0.00     0.104 A
HETATM    6  C7  UNL     1      29.942  14.317  55.344  1.00  0.00     0.131 A
HETATM    7  N3  UNL     1      30.336  13.389  54.459  1.00  0.00    -0.337 N
ATOM      8  H3  UNL     1      29.726  12.602  54.240  1.00  0.00     0.168 HD
HETATM    9  C15 UNL     1      31.534  13.498  53.862  1.00  0.00     0.182 A
HETATM   10  N4  UNL     1      32.360  14.522  54.126  1.00  0.00    -0.349 N
ATOM     11  H4  UNL     1      33.265  14.583  53.658  1.00  0.00     0.166 HD
HETATM   12  C16 UNL     1      31.995  15.465  55.005  1.00  0.00     0.081 A
ENDROOT
BRANCH   6  13
HETATM   13  N2  UNL     1      28.794  14.257  55.947  1.00  0.00    -0.374 N
ATOM     14  H2  UNL     1      28.695  14.528  56.925  1.00  0.00     0.161 HD
BRANCH  13  15
HETATM   15  C8  UNL     1      27.664  13.790  55.179  1.00  0.00     0.126 C
BRANCH  15  16
HETATM   16  C9  UNL     1      26.860  12.754  55.973  1.00  0.00     0.003 C
HETATM   17  C10 UNL     1      27.602  11.427  55.802  1.00  0.00     0.006 C
HETATM   18  C11 UNL     1      26.951  10.340  56.593  1.00  0.00     0.000 C
HETATM   19  C12 UNL     1      26.657  10.669  58.003  1.00  0.00     0.000 C
HETATM   20  C13 UNL     1      26.296  12.073  58.295  1.00  0.00     0.000 C
HETATM   21  C14 UNL     1      26.982  13.093  57.443  1.00  0.00     0.006 C
ENDBRANCH  15  16
ENDBRANCH  13  15
ENDBRANCH   6  13
BRANCH   1  22
HETATM   22  C3  UNL     1      33.908  17.099  55.092  1.00  0.00     0.297 C
HETATM   23  O2  UNL     1      34.756  16.407  54.485  1.00  0.00    -0.259 OA
BRANCH  22  24
HETATM   24  O1  UNL     1      34.281  18.413  55.396  1.00  0.00    -0.318 OA
BRANCH  24  25
HETATM   25  C2  UNL     1      35.314  18.718  56.299  1.00  0.00     0.174 C
HETATM   26  C1  UNL     1      34.675  19.236  57.573  1.00  0.00     0.034 C
ENDBRANCH  24  25
ENDBRANCH  22  24
ENDBRANCH   1  22
TORSDOF 6
ENDMDL