MODEL 5
REMARK VINA RESULT: -6.554264304      1.117      2.081
REMARK  5 active torsions:
REMARK  status: ('A' for Active; 'I' for Inactive)
REMARK    1  A    between atoms: C4_7  and  C5_8
REMARK    2  A    between atoms: C5_8  and  C6_9
REMARK    3  A    between atoms: N3_14  and  C11_15
REMARK    4  A    between atoms: C11_15  and  C12_16
REMARK    5  A    between atoms: C18_24  and  N5_25
ROOT
HETATM    1  N1  UNL     1      32.743  19.919  57.329  1.00  0.00    -0.191 NA
HETATM    2  C1  UNL     1      32.310  18.969  56.786  1.00  0.00     0.104 C
HETATM    3  C2  UNL     1      31.773  17.803  56.144  1.00  0.00     0.103 A
HETATM    4  C3  UNL     1      31.051  16.854  56.856  1.00  0.00     0.116 A
HETATM    5  N2  UNL     1      30.544  15.761  56.273  1.00  0.00    -0.354 N
ATOM      6  H2  UNL     1      30.019  15.087  56.830  1.00  0.00     0.166 HD
HETATM    7  C4  UNL     1      30.727  15.543  54.932  1.00  0.00     0.084 A
HETATM    8  N4  UNL     1      31.414  16.448  54.265  1.00  0.00    -0.331 N
ATOM      9  H4  UNL     1      31.554  16.291  53.267  1.00  0.00     0.168 HD
HETATM   10  C18 UNL     1      31.947  17.566  54.798  1.00  0.00     0.122 A
ENDROOT
BRANCH  10  11
HETATM   11  N5  UNL     1      32.620  18.416  54.075  1.00  0.00    -0.384 N
ATOM     12  H52 UNL     1      32.210  18.866  53.257  1.00  0.00     0.157 HD
ATOM     13  H51 UNL     1      33.585  18.638  54.323  1.00  0.00     0.157 HD
ENDBRANCH  10  11
BRANCH   7  14
HETATM   14  C5  UNL     1      30.205  14.315  54.302  1.00  0.00     0.112 C
BRANCH  14  15
HETATM   15  C6  UNL     1      30.864  13.042  54.692  1.00  0.00     0.230 C
HETATM   16  C7  UNL     1      32.228  12.810  54.113  1.00  0.00     0.036 C
HETATM   17  C8  UNL     1      32.193  12.362  52.658  1.00  0.00     0.004 C
HETATM   18  C9  UNL     1      31.254  11.222  52.418  1.00  0.00     0.030 C
HETATM   19  C10 UNL     1      29.886  11.653  52.971  1.00  0.00     0.273 C
HETATM   20  N3  UNL     1      30.036  11.907  54.365  1.00  0.00     0.093 N
BRANCH  20  21
HETATM   21  C11 UNL     1      28.810  11.826  55.113  1.00  0.00     0.277 C
BRANCH  21  22
HETATM   22  C12 UNL     1      28.891  10.993  56.357  1.00  0.00     0.014 C
HETATM   23  C13 UNL     1      27.925  11.623  57.363  1.00  0.00     0.006 C
HETATM   24  C14 UNL     1      26.534  11.079  57.143  1.00  0.00     0.000 C
HETATM   25  C15 UNL     1      26.503   9.697  57.780  1.00  0.00     0.000 C
HETATM   26  C16 UNL     1      27.842   9.054  57.486  1.00  0.00     0.000 C
HETATM   27  C17 UNL     1      28.405   9.572  56.156  1.00  0.00     0.006 C
ENDBRANCH  21  22
ENDBRANCH  20  21
ENDBRANCH  14  15
ENDBRANCH   7  14
TORSDOF 5
ENDMDL