MODEL 5
REMARK VINA RESULT: -6.298433777      0.544      1.313
REMARK  6 active torsions:
REMARK  status: ('A' for Active; 'I' for Inactive)
REMARK    1  A    between atoms: C4_6  and  C5_7
REMARK    2  A    between atoms: C5_7  and  N2_8
REMARK    3  A    between atoms: C5_7  and  C6_12
REMARK    4  A    between atoms: C6_12  and  C7_13
REMARK    5  A    between atoms: C7_13  and  N3_14
REMARK    6  A    between atoms: N3_14  and  C8_16
ROOT
HETATM    1  C6  UNL     1      32.358  15.115  54.924  1.00  0.00     0.011 A
HETATM    2  C18 UNL     1      32.996  14.041  54.140  1.00  0.00     0.014 A
HETATM    3  C19 UNL     1      33.047  13.883  55.590  1.00  0.00     0.014 A
ENDROOT
BRANCH   1   4
HETATM    4  C5  UNL     1      33.072  16.418  55.048  1.00  0.00     0.268 C
BRANCH   4   5
HETATM    5  C4  UNL     1      32.302  17.407  55.837  1.00  0.00     0.155 A
HETATM    6  N1  UNL     1      31.591  18.427  55.336  1.00  0.00    -0.346 N
HETATM    7  C3  UNL     1      31.028  19.107  56.343  1.00  0.00     0.122 A
ATOM      8  H1  UNL     1      31.494  18.650  54.345  1.00  0.00     0.167 HD
HETATM    9  C2  UNL     1      31.419  18.468  57.496  1.00  0.00     0.066 A
HETATM   10  C1  UNL     1      31.040  18.854  58.901  1.00  0.00     0.078 C
HETATM   11  O1  UNL     1      32.175  17.466  57.136  1.00  0.00    -0.299 OA
ENDBRANCH   4   5
BRANCH   4  12
HETATM   12  N2  UNL     1      33.350  16.926  53.717  1.00  0.00    -0.067 N
ATOM     13  H23 UNL     1      34.145  17.565  53.714  1.00  0.00     0.275 HD
ATOM     14  H22 UNL     1      33.733  16.203  53.108  1.00  0.00     0.275 HD
ATOM     15  H21 UNL     1      32.517  17.357  53.314  1.00  0.00     0.275 HD
ENDBRANCH   4  12
ENDBRANCH   1   4
BRANCH   1  16
HETATM   16  C7  UNL     1      30.878  15.126  55.250  1.00  0.00     0.126 C
BRANCH  16  17
HETATM   17  N3  UNL     1      30.046  14.686  54.190  1.00  0.00    -0.412 N
ATOM     18  H3  UNL     1      30.090  15.121  53.268  1.00  0.00     0.154 HD
BRANCH  17  19
HETATM   19  C8  UNL     1      29.149  13.617  54.456  1.00  0.00     0.026 C
HETATM   20  C9  UNL     1      27.740  14.108  54.091  1.00  0.00     0.035 C
HETATM   21  C10 UNL     1      26.678  13.168  54.563  1.00  0.00    -0.012 C
HETATM   22  C11 UNL     1      26.908  11.823  53.875  1.00  0.00     0.009 C
HETATM   23  C15 UNL     1      26.751  12.938  56.042  1.00  0.00     0.009 C
HETATM   24  C12 UNL     1      28.299  11.338  54.222  1.00  0.00    -0.012 C
HETATM   25  C13 UNL     1      28.385  11.063  55.684  1.00  0.00     0.009 C
HETATM   26  C17 UNL     1      29.349  12.332  53.746  1.00  0.00     0.035 C
HETATM   27  C14 UNL     1      28.102  12.379  56.390  1.00  0.00    -0.012 C
HETATM   28  C16 UNL     1      29.155  13.356  55.945  1.00  0.00     0.035 C
ENDBRANCH  17  19
ENDBRANCH  16  17
ENDBRANCH   1  16
TORSDOF 6
ENDMDL