MODEL 4
REMARK VINA RESULT: -6.405383029      4.387      6.785
REMARK  6 active torsions:
REMARK  status: ('A' for Active; 'I' for Inactive)
REMARK    1  A    between atoms: N1_2  and  C1_4
REMARK    2  A    between atoms: C4_7  and  C5_8
REMARK    3  A    between atoms: C5_8  and  N2_9
REMARK    4  A    between atoms: N2_9  and  C6_11
REMARK    5  A    between atoms: C6_11  and  N3_13
REMARK    6  A    between atoms: N3_13  and  C7_15
ROOT
HETATM    1  C6  UNL     1      29.377  11.941  53.777  1.00  0.00     0.168 C
HETATM    2  S1  UNL     1      31.021  11.996  53.922  1.00  0.00    -0.041 SA
ENDROOT
BRANCH   1   3
HETATM    3  N2  UNL     1      28.636  13.018  54.301  1.00  0.00    -0.361 N
ATOM      4  H2  UNL     1      29.092  13.913  54.480  1.00  0.00     0.162 HD
BRANCH   3   5
HETATM    5  C5  UNL     1      27.233  12.853  54.583  1.00  0.00     0.187 C
BRANCH   5   6
HETATM    6  C4  UNL     1      27.035  12.098  55.857  1.00  0.00     0.073 A
HETATM    7  C3  UNL     1      26.801  12.582  57.112  1.00  0.00     0.039 A
HETATM    8  C2  UNL     1      26.690  11.499  57.952  1.00  0.00     0.065 A
HETATM    9  C1  UNL     1      26.864  10.390  57.153  1.00  0.00     0.215 A
HETATM   10  O3  UNL     1      27.066  10.792  55.924  1.00  0.00    -0.291 OA
BRANCH   9  11
HETATM   11  N1  UNL     1      26.827   9.029  57.617  1.00  0.00    -0.090 N
HETATM   12  O1  UNL     1      25.755   8.545  57.967  1.00  0.00    -0.530 OA
HETATM   13  O2  UNL     1      27.975   8.285  57.668  1.00  0.00    -0.530 OA
ENDBRANCH   9  11
ENDBRANCH   5   6
ENDBRANCH   3   5
ENDBRANCH   1   3
BRANCH   1  14
HETATM   14  N3  UNL     1      28.791  10.824  53.137  1.00  0.00    -0.362 N
ATOM     15  H3  UNL     1      27.778  10.698  53.152  1.00  0.00     0.162 HD
BRANCH  14  16
HETATM   16  C7  UNL     1      29.623   9.873  52.468  1.00  0.00     0.088 C
HETATM   17  C8  UNL     1      29.323   8.492  53.012  1.00  0.00     0.030 C
HETATM   18  C9  UNL     1      28.992   7.576  51.846  1.00  0.00    -0.013 C
HETATM   19  C10 UNL     1      30.204   7.563  50.915  1.00  0.00     0.005 C
HETATM   20  C14 UNL     1      27.769   8.091  51.130  1.00  0.00     0.005 C
HETATM   21  C11 UNL     1      30.523   8.946  50.416  1.00  0.00     0.007 C
HETATM   22  C12 UNL     1      29.482   9.894  50.977  1.00  0.00     0.008 C
HETATM   23  C13 UNL     1      28.105   9.437  50.539  1.00  0.00     0.007 C
ENDBRANCH  14  16
ENDBRANCH   1  14
TORSDOF 6
ENDMDL