MODEL 1
REMARK VINA RESULT: -6.031035903      0.000      0.000
REMARK  4 active torsions:
REMARK  status: ('A' for Active; 'I' for Inactive)
REMARK    1  A    between atoms: C4_5  and  C5_6
REMARK    2  A    between atoms: C5_6  and  C6_7
REMARK    3  A    between atoms: C9_13  and  N1_14
REMARK    4  A    between atoms: N1_14  and  C10_17
ROOT
HETATM    1  C1  UNL     1      30.685  11.134  54.799  1.00  0.00     0.029 C
HETATM    2  C2  UNL     1      29.200  11.416  54.703  1.00  0.00     0.030 C
HETATM    3  C3  UNL     1      28.776  10.928  53.310  1.00  0.00     0.029 C
HETATM    4  S1  UNL     1      28.374  10.347  55.893  1.00  0.00    -0.145 SA
HETATM    5  C4  UNL     1      26.877  11.107  56.573  1.00  0.00     0.127 C
HETATM    6  C7  UNL     1      27.180  12.581  56.633  1.00  0.00     0.143 C
HETATM    7  O3  UNL     1      27.129  13.132  57.691  1.00  0.00    -0.297 OA
HETATM    8  C8  UNL     1      27.519  13.197  55.322  1.00  0.00     0.114 C
HETATM    9  C9  UNL     1      28.915  12.870  54.857  1.00  0.00     0.211 C
ENDROOT
BRANCH   9  10
HETATM   10  N1  UNL     1      29.945  13.481  55.649  1.00  0.00    -0.065 N
ATOM     11  H12 UNL     1      29.681  13.480  56.634  1.00  0.00     0.278 HD
ATOM     12  H11 UNL     1      30.767  12.879  55.686  1.00  0.00     0.278 HD
BRANCH  10  13
HETATM   13  C10 UNL     1      30.318  14.808  55.233  1.00  0.00     0.186 C
HETATM   14  C11 UNL     1      29.963  15.753  56.371  1.00  0.00     0.033 C
HETATM   15  C12 UNL     1      31.127  16.564  56.847  1.00  0.00     0.002 C
HETATM   16  C13 UNL     1      31.847  17.282  55.727  1.00  0.00     0.000 C
HETATM   17  C14 UNL     1      32.087  16.360  54.570  1.00  0.00     0.002 C
HETATM   18  C15 UNL     1      31.815  14.940  55.032  1.00  0.00     0.033 C
ENDBRANCH  10  13
ENDBRANCH   9  10
BRANCH   5  19
HETATM   19  C5  UNL     1      26.555  10.520  57.906  1.00  0.00     0.135 C
BRANCH  19  20
HETATM   20  C6  UNL     1      26.549   9.041  57.902  1.00  0.00     0.174 C
HETATM   21  O1  UNL     1      25.481   8.379  57.777  1.00  0.00    -0.648 OA
HETATM   22  O2  UNL     1      27.719   8.314  58.036  1.00  0.00    -0.648 OA
ENDBRANCH  19  20
ENDBRANCH   5  19
TORSDOF 4
ENDMDL