MODEL 1
REMARK VINA RESULT: -7.297213949      0.000      0.000
REMARK  4 active torsions:
REMARK  status: ('A' for Active; 'I' for Inactive)
REMARK    1  A    between atoms: C2_2  and  C4_4
REMARK       I    between atoms: N3_10  and  C6_12
REMARK    2  A    between atoms: C6_12  and  C7_14
REMARK    3  A    between atoms: C7_14  and  N4_15
REMARK    4  A    between atoms: N4_15  and  C8_18
ROOT
HETATM    1  C4  UNL     1      32.251  17.479  55.361  1.00  0.00     0.073 A
HETATM    2  N1  UNL     1      31.536  17.230  54.275  1.00  0.00    -0.296 N
ATOM      3  H1  UNL     1      31.273  17.997  53.657  1.00  0.00     0.187 HD
HETATM    4  N2  UNL     1      31.177  16.046  53.995  1.00  0.00    -0.279 N
ATOM      5  H2  UNL     1      30.627  15.861  53.157  1.00  0.00     0.189 HD
HETATM    6  C5  UNL     1      31.524  15.045  54.804  1.00  0.00     0.167 A
HETATM    7  N3  UNL     1      31.300  13.777  54.759  1.00  0.00    -0.305 N
ATOM      8  H3  UNL     1      31.698  13.244  55.532  1.00  0.00     0.171 HD
HETATM    9  C6  UNL     1      30.610  13.031  53.835  1.00  0.00     0.249 C
HETATM   10  O1  UNL     1      30.286  13.483  52.713  1.00  0.00    -0.271 OA
HETATM   11  S1  UNL     1      32.414  15.911  56.018  1.00  0.00    -0.037 SA
ENDROOT
BRANCH   9  12
HETATM   12  C7  UNL     1      30.226  11.625  54.165  1.00  0.00     0.335 C
BRANCH  12  13
HETATM   13  N4  UNL     1      29.020  11.259  53.461  1.00  0.00    -0.063 N
ATOM     14  H42 UNL     1      28.696  12.020  52.866  1.00  0.00     0.278 HD
ATOM     15  H41 UNL     1      29.211  10.560  52.743  1.00  0.00     0.278 HD
BRANCH  13  16
HETATM   16  C8  UNL     1      27.975  10.814  54.357  1.00  0.00     0.186 C
HETATM   17  C9  UNL     1      26.826  11.746  54.303  1.00  0.00     0.033 C
HETATM   18  C10 UNL     1      27.081  13.150  54.726  1.00  0.00     0.002 C
HETATM   19  C11 UNL     1      27.217  13.401  56.180  1.00  0.00     0.000 C
HETATM   20  C12 UNL     1      26.452  12.499  57.087  1.00  0.00     0.000 C
HETATM   21  C13 UNL     1      27.410  11.466  57.642  1.00  0.00     0.000 C
HETATM   22  C14 UNL     1      27.553  10.258  56.773  1.00  0.00     0.002 C
HETATM   23  C15 UNL     1      28.546  10.518  55.693  1.00  0.00     0.033 C
ENDBRANCH  13  16
ENDBRANCH  12  13
ENDBRANCH   9  12
BRANCH   1  24
HETATM   24  C2  UNL     1      32.776  18.791  55.871  1.00  0.00     0.036 C
HETATM   25  C1  UNL     1      31.847  19.237  56.971  1.00  0.00     0.016 C
HETATM   26  C3  UNL     1      34.204  18.732  56.279  1.00  0.00     0.016 C
ENDBRANCH   1  24
TORSDOF 4
ENDMDL