MODEL 1
REMARK VINA RESULT: -6.421702962      0.000      0.000
REMARK  6 active torsions:
REMARK  status: ('A' for Active; 'I' for Inactive)
REMARK    1  A    between atoms: C5_8  and  C6_9
REMARK    2  A    between atoms: C7_10  and  C8_11
REMARK    3  A    between atoms: N3_12  and  N4_14
REMARK    4  A    between atoms: N4_14  and  C9_16
REMARK    5  A    between atoms: C9_16  and  N5_18
REMARK    6  A    between atoms: N5_18  and  C10_20
ROOT
HETATM    1  C8  UNL     1      27.980  14.648  53.493  1.00  0.00     0.107 C
HETATM    2  N3  UNL     1      29.117  14.829  53.131  1.00  0.00    -0.310 N
ATOM      3  H3  UNL     1      29.166  15.647  52.523  1.00  0.00     0.186 HD
ENDROOT
BRANCH   2   4
HETATM    4  N4  UNL     1      30.328  14.297  53.279  1.00  0.00    -0.277 N
ATOM      5  H4  UNL     1      30.679  13.617  52.604  1.00  0.00     0.189 HD
BRANCH   4   6
HETATM    6  C9  UNL     1      31.129  14.691  54.395  1.00  0.00     0.186 C
HETATM    7  S1  UNL     1      32.182  13.630  55.009  1.00  0.00    -0.040 SA
BRANCH   6   8
HETATM    8  N5  UNL     1      31.004  15.978  54.936  1.00  0.00    -0.361 N
ATOM      9  H5  UNL     1      30.446  16.680  54.449  1.00  0.00     0.162 HD
BRANCH   8  10
HETATM   10  C10 UNL     1      31.657  16.316  56.176  1.00  0.00     0.083 C
HETATM   11  C11 UNL     1      32.755  17.326  55.993  1.00  0.00     0.025 C
HETATM   12  C12 UNL     1      32.254  18.730  55.802  1.00  0.00     0.002 C
HETATM   13  C13 UNL     1      31.072  19.056  56.676  1.00  0.00     0.000 C
HETATM   14  C14 UNL     1      30.985  18.065  57.822  1.00  0.00     0.002 C
HETATM   15  C15 UNL     1      30.629  16.727  57.180  1.00  0.00     0.025 C
ENDBRANCH   8  10
ENDBRANCH   6   8
ENDBRANCH   4   6
ENDBRANCH   2   4
BRANCH   1  16
HETATM   16  C7  UNL     1      27.444  13.606  54.358  1.00  0.00     0.019 C
HETATM   17  C6  UNL     1      27.894  13.380  55.531  1.00  0.00     0.016 C
BRANCH  17  18
HETATM   18  C5  UNL     1      27.450  12.383  56.484  1.00  0.00     0.005 A
HETATM   19  C2  UNL     1      26.501  12.482  57.452  1.00  0.00     0.033 A
HETATM   20  C1  UNL     1      25.645  13.621  57.853  1.00  0.00     0.070 C
HETATM   21  N1  UNL     1      26.452  11.260  58.074  1.00  0.00    -0.303 N
HETATM   22  N2  UNL     1      27.318  10.451  57.524  1.00  0.00    -0.307 N
ATOM     23  H1  UNL     1      25.833  11.020  58.849  1.00  0.00     0.186 HD
HETATM   24  C3  UNL     1      27.586   9.059  57.885  1.00  0.00     0.177 C
HETATM   25  C4  UNL     1      27.970  11.065  56.542  1.00  0.00     0.123 A
ENDBRANCH  17  18
ENDBRANCH   1  16
TORSDOF 6
ENDMDL