MODEL 4
REMARK VINA RESULT: -6.182874730      1.499      1.999
REMARK  6 active torsions:
REMARK  status: ('A' for Active; 'I' for Inactive)
REMARK    1  A    between atoms: C2_2  and  N1_3
REMARK    2  A    between atoms: N1_3  and  C3_5
REMARK    3  A    between atoms: C7_13  and  C8_14
REMARK    4  A    between atoms: C8_14  and  O1_15
REMARK    5  A    between atoms: N4_18  and  C10_19
REMARK    6  A    between atoms: C10_19  and  C11_20
ROOT
HETATM    1  C3  UNL     1      32.034  15.577  56.110  1.00  0.00     0.116 A
HETATM    2  N2  UNL     1      31.704  16.533  56.984  1.00  0.00    -0.338 N
ATOM      3  H2  UNL     1      32.423  17.084  57.451  1.00  0.00     0.168 HD
HETATM    4  C4  UNL     1      30.404  16.750  57.231  1.00  0.00     0.183 A
HETATM    5  N3  UNL     1      29.449  16.032  56.624  1.00  0.00    -0.338 N
ATOM      6  H3  UNL     1      28.476  16.237  56.849  1.00  0.00     0.168 HD
HETATM    7  C5  UNL     1      29.705  15.049  55.726  1.00  0.00     0.123 A
HETATM    8  C6  UNL     1      31.069  14.838  55.482  1.00  0.00     0.062 A
HETATM    9  C7  UNL     1      31.165  13.816  54.563  1.00  0.00    -0.002 A
HETATM   10  C9  UNL     1      29.871  13.443  54.283  1.00  0.00     0.103 A
HETATM   11  N4  UNL     1      28.989  14.189  54.986  1.00  0.00    -0.341 N
ENDROOT
BRANCH  11  12
HETATM   12  C10 UNL     1      27.545  14.110  54.966  1.00  0.00     0.134 C
BRANCH  12  13
HETATM   13  C11 UNL     1      26.947  13.036  55.799  1.00  0.00     0.004 C
HETATM   14  C12 UNL     1      27.016  13.338  57.268  1.00  0.00     0.006 C
HETATM   15  C13 UNL     1      26.413  12.235  58.106  1.00  0.00     0.000 C
HETATM   16  C14 UNL     1      27.246  11.002  58.161  1.00  0.00     0.000 C
HETATM   17  C15 UNL     1      26.898  10.001  57.089  1.00  0.00     0.000 C
HETATM   18  C16 UNL     1      27.007  10.536  55.705  1.00  0.00     0.000 C
HETATM   19  C17 UNL     1      27.818  11.789  55.581  1.00  0.00     0.006 C
ENDBRANCH  12  13
ENDBRANCH  11  12
BRANCH   9  20
HETATM   20  C8  UNL     1      32.434  13.246  54.001  1.00  0.00     0.205 C
BRANCH  20  21
HETATM   21  O1  UNL     1      32.886  13.965  52.924  1.00  0.00    -0.396 OA
ATOM     22  H1  UNL     1      33.520  14.625  53.180  1.00  0.00     0.209 HD
ENDBRANCH  20  21
ENDBRANCH   9  20
BRANCH   1  23
HETATM   23  N1  UNL     1      33.272  15.321  55.828  1.00  0.00    -0.376 N
ATOM     24  H1  UNL     1      33.617  14.368  55.942  1.00  0.00     0.161 HD
BRANCH  23  25
HETATM   25  C2  UNL     1      34.177  16.344  55.358  1.00  0.00     0.116 C
HETATM   26  C1  UNL     1      33.690  17.019  54.104  1.00  0.00     0.026 C
ENDBRANCH  23  25
ENDBRANCH   1  23
TORSDOF 6
ENDMDL