MODEL 1
REMARK VINA RESULT: -7.807423266      0.000      0.000
REMARK  12 active torsions:
REMARK  status: ('A' for Active; 'I' for Inactive)
REMARK    1  A    between atoms: C7_7  and  C8_8
REMARK    2  A    between atoms: C8_8  and  C9_9
REMARK    3  A    between atoms: C14_15  and  C15_16
REMARK    4  A    between atoms: C17_18  and  O2_19
REMARK    5  A    between atoms: O2_19  and  C18_20
REMARK    6  A    between atoms: C18_20  and  C19_21
REMARK    7  A    between atoms: C19_21  and  O3_22
REMARK    8  A    between atoms: C19_21  and  C20_24
REMARK    9  A    between atoms: C20_24  and  O4_25
REMARK   10  A    between atoms: O4_25  and  C21_26
REMARK   11  A    between atoms: C24_29  and  C25_30
REMARK   12  A    between atoms: C25_30  and  O5_31
ROOT
HETATM    1  C19 UNL     1      21.198   0.271  19.411  1.00  0.00     0.165 C
ENDROOT
BRANCH   1   2
HETATM    2  C18 UNL     1      20.038   0.125  18.510  1.00  0.00     0.202 C
BRANCH   2   3
HETATM    3  O2  UNL     1      20.180   0.224  17.174  1.00  0.00    -0.378 OA
BRANCH   3   4
HETATM    4  C17 UNL     1      19.157   0.650  16.414  1.00  0.00     0.159 C
HETATM    5  C2  UNL     1      19.168   2.115  16.138  1.00  0.00    -0.060 C
HETATM    6  C1  UNL     1      20.156   2.941  16.378  1.00  0.00     0.017 C
HETATM    7  C3  UNL     1      17.909   2.615  15.544  1.00  0.00     0.037 C
HETATM    8  C4  UNL     1      17.260   1.700  14.611  1.00  0.00     0.016 C
HETATM    9  C5  UNL     1      17.696   0.275  14.536  1.00  0.00     0.054 C
HETATM   10  C6  UNL     1      17.543  -0.095  13.112  1.00  0.00     0.047 C
HETATM   11  C14 UNL     1      19.088  -0.025  15.020  1.00  0.00     0.001 C
HETATM   12  C7  UNL     1      16.597  -0.814  12.631  1.00  0.00     0.006 C
HETATM   13  O1  UNL     1      18.566   0.436  12.284  1.00  0.00    -0.355 OA
HETATM   14  C12 UNL     1      19.689   1.036  12.817  1.00  0.00     0.176 C
HETATM   15  C13 UNL     1      20.155   0.484  14.121  1.00  0.00     0.040 C
BRANCH  12  16
HETATM   16  C8  UNL     1      15.489  -1.410  13.359  1.00  0.00     0.033 C
BRANCH  16  17
HETATM   17  C9  UNL     1      15.448  -2.931  13.215  1.00  0.00    -0.019 C
HETATM   18  C10 UNL     1      14.024  -3.359  13.495  1.00  0.00     0.010 C
HETATM   19  C11 UNL     1      16.425  -3.518  14.183  1.00  0.00     0.010 C
ENDBRANCH  16  17
ENDBRANCH  12  16
BRANCH  11  20
HETATM   20  C15 UNL     1      19.261  -1.497  15.335  1.00  0.00     0.009 C
HETATM   21  C16 UNL     1      20.123  -2.297  14.445  1.00  0.00     0.006 C
ENDBRANCH  11  20
ENDBRANCH   3   4
ENDBRANCH   2   3
ENDBRANCH   1   2
BRANCH   1  22
HETATM   22  O3  UNL     1      21.898   1.445  19.376  1.00  0.00    -0.391 OA
ATOM     23  H3  UNL     1      22.711   1.468  18.885  1.00  0.00     0.210 HD
ENDBRANCH   1  22
BRANCH   1  24
HETATM   24  C20 UNL     1      22.133  -0.956  19.424  1.00  0.00     0.202 C
BRANCH  24  25
HETATM   25  O4  UNL     1      21.891  -1.609  20.569  1.00  0.00    -0.382 OA
BRANCH  25  26
HETATM   26  C21 UNL     1      22.198  -2.895  20.752  1.00  0.00     0.133 C
HETATM   27  C22 UNL     1      22.945  -3.037  22.064  1.00  0.00     0.018 C
HETATM   28  C23 UNL     1      24.106  -2.110  22.030  1.00  0.00     0.013 C
HETATM   29  C24 UNL     1      21.946  -2.776  23.155  1.00  0.00     0.026 C
HETATM   30  C30 UNL     1      21.086  -3.993  23.214  1.00  0.00     0.009 C
HETATM   31  C31 UNL     1      20.301  -4.113  21.902  1.00  0.00     0.012 C
HETATM   32  C32 UNL     1      21.137  -3.930  20.690  1.00  0.00    -0.021 C
HETATM   33  C33 UNL     1      21.829  -5.256  20.412  1.00  0.00     0.017 C
HETATM   34  C34 UNL     1      20.191  -3.706  19.515  1.00  0.00     0.017 C
BRANCH  29  35
HETATM   35  C25 UNL     1      22.552  -2.448  24.477  1.00  0.00     0.062 C
HETATM   36  C26 UNL     1      23.725  -3.267  24.879  1.00  0.00     0.038 C
HETATM   37  C27 UNL     1      23.632  -3.386  26.393  1.00  0.00     0.003 C
HETATM   38  C28 UNL     1      22.422  -2.615  26.814  1.00  0.00     0.003 C
HETATM   39  C29 UNL     1      21.513  -2.612  25.577  1.00  0.00     0.038 C
BRANCH  35  40
HETATM   40  O5  UNL     1      22.927  -1.100  24.564  1.00  0.00    -0.389 OA
ATOM     41  H5  UNL     1      22.568  -0.679  25.336  1.00  0.00     0.210 HD
ENDBRANCH  35  40
ENDBRANCH  29  35
ENDBRANCH  25  26
ENDBRANCH  24  25
ENDBRANCH   1  24
TORSDOF 12
ENDMDL