MODEL 2
REMARK VINA RESULT: -5.461699283      0.585      1.896
REMARK  12 active torsions:
REMARK  status: ('A' for Active; 'I' for Inactive)
REMARK    1  A    between atoms: C2_2  and  C3_3
REMARK    2  A    between atoms: C3_3  and  C4_4
REMARK    3  A    between atoms: C4_4  and  O1_6
REMARK    4  A    between atoms: C4_4  and  C31_38
REMARK    5  A    between atoms: O1_6  and  C6_7
REMARK    6  A    between atoms: C6_7  and  C7_8
REMARK    7  A    between atoms: C8_9  and  C9_10
REMARK    8  A    between atoms: C9_10  and  C10_11
REMARK    9  A    between atoms: C15_16  and  O2_17
REMARK   10  A    between atoms: C23_26  and  O3_27
REMARK   11  A    between atoms: C24_29  and  C26_31
REMARK   12  A    between atoms: C28_34  and  O5_36
ROOT
HETATM    1  C10 UNL     1      19.558  -0.201  12.855  1.00  0.00     0.014 C
HETATM    2  C11 UNL     1      20.835   0.598  12.509  1.00  0.00     0.023 C
HETATM    3  C12 UNL     1      19.990  -1.453  13.399  1.00  0.00    -0.061 C
HETATM    4  C13 UNL     1      21.465  -1.857  13.084  1.00  0.00     0.038 C
HETATM    5  C14 UNL     1      21.537  -3.372  13.090  1.00  0.00     0.037 C
HETATM    6  C15 UNL     1      20.938  -4.064  14.244  1.00  0.00     0.130 C
HETATM    7  C16 UNL     1      19.577  -3.531  14.669  1.00  0.00     0.005 C
HETATM    8  C17 UNL     1      19.062  -4.142  15.893  1.00  0.00     0.022 C
HETATM    9  C18 UNL     1      18.625  -3.895  13.554  1.00  0.00     0.022 C
HETATM   10  C19 UNL     1      19.830  -2.019  14.725  1.00  0.00    -0.048 C
HETATM   11  C20 UNL     1      19.945  -1.586  15.941  1.00  0.00    -0.012 C
HETATM   12  C21 UNL     1      20.308  -0.285  16.525  1.00  0.00     0.034 C
HETATM   13  C22 UNL     1      20.840  -0.605  17.952  1.00  0.00     0.017 C
HETATM   14  C23 UNL     1      19.139   0.575  16.732  1.00  0.00     0.140 C
HETATM   15  C24 UNL     1      19.089   1.813  15.884  1.00  0.00     0.038 C
HETATM   16  C25 UNL     1      20.135   2.756  16.527  1.00  0.00     0.025 C
HETATM   17  C27 UNL     1      19.613   1.573  14.501  1.00  0.00     0.057 C
HETATM   18  C28 UNL     1      18.687   0.764  13.617  1.00  0.00     0.069 C
HETATM   19  C29 UNL     1      18.135   1.844  12.667  1.00  0.00     0.047 C
ENDROOT
BRANCH   1  20
HETATM   20  C9  UNL     1      18.890  -0.378  11.464  1.00  0.00     0.043 C
BRANCH  20  21
HETATM   21  C8  UNL     1      18.004  -1.525  11.343  1.00  0.00    -0.027 C
HETATM   22  C7  UNL     1      16.761  -1.490  10.884  1.00  0.00    -0.005 C
BRANCH  22  23
HETATM   23  C6  UNL     1      15.875  -2.692  10.773  1.00  0.00     0.196 C
BRANCH  23  24
HETATM   24  O1  UNL     1      15.705  -3.282  11.986  1.00  0.00    -0.376 OA
BRANCH  24  25
HETATM   25  C4  UNL     1      14.378  -3.368  12.444  1.00  0.00     0.067 C
HETATM   26  C5  UNL     1      14.452  -2.832  13.878  1.00  0.00     0.047 C
BRANCH  25  27
HETATM   27  C3  UNL     1      13.461  -2.492  11.685  1.00  0.00     0.065 C
BRANCH  27  28
HETATM   28  C2  UNL     1      12.788  -1.417  12.446  1.00  0.00    -0.034 C
HETATM   29  C1  UNL     1      11.465  -1.216  12.275  1.00  0.00     0.007 C
ENDBRANCH  27  28
ENDBRANCH  25  27
BRANCH  25  30
HETATM   30  C31 UNL     1      14.036  -4.816  12.514  1.00  0.00    -0.020 C
HETATM   31  C32 UNL     1      12.888  -4.945  13.532  1.00  0.00     0.017 C
HETATM   32  C33 UNL     1      15.175  -5.647  13.091  1.00  0.00     0.017 C
HETATM   33  C34 UNL     1      13.574  -5.473  11.274  1.00  0.00     0.017 C
ENDBRANCH  25  30
ENDBRANCH  24  25
ENDBRANCH  23  24
ENDBRANCH  22  23
ENDBRANCH  20  21
ENDBRANCH   1  20
BRANCH  18  34
HETATM   34  O5  UNL     1      17.646   0.313  14.289  1.00  0.00    -0.384 OA
HETATM   35  C30 UNL     1      16.385   0.234  14.026  1.00  0.00     0.202 C
ENDBRANCH  18  34
BRANCH  15  36
HETATM   36  C26 UNL     1      17.826   2.535  15.977  1.00  0.00     0.243 C
HETATM   37  O4  UNL     1      17.663   3.697  15.592  1.00  0.00    -0.306 OA
ENDBRANCH  15  36
BRANCH   6  38
HETATM   38  O2  UNL     1      20.889  -5.412  13.993  1.00  0.00    -0.394 OA
ATOM     39  H2  UNL     1      21.467  -5.867  14.593  1.00  0.00     0.210 HD
ENDBRANCH   6  38
BRANCH  14  40
HETATM   40  O3  UNL     1      19.066   1.059  18.069  1.00  0.00    -0.394 OA
ATOM     41  H3  UNL     1      19.916   1.059  18.493  1.00  0.00     0.210 HD
ENDBRANCH  14  40
TORSDOF 12
ENDMDL