MODEL 1
REMARK VINA RESULT: -7.887294955      0.000      0.000
REMARK  11 active torsions:
REMARK  status: ('A' for Active; 'I' for Inactive)
REMARK    1  A    between atoms: C2_2  and  C3_3
REMARK    2  A    between atoms: C2_2  and  C4_6
REMARK    3  A    between atoms: C3_3  and  O1_4
REMARK    4  A    between atoms: C4_6  and  O2_7
REMARK    5  A    between atoms: C4_6  and  C5_9
REMARK    6  A    between atoms: C5_9  and  C6_10
REMARK    7  A    between atoms: C6_10  and  C7_11
REMARK    8  A    between atoms: C7_11  and  C9_13
REMARK    9  A    between atoms: C12_16  and  C13_17
REMARK   10  A    between atoms: C13_17  and  C15_19
REMARK   11  A    between atoms: C15_19  and  C16_20
ROOT
HETATM    1  C16 UNL     1      20.673  -4.876  21.339  1.00  0.00    -0.036 C
HETATM    2  C17 UNL     1      20.875  -6.299  20.784  1.00  0.00     0.016 C
HETATM    3  C18 UNL     1      19.341  -4.458  20.814  1.00  0.00     0.010 C
HETATM    4  C19 UNL     1      18.399  -4.781  22.009  1.00  0.00     0.007 C
HETATM    5  C20 UNL     1      19.260  -4.200  23.043  1.00  0.00     0.005 C
HETATM    6  C21 UNL     1      18.700  -3.985  24.409  1.00  0.00    -0.013 C
HETATM    7  C22 UNL     1      18.166  -5.212  24.997  1.00  0.00     0.018 C
HETATM    8  C23 UNL     1      17.677  -2.884  24.251  1.00  0.00     0.019 C
HETATM    9  C24 UNL     1      16.685  -2.735  25.334  1.00  0.00     0.080 C
HETATM   10  C25 UNL     1      17.209  -2.225  26.607  1.00  0.00     0.137 C
HETATM   11  O3  UNL     1      17.101  -1.014  26.677  1.00  0.00    -0.297 OA
HETATM   12  C26 UNL     1      17.845  -2.732  27.867  1.00  0.00     0.035 C
HETATM   13  C27 UNL     1      18.102  -1.617  28.828  1.00  0.00     0.025 C
HETATM   14  C28 UNL     1      16.972  -3.768  28.555  1.00  0.00     0.025 C
HETATM   15  C29 UNL     1      19.158  -3.396  27.409  1.00  0.00     0.184 C
HETATM   16  O4  UNL     1      19.586  -2.754  26.321  1.00  0.00    -0.384 OA
HETATM   17  C30 UNL     1      19.862  -3.335  25.157  1.00  0.00     0.130 C
HETATM   18  C31 UNL     1      21.123  -4.161  25.100  1.00  0.00     0.033 C
HETATM   19  C32 UNL     1      21.595  -4.310  23.649  1.00  0.00     0.013 C
HETATM   20  C33 UNL     1      20.506  -4.967  22.878  1.00  0.00    -0.032 C
HETATM   21  C34 UNL     1      20.493  -6.402  23.292  1.00  0.00     0.016 C
ENDROOT
BRANCH   1  22
HETATM   22  C15 UNL     1      21.847  -4.023  21.053  1.00  0.00     0.014 C
BRANCH  22  23
HETATM   23  C13 UNL     1      21.632  -2.640  20.572  1.00  0.00    -0.014 C
HETATM   24  C14 UNL     1      22.518  -1.642  21.327  1.00  0.00     0.010 C
BRANCH  23  25
HETATM   25  C12 UNL     1      22.023  -2.491  19.092  1.00  0.00    -0.010 C
HETATM   26  C11 UNL     1      20.879  -2.856  18.158  1.00  0.00     0.005 C
HETATM   27  C10 UNL     1      19.898  -1.689  18.318  1.00  0.00     0.005 C
HETATM   28  C9  UNL     1      20.720  -0.514  18.732  1.00  0.00    -0.007 C
HETATM   29  C35 UNL     1      22.147  -1.006  18.715  1.00  0.00     0.010 C
BRANCH  28  30
HETATM   30  C7  UNL     1      20.520   0.712  17.829  1.00  0.00     0.008 C
HETATM   31  C8  UNL     1      19.419   1.578  18.325  1.00  0.00     0.014 C
BRANCH  30  32
HETATM   32  C6  UNL     1      20.545   0.355  16.416  1.00  0.00    -0.020 C
BRANCH  32  33
HETATM   33  C5  UNL     1      19.813   0.956  15.326  1.00  0.00     0.029 C
BRANCH  33  34
HETATM   34  C4  UNL     1      18.600   0.561  14.660  1.00  0.00     0.049 C
BRANCH  34  35
HETATM   35  C2  UNL     1      17.354   1.336  14.626  1.00  0.00     0.062 C
HETATM   36  C1  UNL     1      16.979   1.478  13.109  1.00  0.00     0.019 C
BRANCH  35  37
HETATM   37  C3  UNL     1      17.528   2.760  15.100  1.00  0.00     0.175 C
BRANCH  37  38
HETATM   38  O1  UNL     1      17.039   2.887  16.419  1.00  0.00    -0.400 OA
ATOM     39  H1  UNL     1      17.724   3.226  16.984  1.00  0.00     0.209 HD
ENDBRANCH  37  38
ENDBRANCH  35  37
ENDBRANCH  34  35
BRANCH  34  40
HETATM   40  O2  UNL     1      18.283  -0.809  14.912  1.00  0.00    -0.365 OA
ATOM     41  H2  UNL     1      18.171  -0.930  15.848  1.00  0.00     0.217 HD
ENDBRANCH  34  40
ENDBRANCH  33  34
ENDBRANCH  32  33
ENDBRANCH  30  32
ENDBRANCH  28  30
ENDBRANCH  23  25
ENDBRANCH  22  23
ENDBRANCH   1  22
TORSDOF 11
ENDMDL