MODEL 4
REMARK VINA RESULT: -6.550345824      1.469      2.479
REMARK  11 active torsions:
REMARK  status: ('A' for Active; 'I' for Inactive)
REMARK    1  A    between atoms: C2_2  and  C3_3
REMARK    2  A    between atoms: C3_3  and  O1_4
REMARK    3  A    between atoms: C11_15  and  O4_17
REMARK    4  A    between atoms: C13_19  and  C14_20
REMARK    5  A    between atoms: C14_20  and  C15_21
REMARK    6  A    between atoms: C15_21  and  C16_22
REMARK    7  A    between atoms: C17_23  and  C19_25
REMARK    8  A    between atoms: C19_25  and  C20_26
REMARK    9  A    between atoms: C20_26  and  C21_27
REMARK   10  A    between atoms: C25_31  and  C26_32
REMARK   11  A    between atoms: C26_32  and  C27_33
ROOT
HETATM    1  C3  UNL     1      20.055   0.768  17.961  1.00  0.00     0.144 C
HETATM    2  C4  UNL     1      21.147   0.657  18.908  1.00  0.00     0.163 C
HETATM    3  O2  UNL     1      21.321   1.457  19.785  1.00  0.00    -0.295 OA
HETATM    4  C5  UNL     1      22.058  -0.492  18.757  1.00  0.00     0.083 C
HETATM    5  C6  UNL     1      21.208  -1.722  18.840  1.00  0.00     0.020 C
HETATM    6  C7  UNL     1      20.079  -1.778  17.881  1.00  0.00    -0.001 C
HETATM    7  C8  UNL     1      19.065  -2.750  18.494  1.00  0.00     0.019 C
HETATM    8  C9  UNL     1      20.540  -2.220  16.511  1.00  0.00     0.099 C
HETATM    9  C10 UNL     1      20.701  -3.650  16.321  1.00  0.00     0.168 C
HETATM   10  O3  UNL     1      21.058  -4.368  17.220  1.00  0.00    -0.294 OA
HETATM   11  C11 UNL     1      20.397  -4.163  14.949  1.00  0.00     0.119 C
HETATM   12  C12 UNL     1      20.559  -5.644  14.998  1.00  0.00     0.055 C
HETATM   13  C13 UNL     1      18.949  -3.810  14.697  1.00  0.00     0.034 C
HETATM   14  C25 UNL     1      18.570  -2.384  14.881  1.00  0.00     0.023 C
HETATM   15  C33 UNL     1      19.630  -1.546  15.552  1.00  0.00     0.139 C
HETATM   16  O5  UNL     1      19.160  -0.448  16.204  1.00  0.00    -0.375 OA
HETATM   17  C34 UNL     1      19.398  -0.506  17.556  1.00  0.00     0.172 C
ENDROOT
BRANCH  13  18
HETATM   18  C14 UNL     1      18.281  -4.596  13.651  1.00  0.00     0.012 C
BRANCH  18  19
HETATM   19  C15 UNL     1      16.944  -5.176  13.854  1.00  0.00     0.028 C
BRANCH  19  20
HETATM   20  C16 UNL     1      15.923  -4.617  12.893  1.00  0.00    -0.024 C
HETATM   21  C17 UNL     1      15.060  -3.657  13.219  1.00  0.00    -0.087 C
HETATM   22  C18 UNL     1      14.994  -3.032  14.538  1.00  0.00     0.043 C
BRANCH  21  23
HETATM   23  C19 UNL     1      14.104  -3.253  12.173  1.00  0.00     0.037 C
BRANCH  23  24
HETATM   24  C20 UNL     1      12.726  -2.945  12.662  1.00  0.00     0.031 C
BRANCH  24  25
HETATM   25  C21 UNL     1      12.218  -1.592  12.407  1.00  0.00    -0.024 C
HETATM   26  C22 UNL     1      10.974  -1.397  12.044  1.00  0.00    -0.091 C
HETATM   27  C23 UNL     1      10.430  -0.026  11.775  1.00  0.00     0.042 C
HETATM   28  C24 UNL     1      10.037  -2.544  11.880  1.00  0.00     0.042 C
ENDBRANCH  24  25
ENDBRANCH  23  24
ENDBRANCH  21  23
ENDBRANCH  19  20
ENDBRANCH  18  19
ENDBRANCH  13  18
BRANCH  11  29
HETATM   29  O4  UNL     1      21.284  -3.528  14.108  1.00  0.00    -0.382 OA
ATOM     30  H4  UNL     1      20.885  -3.554  13.245  1.00  0.00     0.211 HD
ENDBRANCH  11  29
BRANCH  14  31
HETATM   31  C26 UNL     1      18.193  -1.669  13.613  1.00  0.00     0.012 C
BRANCH  31  32
HETATM   32  C27 UNL     1      17.950  -0.218  13.642  1.00  0.00    -0.014 C
HETATM   33  C28 UNL     1      18.253   0.281  12.214  1.00  0.00     0.005 C
HETATM   34  C29 UNL     1      17.187   1.134  11.631  1.00  0.00     0.000 C
HETATM   35  C30 UNL     1      16.972   2.308  12.566  1.00  0.00     0.000 C
HETATM   36  C31 UNL     1      16.536   1.744  13.876  1.00  0.00     0.000 C
HETATM   37  C32 UNL     1      16.550   0.229  13.915  1.00  0.00     0.005 C
ENDBRANCH  31  32
ENDBRANCH  14  31
BRANCH   1  38
HETATM   38  C2  UNL     1      20.615   1.490  16.724  1.00  0.00     0.044 C
HETATM   39  C1  UNL     1      19.942   2.839  16.564  1.00  0.00     0.009 C
ENDBRANCH   1  38
BRANCH   1  40
HETATM   40  O1  UNL     1      19.120   1.693  18.487  1.00  0.00    -0.379 OA
ATOM     41  H1  UNL     1      19.658   2.436  18.735  1.00  0.00     0.211 HD
ENDBRANCH   1  40
TORSDOF 11
ENDMDL