MODEL 1
REMARK VINA RESULT: -6.918482409      0.000      0.000
REMARK  11 active torsions:
REMARK  status: ('A' for Active; 'I' for Inactive)
REMARK    1  A    between atoms: C2_2  and  O1_3
REMARK    2  A    between atoms: O1_3  and  C3_4
REMARK    3  A    between atoms: C5_7  and  O3_8
REMARK    4  A    between atoms: O3_8  and  C6_9
REMARK    5  A    between atoms: C20_23  and  C21_24
REMARK    6  A    between atoms: C21_24  and  C23_26
REMARK    7  A    between atoms: C23_26  and  C24_27
REMARK    8  A    between atoms: C24_27  and  C25_28
REMARK    9  A    between atoms: C25_28  and  C26_29
REMARK   10  A    between atoms: C33_36  and  O4_37
REMARK   11  A    between atoms: C34_39  and  O5_40
ROOT
HETATM    1  C6  UNL     1      19.660  -1.762  14.309  1.00  0.00     0.122 C
HETATM    2  C7  UNL     1      20.377  -1.532  13.032  1.00  0.00     0.033 C
HETATM    3  C8  UNL     1      19.580  -0.890  11.948  1.00  0.00     0.012 C
HETATM    4  C9  UNL     1      19.009   0.422  12.516  1.00  0.00    -0.036 C
HETATM    5  C10 UNL     1      20.190   1.142  13.116  1.00  0.00     0.016 C
HETATM    6  C11 UNL     1      17.998  -0.022  13.548  1.00  0.00    -0.004 C
HETATM    7  C12 UNL     1      17.153   1.070  14.105  1.00  0.00     0.006 C
HETATM    8  C13 UNL     1      17.034   2.275  13.200  1.00  0.00     0.006 C
HETATM    9  C14 UNL     1      17.032   1.740  11.776  1.00  0.00    -0.005 C
HETATM   10  C15 UNL     1      18.371   1.161  11.388  1.00  0.00    -0.002 C
HETATM   11  C16 UNL     1      19.209   2.251  10.801  1.00  0.00     0.006 C
HETATM   12  C17 UNL     1      18.469   2.711   9.517  1.00  0.00     0.010 C
HETATM   13  C18 UNL     1      17.342   3.534   9.990  1.00  0.00    -0.036 C
HETATM   14  C19 UNL     1      17.822   4.750  10.788  1.00  0.00     0.016 C
HETATM   15  C20 UNL     1      16.366   4.065   8.983  1.00  0.00    -0.002 C
HETATM   16  C29 UNL     1      15.380   2.952   8.718  1.00  0.00     0.006 C
HETATM   17  C30 UNL     1      15.693   1.865   9.757  1.00  0.00     0.006 C
HETATM   18  C31 UNL     1      16.430   2.667  10.821  1.00  0.00    -0.002 C
HETATM   19  C32 UNL     1      18.620  -0.773  14.666  1.00  0.00     0.037 C
ENDROOT
BRANCH   1  20
HETATM   20  O3  UNL     1      20.616  -1.750  15.353  1.00  0.00    -0.376 OA
BRANCH  20  21
HETATM   21  C5  UNL     1      20.119  -2.225  16.539  1.00  0.00     0.177 C
HETATM   22  C4  UNL     1      20.912  -3.463  16.923  1.00  0.00     0.205 C
HETATM   23  O2  UNL     1      21.400  -3.388  18.227  1.00  0.00    -0.356 OA
HETATM   24  C3  UNL     1      20.408  -3.086  19.153  1.00  0.00     0.290 C
HETATM   25  C34 UNL     1      20.039  -1.634  18.980  1.00  0.00     0.204 C
HETATM   26  C33 UNL     1      20.447  -1.176  17.605  1.00  0.00     0.182 C
BRANCH  24  27
HETATM   27  O1  UNL     1      19.314  -3.922  19.079  1.00  0.00    -0.359 OA
BRANCH  27  28
HETATM   28  C2  UNL     1      19.381  -4.885  20.111  1.00  0.00     0.166 C
HETATM   29  C1  UNL     1      18.533  -4.493  21.279  1.00  0.00     0.033 C
ENDBRANCH  27  28
ENDBRANCH  24  27
BRANCH  25  30
HETATM   30  O5  UNL     1      18.672  -1.512  19.209  1.00  0.00    -0.388 OA
ATOM     31  H5  UNL     1      18.276  -1.158  18.421  1.00  0.00     0.210 HD
ENDBRANCH  25  30
BRANCH  26  32
HETATM   32  O4  UNL     1      21.842  -1.022  17.599  1.00  0.00    -0.390 OA
ATOM     33  H4  UNL     1      22.093  -0.796  18.487  1.00  0.00     0.210 HD
ENDBRANCH  26  32
ENDBRANCH  20  21
ENDBRANCH   1  20
BRANCH  15  34
HETATM   34  C21 UNL     1      16.894   4.763   7.804  1.00  0.00    -0.014 C
HETATM   35  C22 UNL     1      16.862   4.020   6.497  1.00  0.00     0.010 C
BRANCH  34  36
HETATM   36  C23 UNL     1      16.452   6.169   7.560  1.00  0.00     0.005 C
BRANCH  36  37
HETATM   37  C24 UNL     1      15.577   6.813   8.554  1.00  0.00     0.001 C
BRANCH  37  38
HETATM   38  C25 UNL     1      14.198   7.026   7.929  1.00  0.00     0.004 C
BRANCH  38  39
HETATM   39  C26 UNL     1      13.302   5.823   8.056  1.00  0.00    -0.023 C
HETATM   40  C27 UNL     1      12.895   5.417   6.657  1.00  0.00     0.009 C
HETATM   41  C28 UNL     1      12.001   6.235   8.765  1.00  0.00     0.009 C
ENDBRANCH  38  39
ENDBRANCH  37  38
ENDBRANCH  36  37
ENDBRANCH  34  36
ENDBRANCH  15  34
TORSDOF 11
ENDMDL