MODEL 1
REMARK VINA RESULT: -6.649096035      0.000      0.000
REMARK  13 active torsions:
REMARK  status: ('A' for Active; 'I' for Inactive)
REMARK    1  A    between atoms: C2_2  and  N2_6
REMARK    2  A    between atoms: N2_6  and  C3_8
REMARK    3  A    between atoms: C3_8  and  C4_9
REMARK    4  A    between atoms: C4_9  and  C5_10
REMARK    5  A    between atoms: C5_10  and  C6_11
REMARK    6  A    between atoms: C6_11  and  C8_13
REMARK    7  A    between atoms: C6_11  and  C13_18
REMARK    8  A    between atoms: C9_14  and  C10_15
REMARK    9  A    between atoms: C17_24  and  C19_26
REMARK   10  A    between atoms: C19_26  and  C20_27
REMARK   11  A    between atoms: C20_27  and  C21_28
REMARK   12  A    between atoms: C31_38  and  O3_39
REMARK   13  A    between atoms: O3_39  and  C32_40
ROOT
HETATM    1  C13 UNL     1      18.435   0.633  12.820  1.00  0.00     0.177 C
HETATM    2  O1  UNL     1      17.093   0.497  12.541  1.00  0.00    -0.346 OA
HETATM    3  C14 UNL     1      16.856   0.433  11.198  1.00  0.00     0.158 C
HETATM    4  C15 UNL     1      15.340   0.289  10.971  1.00  0.00     0.078 C
HETATM    5  C16 UNL     1      17.433  -0.903  10.706  1.00  0.00     0.078 C
HETATM    6  O2  UNL     1      17.391   1.433  10.452  1.00  0.00    -0.343 OA
HETATM    7  C17 UNL     1      18.006   2.467  11.208  1.00  0.00     0.090 C
HETATM    8  C18 UNL     1      16.975   3.225  11.936  1.00  0.00     0.049 C
HETATM    9  C31 UNL     1      19.044   1.745  12.063  1.00  0.00     0.196 C
ENDROOT
BRANCH   1  10
HETATM   10  C6  UNL     1      18.599   0.590  14.327  1.00  0.00     0.049 C
HETATM   11  C7  UNL     1      17.279   1.017  14.994  1.00  0.00     0.032 C
BRANCH  10  12
HETATM   12  C5  UNL     1      19.670   1.439  14.837  1.00  0.00     0.026 C
BRANCH  12  13
HETATM   13  C4  UNL     1      19.435   2.477  15.847  1.00  0.00     0.021 C
BRANCH  13  14
HETATM   14  C3  UNL     1      20.396   2.712  16.944  1.00  0.00     0.121 C
BRANCH  14  15
HETATM   15  N2  UNL     1      19.905   2.259  18.245  1.00  0.00    -0.380 N
ATOM     16  H2  UNL     1      19.168   2.760  18.740  1.00  0.00     0.160 HD
BRANCH  15  17
HETATM   17  C2  UNL     1      20.501   1.092  18.785  1.00  0.00     0.066 C
HETATM   18  C1  UNL     1      19.936  -0.262  18.460  1.00  0.00     0.088 C
HETATM   19  N1  UNL     1      21.529   1.153  19.561  1.00  0.00    -0.389 N
ATOM     20  H12 UNL     1      21.958   0.313  19.950  1.00  0.00     0.157 HD
ATOM     21  H11 UNL     1      21.913   2.072  19.782  1.00  0.00     0.157 HD
ENDBRANCH  15  17
ENDBRANCH  14  15
ENDBRANCH  13  14
ENDBRANCH  12  13
ENDBRANCH  10  12
BRANCH  10  22
HETATM   22  C8  UNL     1      18.774  -0.820  14.680  1.00  0.00    -0.094 C
HETATM   23  C9  UNL     1      18.938  -2.015  14.928  1.00  0.00    -0.102 C
BRANCH  23  24
HETATM   24  C10 UNL     1      19.116  -3.445  15.217  1.00  0.00     0.057 C
HETATM   25  C11 UNL     1      17.799  -4.172  15.032  1.00  0.00     0.023 C
HETATM   26  C12 UNL     1      19.640  -3.549  16.609  1.00  0.00     0.023 C
ENDBRANCH  23  24
ENDBRANCH  10  22
ENDBRANCH   1  10
BRANCH   9  27
HETATM   27  O3  UNL     1      20.120   1.311  11.257  1.00  0.00    -0.310 OA
BRANCH  27  28
HETATM   28  C32 UNL     1      21.435   1.222  11.504  1.00  0.00     0.255 C
HETATM   29  C33 UNL     1      21.985  -0.106  11.939  1.00  0.00     0.126 C
HETATM   30  O4  UNL     1      22.144   2.222  11.367  1.00  0.00    -0.266 OA
ENDBRANCH  27  28
ENDBRANCH   9  27
BRANCH   7  31
HETATM   31  C19 UNL     1      18.589   3.373  10.161  1.00  0.00     0.041 C
BRANCH  31  32
HETATM   32  C20 UNL     1      18.230   3.098   8.755  1.00  0.00     0.012 C
BRANCH  32  33
HETATM   33  C21 UNL     1      17.187   4.058   8.227  1.00  0.00    -0.039 C
HETATM   34  C22 UNL     1      17.052   5.305   9.034  1.00  0.00     0.014 C
HETATM   35  C23 UNL     1      16.022   6.191   8.408  1.00  0.00    -0.013 C
HETATM   36  C24 UNL     1      16.455   6.635   7.032  1.00  0.00     0.009 C
HETATM   37  C28 UNL     1      14.680   5.494   8.375  1.00  0.00     0.009 C
HETATM   38  C25 UNL     1      16.615   5.402   6.185  1.00  0.00    -0.013 C
HETATM   39  C26 UNL     1      15.254   4.743   6.063  1.00  0.00     0.009 C
HETATM   40  C30 UNL     1      17.595   4.455   6.800  1.00  0.00     0.014 C
HETATM   41  C27 UNL     1      14.844   4.302   7.428  1.00  0.00    -0.013 C
HETATM   42  C29 UNL     1      15.842   3.380   8.084  1.00  0.00     0.014 C
ENDBRANCH  32  33
ENDBRANCH  31  32
ENDBRANCH   7  31
TORSDOF 13
ENDMDL