MODEL 4
REMARK VINA RESULT: -5.949583578      7.294     13.300
REMARK  12 active torsions:
REMARK  status: ('A' for Active; 'I' for Inactive)
REMARK    1  A    between atoms: C2_2  and  O2_4
REMARK    2  A    between atoms: O2_4  and  C3_5
REMARK    3  A    between atoms: C14_16  and  C16_18
REMARK    4  A    between atoms: C16_18  and  C17_19
REMARK    5  A    between atoms: C17_19  and  C18_20
REMARK    6  A    between atoms: C18_20  and  C19_21
REMARK    7  A    between atoms: C18_20  and  C24_28
REMARK    8  A    between atoms: C19_21  and  C20_22
REMARK    9  A    between atoms: C21_23  and  C23_25
REMARK   10  A    between atoms: C23_25  and  O3_26
REMARK   11  A    between atoms: C25_30  and  C26_31
REMARK   12  A    between atoms: C26_31  and  O5_34
ROOT
HETATM    1  C3  UNL     1      23.268  -3.568  24.399  1.00  0.00     0.144 C
HETATM    2  C4  UNL     1      23.586  -3.152  25.781  1.00  0.00     0.035 C
HETATM    3  C5  UNL     1      22.877  -4.080  26.699  1.00  0.00     0.016 C
HETATM    4  C6  UNL     1      21.380  -3.680  26.651  1.00  0.00    -0.019 C
HETATM    5  C7  UNL     1      20.716  -4.962  27.069  1.00  0.00     0.020 C
HETATM    6  C8  UNL     1      21.316  -2.647  27.751  1.00  0.00     0.023 C
HETATM    7  C9  UNL     1      20.042  -2.067  28.149  1.00  0.00     0.023 C
HETATM    8  C10 UNL     1      18.840  -2.463  27.466  1.00  0.00    -0.075 C
HETATM    9  C11 UNL     1      18.630  -2.852  26.208  1.00  0.00     0.003 C
HETATM   10  C12 UNL     1      19.557  -3.002  25.101  1.00  0.00     0.005 C
HETATM   11  C13 UNL     1      20.992  -3.152  25.291  1.00  0.00    -0.061 C
HETATM   12  C14 UNL     1      21.723  -3.757  24.148  1.00  0.00     0.007 C
HETATM   13  C15 UNL     1      21.543  -5.220  23.922  1.00  0.00     0.023 C
HETATM   14  C29 UNL     1      17.521  -2.444  28.127  1.00  0.00     0.034 C
HETATM   15  C30 UNL     1      17.466  -2.104  29.562  1.00  0.00     0.005 C
HETATM   16  C31 UNL     1      18.660  -1.346  30.073  1.00  0.00     0.010 C
HETATM   17  C32 UNL     1      19.864  -2.199  29.633  1.00  0.00    -0.040 C
HETATM   18  C33 UNL     1      21.056  -1.642  30.395  1.00  0.00     0.015 C
HETATM   19  C34 UNL     1      19.593  -3.596  30.115  1.00  0.00     0.015 C
ENDROOT
BRANCH  12  20
HETATM   20  C16 UNL     1      21.559  -3.022  22.839  1.00  0.00     0.017 C
BRANCH  20  21
HETATM   21  C17 UNL     1      22.514  -2.048  22.356  1.00  0.00     0.009 C
BRANCH  21  22
HETATM   22  C18 UNL     1      22.676  -1.985  20.812  1.00  0.00     0.021 C
BRANCH  22  23
HETATM   23  C19 UNL     1      22.356  -3.462  20.395  1.00  0.00     0.034 C
BRANCH  23  24
HETATM   24  C20 UNL     1      21.746  -3.478  19.060  1.00  0.00    -0.022 C
HETATM   25  C21 UNL     1      20.599  -4.103  18.878  1.00  0.00    -0.064 C
HETATM   26  C22 UNL     1      19.935  -4.779  20.005  1.00  0.00     0.045 C
BRANCH  25  27
HETATM   27  C23 UNL     1      19.984  -4.121  17.535  1.00  0.00     0.197 C
BRANCH  27  28
HETATM   28  O3  UNL     1      18.799  -3.422  17.447  1.00  0.00    -0.397 OA
ATOM     29  H3  UNL     1      18.192  -3.764  16.801  1.00  0.00     0.209 HD
ENDBRANCH  27  28
ENDBRANCH  25  27
ENDBRANCH  23  24
ENDBRANCH  22  23
BRANCH  22  30
HETATM   30  C24 UNL     1      21.622  -1.204  20.141  1.00  0.00     0.158 A
HETATM   31  O4  UNL     1      21.704   0.248  20.367  1.00  0.00    -0.372 OA
HETATM   32  C25 UNL     1      21.716  -0.317  19.031  1.00  0.00     0.184 A
BRANCH  32  33
HETATM   33  C26 UNL     1      20.458  -0.031  18.243  1.00  0.00     0.079 C
HETATM   34  C27 UNL     1      20.164   1.462  18.317  1.00  0.00     0.048 C
HETATM   35  C28 UNL     1      20.592  -0.373  16.780  1.00  0.00     0.048 C
BRANCH  33  36
HETATM   36  O5  UNL     1      19.367  -0.762  18.740  1.00  0.00    -0.388 OA
ATOM     37  H5  UNL     1      18.969  -0.326  19.484  1.00  0.00     0.210 HD
ENDBRANCH  33  36
ENDBRANCH  32  33
ENDBRANCH  22  30
ENDBRANCH  21  22
ENDBRANCH  20  21
ENDBRANCH  12  20
BRANCH   1  38
HETATM   38  O2  UNL     1      23.949  -4.776  24.138  1.00  0.00    -0.315 OA
BRANCH  38  39
HETATM   39  C2  UNL     1      25.167  -4.753  23.518  1.00  0.00     0.255 C
HETATM   40  C1  UNL     1      25.348  -4.556  22.058  1.00  0.00     0.126 C
HETATM   41  O1  UNL     1      26.243  -4.904  24.187  1.00  0.00    -0.266 OA
ENDBRANCH  38  39
ENDBRANCH   1  38
TORSDOF 12
ENDMDL