MODEL 1
REMARK VINA RESULT: -7.831184645      0.000      0.000
REMARK  11 active torsions:
REMARK  status: ('A' for Active; 'I' for Inactive)
REMARK    1  A    between atoms: C6_6  and  O1_7
REMARK    2  A    between atoms: O1_7  and  C7_8
REMARK    3  A    between atoms: C9_10  and  C10_11
REMARK    4  A    between atoms: C17_18  and  C18_19
REMARK    5  A    between atoms: C18_19  and  C20_21
REMARK    6  A    between atoms: C20_21  and  C21_22
REMARK    7  A    between atoms: C21_22  and  C22_23
REMARK    8  A    between atoms: C22_23  and  C23_24
REMARK    9  A    between atoms: C32_33  and  O2_34
REMARK   10  A    between atoms: C33_37  and  O4_38
REMARK   11  A    between atoms: C34_40  and  O5_41
ROOT
HETATM    1  C10 UNL     1      18.837   1.011  15.926  1.00  0.00     0.003 C
HETATM    2  C11 UNL     1      18.092   2.329  15.822  1.00  0.00     0.006 C
HETATM    3  C12 UNL     1      17.308   2.066  14.508  1.00  0.00     0.006 C
HETATM    4  C13 UNL     1      18.461   1.579  13.674  1.00  0.00    -0.001 C
HETATM    5  C14 UNL     1      18.209   1.253  12.273  1.00  0.00    -0.001 C
HETATM    6  C15 UNL     1      17.176   2.210  11.714  1.00  0.00     0.006 C
HETATM    7  C16 UNL     1      15.948   1.332  11.684  1.00  0.00     0.006 C
HETATM    8  C17 UNL     1      16.556   0.064  11.114  1.00  0.00    -0.002 C
HETATM    9  C26 UNL     1      17.805  -0.134  11.913  1.00  0.00    -0.036 C
HETATM   10  C27 UNL     1      18.845  -0.639  10.883  1.00  0.00     0.016 C
HETATM   11  C28 UNL     1      17.718  -1.136  12.984  1.00  0.00     0.011 C
HETATM   12  C29 UNL     1      18.125  -0.784  14.360  1.00  0.00     0.011 C
HETATM   13  C30 UNL     1      18.967   0.443  14.539  1.00  0.00    -0.036 C
HETATM   14  C31 UNL     1      20.379   0.162  14.100  1.00  0.00     0.016 C
ENDROOT
BRANCH   1  15
HETATM   15  C9  UNL     1      20.009   0.987  16.790  1.00  0.00     0.050 C
HETATM   16  C8  UNL     1      19.907  -0.063  17.925  1.00  0.00     0.070 C
HETATM   17  C7  UNL     1      20.935   0.491  18.868  1.00  0.00     0.264 C
HETATM   18  O3  UNL     1      21.412   1.707  18.328  1.00  0.00    -0.331 OA
HETATM   19  C32 UNL     1      20.225   2.194  17.700  1.00  0.00     0.264 C
BRANCH  17  20
HETATM   20  O1  UNL     1      21.983  -0.378  19.128  1.00  0.00    -0.353 OA
BRANCH  20  21
HETATM   21  C6  UNL     1      21.581  -1.608  19.591  1.00  0.00     0.156 C
HETATM   22  C5  UNL     1      21.821  -2.703  18.571  1.00  0.00     0.035 C
HETATM   23  C4  UNL     1      20.666  -3.661  18.503  1.00  0.00     0.007 C
HETATM   24  C3  UNL     1      20.585  -4.562  19.705  1.00  0.00     0.036 C
HETATM   25  C2  UNL     1      21.743  -4.322  20.607  1.00  0.00    -0.058 C
HETATM   26  C1  UNL     1      22.718  -5.246  20.594  1.00  0.00     0.017 C
HETATM   27  C34 UNL     1      21.929  -3.170  21.517  1.00  0.00     0.177 C
HETATM   28  C33 UNL     1      22.433  -1.931  20.815  1.00  0.00     0.180 C
BRANCH  27  29
HETATM   29  O5  UNL     1      22.892  -3.512  22.472  1.00  0.00    -0.389 OA
ATOM     30  H5  UNL     1      22.458  -3.622  23.310  1.00  0.00     0.210 HD
ENDBRANCH  27  29
BRANCH  28  31
HETATM   31  O4  UNL     1      22.450  -0.892  21.735  1.00  0.00    -0.390 OA
ATOM     32  H4  UNL     1      22.790  -1.163  22.579  1.00  0.00     0.210 HD
ENDBRANCH  28  31
ENDBRANCH  20  21
ENDBRANCH  17  20
BRANCH  19  33
HETATM   33  O2  UNL     1      19.308   2.220  18.762  1.00  0.00    -0.371 OA
ATOM     34  H2  UNL     1      19.417   2.992  19.305  1.00  0.00     0.212 HD
ENDBRANCH  19  33
ENDBRANCH   1  15
BRANCH   8  35
HETATM   35  C18 UNL     1      15.557  -0.984  11.039  1.00  0.00    -0.014 C
HETATM   36  C19 UNL     1      15.237  -1.549   9.680  1.00  0.00     0.010 C
BRANCH  35  37
HETATM   37  C20 UNL     1      14.209  -0.400  11.507  1.00  0.00     0.005 C
BRANCH  37  38
HETATM   38  C21 UNL     1      13.483  -1.424  12.360  1.00  0.00     0.001 C
BRANCH  38  39
HETATM   39  C22 UNL     1      14.305  -1.595  13.643  1.00  0.00     0.004 C
BRANCH  39  40
HETATM   40  C23 UNL     1      14.229  -3.059  13.984  1.00  0.00    -0.023 C
HETATM   41  C24 UNL     1      15.491  -3.822  13.636  1.00  0.00     0.009 C
HETATM   42  C25 UNL     1      13.038  -3.648  13.259  1.00  0.00     0.009 C
ENDBRANCH  39  40
ENDBRANCH  38  39
ENDBRANCH  37  38
ENDBRANCH  35  37
ENDBRANCH   8  35
TORSDOF 11
ENDMDL