MODEL 5
REMARK VINA RESULT: -5.748122842      2.349      6.389
REMARK  9 active torsions:
REMARK  status: ('A' for Active; 'I' for Inactive)
REMARK    1  A    between atoms: N1_2  and  C3_4
REMARK    2  A    between atoms: C3_4  and  C4_5
REMARK    3  A    between atoms: N2_15  and  O1_17
REMARK    4  A    between atoms: O1_17  and  C14_18
REMARK    5  A    between atoms: C14_18  and  C15_19
REMARK    6  A    between atoms: C15_19  and  C16_20
REMARK    7  A    between atoms: C16_20  and  C17_21
REMARK    8  A    between atoms: C17_21  and  C18_22
REMARK    9  A    between atoms: C20_25  and  O2_26
ROOT
HETATM    1  C4  UNL     1      14.002  -2.628  10.718  1.00  0.00     0.015 C
HETATM    2  C5  UNL     1      14.480  -1.207  10.650  1.00  0.00     0.007 C
HETATM    3  C6  UNL     1      15.933  -0.962  10.659  1.00  0.00     0.015 C
HETATM    4  C7  UNL     1      16.386   0.192  11.560  1.00  0.00    -0.005 C
HETATM    5  C8  UNL     1      15.660   1.369  10.911  1.00  0.00     0.021 C
HETATM    6  C9  UNL     1      15.812   0.090  12.955  1.00  0.00    -0.041 C
HETATM    7  C10 UNL     1      16.290   1.090  13.917  1.00  0.00    -0.000 C
HETATM    8  C11 UNL     1      17.399   1.979  13.787  1.00  0.00     0.042 C
HETATM    9  C12 UNL     1      17.404   2.973  14.977  1.00  0.00     0.029 C
HETATM   10  C13 UNL     1      17.753   2.636  12.522  1.00  0.00     0.032 C
HETATM   11  N2  UNL     1      17.488   3.775  12.014  1.00  0.00    -0.273 N
ATOM     12  H2  UNL     1      16.907   4.399  12.574  1.00  0.00     0.193 HD
HETATM   13  C19 UNL     1      18.516   1.428  12.231  1.00  0.00     0.077 C
HETATM   14  C20 UNL     1      18.790   1.381  13.688  1.00  0.00     0.146 C
HETATM   15  C21 UNL     1      17.883   0.308  11.533  1.00  0.00    -0.004 C
HETATM   16  C22 UNL     1      18.283   0.612  10.058  1.00  0.00     0.021 C
HETATM   17  C23 UNL     1      18.588  -0.963  11.862  1.00  0.00    -0.015 C
HETATM   18  C24 UNL     1      18.104  -2.008  12.698  1.00  0.00     0.005 C
HETATM   19  C25 UNL     1      16.793  -2.135  13.316  1.00  0.00    -0.048 C
HETATM   20  C26 UNL     1      15.698  -1.320  13.508  1.00  0.00    -0.023 C
HETATM   21  C27 UNL     1      14.524  -1.823  14.205  1.00  0.00     0.009 C
HETATM   22  C28 UNL     1      14.022  -3.058  13.869  1.00  0.00    -0.017 C
HETATM   23  C29 UNL     1      14.546  -3.989  12.851  1.00  0.00    -0.026 C
HETATM   24  C30 UNL     1      13.625  -5.231  12.966  1.00  0.00     0.019 C
HETATM   25  C31 UNL     1      15.917  -4.536  13.310  1.00  0.00     0.018 C
HETATM   26  C32 UNL     1      16.934  -3.595  13.731  1.00  0.00     0.040 C
HETATM   27  C33 UNL     1      14.732  -3.624  11.466  1.00  0.00     0.019 C
ENDROOT
BRANCH  11  28
HETATM   28  O1  UNL     1      17.899   4.250  10.803  1.00  0.00    -0.281 OA
BRANCH  28  29
HETATM   29  C14 UNL     1      16.939   4.763   9.849  1.00  0.00     0.201 C
BRANCH  29  30
HETATM   30  C15 UNL     1      17.072   3.970   8.597  1.00  0.00     0.029 C
BRANCH  30  31
HETATM   31  C16 UNL     1      15.826   3.584   7.929  1.00  0.00     0.003 C
BRANCH  31  32
HETATM   32  C17 UNL     1      14.673   4.470   7.976  1.00  0.00     0.011 C
BRANCH  32  33
HETATM   33  C18 UNL     1      13.342   3.959   7.577  1.00  0.00     0.086 C
HETATM   34  S1  UNL     1      13.387   2.138   7.966  1.00  0.00    -0.098 SA
ENDBRANCH  32  33
ENDBRANCH  31  32
ENDBRANCH  30  31
ENDBRANCH  29  30
ENDBRANCH  28  29
ENDBRANCH  11  28
BRANCH  14  35
HETATM   35  O2  UNL     1      19.142   0.348  14.418  1.00  0.00    -0.393 OA
ATOM     36  H2  UNL     1      19.957  -0.114  14.260  1.00  0.00     0.210 HD
ENDBRANCH  14  35
BRANCH   1  37
HETATM   37  C3  UNL     1      12.505  -2.580  11.019  1.00  0.00     0.275 C
BRANCH  37  38
HETATM   38  N1  UNL     1      11.948  -1.264  10.825  1.00  0.00     0.080 N
HETATM   39  C1  UNL     1      11.128  -1.130   9.651  1.00  0.00     0.309 C
HETATM   40  C2  UNL     1      11.199  -0.812  11.978  1.00  0.00     0.309 C
ENDBRANCH  37  38
ENDBRANCH   1  37
TORSDOF 9
ENDMDL