MODEL 3
REMARK VINA RESULT: -6.274265200      8.355     12.079
REMARK  11 active torsions:
REMARK  status: ('A' for Active; 'I' for Inactive)
REMARK    1  A    between atoms: N1_2  and  C2_4
REMARK    2  A    between atoms: C2_4  and  C3_5
REMARK    3  A    between atoms: C3_5  and  C4_6
REMARK    4  A    between atoms: C4_6  and  O1_7
REMARK    5  A    between atoms: C4_6  and  C5_9
REMARK    6  A    between atoms: C5_9  and  C6_10
REMARK    7  A    between atoms: C6_10  and  C7_11
REMARK    8  A    between atoms: C7_11  and  O2_12
REMARK    9  A    between atoms: C24_31  and  C26_33
REMARK   10  A    between atoms: C26_33  and  C27_34
REMARK   11  A    between atoms: C27_34  and  C28_35
ROOT
HETATM    1  C5  UNL     1      22.947  -2.772  23.069  1.00  0.00     0.019 C
HETATM    2  C8  UNL     1      21.484  -3.087  23.260  1.00  0.00     0.026 C
HETATM    3  C9  UNL     1      20.806  -4.321  22.909  1.00  0.00    -0.025 C
HETATM    4  C10 UNL     1      20.965  -5.693  23.169  1.00  0.00     0.013 C
HETATM    5  C11 UNL     1      21.945  -6.426  24.000  1.00  0.00     0.036 C
HETATM    6  C12 UNL     1      22.381  -5.475  25.050  1.00  0.00     0.156 C
HETATM    7  O3  UNL     1      22.915  -4.507  24.416  1.00  0.00    -0.371 OA
HETATM    8  C13 UNL     1      23.435  -4.222  23.244  1.00  0.00     0.068 C
HETATM    9  C14 UNL     1      24.957  -4.212  23.544  1.00  0.00     0.047 C
HETATM   10  C15 UNL     1      23.324  -4.816  21.937  1.00  0.00     0.039 C
HETATM   11  C16 UNL     1      22.195  -4.972  21.040  1.00  0.00     0.009 C
HETATM   12  C17 UNL     1      20.874  -4.284  21.367  1.00  0.00     0.006 C
HETATM   13  C18 UNL     1      19.746  -4.797  20.589  1.00  0.00    -0.026 C
HETATM   14  C19 UNL     1      19.460  -3.860  19.353  1.00  0.00     0.019 C
HETATM   15  C20 UNL     1      19.905  -6.115  19.873  1.00  0.00     0.019 C
HETATM   16  C21 UNL     1      18.424  -4.747  21.240  1.00  0.00    -0.021 C
HETATM   17  C22 UNL     1      18.329  -4.359  22.477  1.00  0.00    -0.022 C
HETATM   18  C23 UNL     1      19.377  -3.937  23.402  1.00  0.00     0.051 C
HETATM   19  C24 UNL     1      19.160  -4.242  24.867  1.00  0.00     0.066 C
HETATM   20  C25 UNL     1      19.014  -2.845  25.571  1.00  0.00     0.047 C
HETATM   21  O4  UNL     1      20.051  -4.921  25.500  1.00  0.00    -0.367 OA
HETATM   22  C32 UNL     1      21.122  -5.358  25.925  1.00  0.00     0.081 C
HETATM   23  C33 UNL     1      20.862  -6.862  26.307  1.00  0.00     0.048 C
HETATM   24  C34 UNL     1      21.492  -4.892  27.353  1.00  0.00     0.048 C
ENDROOT
BRANCH   1  25
HETATM   25  C4  UNL     1      23.305  -2.039  21.884  1.00  0.00     0.131 C
BRANCH  25  26
HETATM   26  C3  UNL     1      22.394  -1.254  21.055  1.00  0.00     0.052 C
BRANCH  26  27
HETATM   27  C2  UNL     1      22.206  -1.490  19.613  1.00  0.00     0.120 C
BRANCH  27  28
HETATM   28  N1  UNL     1      22.197  -0.131  19.015  1.00  0.00    -0.408 N
HETATM   29  C1  UNL     1      21.279   0.662  19.476  1.00  0.00     0.112 C
ATOM     30  H1  UNL     1      22.860   0.157  18.296  1.00  0.00     0.157 HD
ENDBRANCH  27  28
ENDBRANCH  26  27
ENDBRANCH  25  26
BRANCH  25  31
HETATM   31  O1  UNL     1      24.415  -1.166  22.149  1.00  0.00    -0.395 OA
ATOM     32  H1  UNL     1      24.756  -1.448  22.989  1.00  0.00     0.210 HD
ENDBRANCH  25  31
ENDBRANCH   1  25
BRANCH   1  33
HETATM   33  C6  UNL     1      23.466  -1.856  24.167  1.00  0.00     0.041 C
BRANCH  33  34
HETATM   34  C7  UNL     1      22.677  -1.412  25.281  1.00  0.00     0.165 C
BRANCH  34  35
HETATM   35  O2  UNL     1      23.113  -2.212  26.384  1.00  0.00    -0.401 OA
ATOM     36  H2  UNL     1      22.969  -1.671  27.152  1.00  0.00     0.209 HD
ENDBRANCH  34  35
ENDBRANCH  33  34
ENDBRANCH   1  33
BRANCH  19  37
HETATM   37  C26 UNL     1      17.812  -4.836  25.208  1.00  0.00     0.042 C
BRANCH  37  38
HETATM   38  C27 UNL     1      17.027  -4.570  26.378  1.00  0.00     0.030 C
BRANCH  38  39
HETATM   39  C28 UNL     1      17.284  -5.726  27.308  1.00  0.00    -0.025 C
HETATM   40  C29 UNL     1      17.843  -5.479  28.479  1.00  0.00    -0.091 C
HETATM   41  C30 UNL     1      18.096  -6.634  29.400  1.00  0.00     0.042 C
HETATM   42  C31 UNL     1      18.230  -4.135  28.927  1.00  0.00     0.042 C
ENDBRANCH  38  39
ENDBRANCH  37  38
ENDBRANCH  19  37
TORSDOF 11
ENDMDL