MODEL 3
REMARK VINA RESULT: -7.600473415      4.033      6.261
REMARK  10 active torsions:
REMARK  status: ('A' for Active; 'I' for Inactive)
REMARK    1  A    between atoms: O1_2  and  C2_3
REMARK    2  A    between atoms: C2_3  and  C3_5
REMARK    3  A    between atoms: C3_5  and  C5_7
REMARK    4  A    between atoms: C5_7  and  C6_8
REMARK    5  A    between atoms: C6_8  and  C7_9
REMARK    6  A    between atoms: C7_9  and  C8_10
REMARK    7  A    between atoms: C8_10  and  C9_11
REMARK    8  A    between atoms: C9_11  and  C10_12
REMARK    9  A    between atoms: C19_27  and  C20_28
REMARK   10  A    between atoms: C20_28  and  C21_29
ROOT
HETATM    1  C10 UNL     1     -37.834  58.717   4.774  1.00  0.00     0.079 C
HETATM    2  C11 UNL     1     -38.904  58.360   5.792  1.00  0.00     0.014 C
HETATM    3  C12 UNL     1     -40.065  59.327   5.734  1.00  0.00     0.002 C
HETATM    4  C13 UNL     1     -41.403  58.717   5.960  1.00  0.00     0.020 C
HETATM    5  C14 UNL     1     -42.269  58.861   4.710  1.00  0.00     0.122 C
HETATM    6  N1  UNL     1     -41.442  58.657   3.542  1.00  0.00    -0.359 N
ATOM      7  H1  UNL     1     -40.693  57.973   3.647  1.00  0.00     0.162 HD
HETATM    8  C15 UNL     1     -41.527  59.268   2.287  1.00  0.00     0.240 C
HETATM    9  O3  UNL     1     -41.634  58.473   1.280  1.00  0.00    -0.271 OA
HETATM   10  C16 UNL     1     -41.514  60.702   1.935  1.00  0.00     0.172 C
HETATM   11  C17 UNL     1     -41.911  61.647   3.005  1.00  0.00     0.042 C
HETATM   12  N2  UNL     1     -40.290  61.069   1.229  1.00  0.00    -0.346 N
ATOM     13  H2  UNL     1     -40.399  61.269   0.234  1.00  0.00     0.163 HD
HETATM   14  C18 UNL     1     -39.005  61.184   1.723  1.00  0.00     0.242 C
HETATM   15  O4  UNL     1     -38.082  60.468   1.192  1.00  0.00    -0.271 OA
HETATM   16  C19 UNL     1     -38.530  62.078   2.848  1.00  0.00     0.191 C
HETATM   17  N3  UNL     1     -37.276  61.633   3.343  1.00  0.00    -0.320 N
ATOM     18  H3  UNL     1     -36.443  61.621   2.755  1.00  0.00     0.181 HD
HETATM   19  N4  UNL     1     -37.238  61.215   4.664  1.00  0.00    -0.273 N
ATOM     20  H4  UNL     1     -37.374  61.941   5.367  1.00  0.00     0.189 HD
HETATM   21  C24 UNL     1     -37.031  59.899   5.158  1.00  0.00     0.239 C
HETATM   22  O5  UNL     1     -36.073  59.728   6.001  1.00  0.00    -0.271 OA
ENDROOT
BRANCH   1  23
HETATM   23  C9  UNL     1     -37.054  57.500   4.472  1.00  0.00     0.014 C
BRANCH  23  24
HETATM   24  C8  UNL     1     -37.738  56.186   4.584  1.00  0.00     0.001 C
BRANCH  24  25
HETATM   25  C7  UNL     1     -38.540  55.882   3.322  1.00  0.00     0.000 C
BRANCH  25  26
HETATM   26  C6  UNL     1     -38.923  54.444   3.180  1.00  0.00     0.001 C
BRANCH  26  27
HETATM   27  C5  UNL     1     -37.848  53.589   2.603  1.00  0.00     0.014 C
BRANCH  27  28
HETATM   28  C3  UNL     1     -37.791  53.570   1.126  1.00  0.00     0.081 C
HETATM   29  C4  UNL     1     -39.188  53.205   0.597  1.00  0.00     0.020 C
BRANCH  28  30
HETATM   30  C2  UNL     1     -36.825  52.669   0.517  1.00  0.00     0.262 C
HETATM   31  O2  UNL     1     -35.959  52.065   1.153  1.00  0.00    -0.265 OA
BRANCH  30  32
HETATM   32  O1  UNL     1     -36.840  52.438  -0.871  1.00  0.00    -0.326 OA
HETATM   33  C1  UNL     1     -35.999  53.126  -1.754  1.00  0.00     0.213 C
ENDBRANCH  30  32
ENDBRANCH  28  30
ENDBRANCH  27  28
ENDBRANCH  26  27
ENDBRANCH  25  26
ENDBRANCH  24  25
ENDBRANCH  23  24
ENDBRANCH   1  23
BRANCH  16  34
HETATM   34  C20 UNL     1     -38.422  63.491   2.356  1.00  0.00     0.040 C
BRANCH  34  35
HETATM   35  C21 UNL     1     -38.841  64.579   3.260  1.00  0.00    -0.020 C
HETATM   36  C22 UNL     1     -40.261  64.993   2.774  1.00  0.00     0.009 C
HETATM   37  C23 UNL     1     -38.067  65.888   3.097  1.00  0.00     0.009 C
ENDBRANCH  34  35
ENDBRANCH  16  34
TORSDOF 10
ENDMDL