MODEL 3
REMARK VINA RESULT: -6.431911165      3.152      6.214
REMARK  12 active torsions:
REMARK  status: ('A' for Active; 'I' for Inactive)
REMARK    1  A    between atoms: C2_2  and  C3_3
REMARK    2  A    between atoms: C3_3  and  C4_4
REMARK    3  A    between atoms: C4_4  and  C5_5
REMARK    4  A    between atoms: N1_8  and  C7_9
REMARK    5  A    between atoms: C7_9  and  C8_10
REMARK    6  A    between atoms: C8_10  and  N2_11
REMARK    7  A    between atoms: N2_11  and  S1_13
REMARK    8  A    between atoms: S1_13  and  C9_16
REMARK    9  A    between atoms: C9_16  and  C10_17
REMARK   10  A    between atoms: C15_22  and  O4_23
REMARK   11  A    between atoms: C16_25  and  O5_26
REMARK   12  A    between atoms: C23_34  and  O6_35
ROOT
HETATM    1  S1  UNL     1     -39.048  59.849   6.553  1.00  0.00     0.227 S
HETATM    2  O2  UNL     1     -38.638  60.690   7.724  1.00  0.00    -0.206 OA
HETATM    3  O3  UNL     1     -40.142  58.938   7.017  1.00  0.00    -0.206 OA
ENDROOT
BRANCH   1   4
HETATM    4  N2  UNL     1     -37.591  58.921   6.228  1.00  0.00    -0.318 N
ATOM      5  H2  UNL     1     -37.147  58.847   5.312  1.00  0.00     0.172 HD
BRANCH   4   6
HETATM    6  C8  UNL     1     -37.110  58.284   7.410  1.00  0.00     0.151 C
BRANCH   6   7
HETATM    7  C7  UNL     1     -36.569  56.916   7.085  1.00  0.00     0.146 C
BRANCH   7   8
HETATM    8  N1  UNL     1     -37.615  56.168   6.420  1.00  0.00    -0.348 N
HETATM    9  C6  UNL     1     -37.652  55.915   4.992  1.00  0.00     0.226 C
HETATM   10  C5  UNL     1     -38.646  54.842   4.840  1.00  0.00     0.108 C
HETATM   11  O1  UNL     1     -36.944  56.545   4.191  1.00  0.00    -0.273 OA
HETATM   12  C23 UNL     1     -39.693  55.292   5.856  1.00  0.00     0.149 C
HETATM   13  C22 UNL     1     -38.764  55.562   7.050  1.00  0.00     0.158 C
BRANCH  10  14
HETATM   14  C4  UNL     1     -39.210  54.620   3.496  1.00  0.00     0.017 C
BRANCH  14  15
HETATM   15  C3  UNL     1     -39.199  53.163   3.133  1.00  0.00     0.001 C
BRANCH  15  16
HETATM   16  C2  UNL     1     -39.934  52.940   1.805  1.00  0.00    -0.005 C
HETATM   17  C1  UNL     1     -38.913  53.303   0.719  1.00  0.00     0.005 C
ENDBRANCH  15  16
ENDBRANCH  14  15
ENDBRANCH  10  14
BRANCH  12  18
HETATM   18  O6  UNL     1     -40.246  56.523   5.509  1.00  0.00    -0.393 OA
ATOM     19  H6  UNL     1     -39.619  57.228   5.617  1.00  0.00     0.210 HD
ENDBRANCH  12  18
ENDBRANCH   7   8
ENDBRANCH   6   7
ENDBRANCH   4   6
ENDBRANCH   1   4
BRANCH   1  20
HETATM   20  C9  UNL     1     -39.488  60.801   5.145  1.00  0.00     0.173 C
BRANCH  20  21
HETATM   21  C10 UNL     1     -38.528  60.867   4.033  1.00  0.00    -0.014 A
HETATM   22  C11 UNL     1     -37.164  61.300   4.594  1.00  0.00     0.018 C
HETATM   23  C12 UNL     1     -38.482  59.891   2.928  1.00  0.00     0.029 A
HETATM   24  C13 UNL     1     -39.136  58.602   2.996  1.00  0.00    -0.022 C
HETATM   25  C17 UNL     1     -39.070  60.862   1.957  1.00  0.00    -0.000 A
HETATM   26  C14 UNL     1     -40.367  58.376   2.570  1.00  0.00     0.003 C
HETATM   27  C15 UNL     1     -41.171  59.448   1.982  1.00  0.00     0.170 C
HETATM   28  C16 UNL     1     -40.349  60.517   1.315  1.00  0.00     0.160 C
HETATM   29  C18 UNL     1     -38.038  61.178   0.856  1.00  0.00     0.019 C
HETATM   30  C19 UNL     1     -39.031  61.908   3.004  1.00  0.00    -0.028 A
HETATM   31  C20 UNL     1     -40.301  62.583   3.379  1.00  0.00     0.016 C
HETATM   32  C21 UNL     1     -37.994  63.020   2.768  1.00  0.00     0.016 C
BRANCH  27  33
HETATM   33  O4  UNL     1     -42.016  58.842   1.015  1.00  0.00    -0.389 OA
ATOM     34  H4  UNL     1     -41.804  59.240   0.179  1.00  0.00     0.210 HD
ENDBRANCH  27  33
BRANCH  28  35
HETATM   35  O5  UNL     1     -41.196  61.607   1.110  1.00  0.00    -0.392 OA
ATOM     36  H5  UNL     1     -42.084  61.268   1.105  1.00  0.00     0.210 HD
ENDBRANCH  28  35
ENDBRANCH  20  21
ENDBRANCH   1  20
TORSDOF 12
ENDMDL