MODEL 3
REMARK VINA RESULT: -6.061730484      5.452      8.926
REMARK  11 active torsions:
REMARK  status: ('A' for Active; 'I' for Inactive)
REMARK    1  A    between atoms: C2_2  and  N1_3
REMARK    2  A    between atoms: C2_2  and  C8_12
REMARK       I    between atoms: N1_3  and  C3_5
REMARK    3  A    between atoms: C3_5  and  O2_7
REMARK    4  A    between atoms: O2_7  and  C4_8
REMARK       I    between atoms: C8_12  and  N2_14
REMARK    5  A    between atoms: N2_14  and  C9_16
REMARK    6  A    between atoms: C9_16  and  C11_18
REMARK       I    between atoms: C11_18  and  N3_20
REMARK    7  A    between atoms: N3_20  and  C12_22
REMARK    8  A    between atoms: C12_22  and  C13_23
REMARK    9  A    between atoms: C12_22  and  C14_25
REMARK       I    between atoms: C14_25  and  N4_27
REMARK   10  A    between atoms: C18_31  and  C19_32
REMARK   11  A    between atoms: C19_32  and  N5_34
ROOT
HETATM    1  C11 UNL     1     -38.897  56.980   4.107  1.00  0.00     0.240 C
HETATM    2  O4  UNL     1     -39.747  56.511   4.896  1.00  0.00    -0.271 OA
HETATM    3  N3  UNL     1     -39.178  58.200   3.446  1.00  0.00    -0.345 N
ATOM      4  H3  UNL     1     -38.499  58.600   2.800  1.00  0.00     0.163 HD
ENDROOT
BRANCH   1   5
HETATM    5  C9  UNL     1     -37.633  56.244   3.893  1.00  0.00     0.172 C
HETATM    6  C10 UNL     1     -36.825  56.335   5.158  1.00  0.00     0.042 C
BRANCH   5   7
HETATM    7  N2  UNL     1     -37.911  54.842   3.646  1.00  0.00    -0.346 N
HETATM    8  C8  UNL     1     -38.421  54.382   2.393  1.00  0.00     0.240 C
HETATM    9  O3  UNL     1     -38.622  55.248   1.501  1.00  0.00    -0.271 OA
ATOM     10  H2  UNL     1     -37.738  54.165   4.389  1.00  0.00     0.163 HD
BRANCH   8  11
HETATM   11  C2  UNL     1     -38.713  52.970   2.120  1.00  0.00     0.174 C
HETATM   12  C1  UNL     1     -40.082  52.750   1.512  1.00  0.00     0.042 C
BRANCH  11  13
HETATM   13  N1  UNL     1     -37.722  52.426   1.229  1.00  0.00    -0.324 N
HETATM   14  C3  UNL     1     -36.337  52.384   1.527  1.00  0.00     0.362 C
HETATM   15  O1  UNL     1     -35.874  52.836   2.624  1.00  0.00    -0.238 OA
ATOM     16  H1  UNL     1     -38.035  52.048   0.335  1.00  0.00     0.165 HD
BRANCH  14  17
HETATM   17  O2  UNL     1     -35.419  51.857   0.651  1.00  0.00    -0.294 OA
BRANCH  17  18
HETATM   18  C4  UNL     1     -34.508  52.562  -0.135  1.00  0.00     0.061 C
HETATM   19  C5  UNL     1     -33.357  53.136   0.666  1.00  0.00     0.046 C
HETATM   20  C6  UNL     1     -33.918  51.628  -1.161  1.00  0.00     0.046 C
HETATM   21  C7  UNL     1     -35.234  53.667  -0.849  1.00  0.00     0.046 C
ENDBRANCH  17  18
ENDBRANCH  14  17
ENDBRANCH  11  13
ENDBRANCH   8  11
ENDBRANCH   5   7
ENDBRANCH   1   5
BRANCH   3  22
HETATM   22  C12 UNL     1     -40.470  58.897   3.701  1.00  0.00     0.186 C
BRANCH  22  23
HETATM   23  C13 UNL     1     -39.994  60.186   4.411  1.00  0.00     0.120 C
HETATM   24  S1  UNL     1     -39.793  60.020   6.167  1.00  0.00    -0.095 SA
ENDBRANCH  22  23
BRANCH  22  25
HETATM   25  C14 UNL     1     -41.061  59.296   2.409  1.00  0.00     0.243 C
HETATM   26  O5  UNL     1     -40.239  59.548   1.492  1.00  0.00    -0.271 OA
HETATM   27  N4  UNL     1     -42.436  59.403   2.154  1.00  0.00    -0.344 N
HETATM   28  C15 UNL     1     -42.916  59.864   0.828  1.00  0.00     0.126 C
HETATM   29  C18 UNL     1     -43.636  59.121   2.861  1.00  0.00     0.109 C
HETATM   30  C16 UNL     1     -44.132  59.015   0.556  1.00  0.00     0.022 C
HETATM   31  C17 UNL     1     -44.500  58.396   1.883  1.00  0.00     0.029 C
BRANCH  29  32
HETATM   32  C19 UNL     1     -44.292  60.162   3.664  1.00  0.00     0.097 C
HETATM   33  C20 UNL     1     -45.799  60.098   3.734  1.00  0.00     0.034 C
BRANCH  32  34
HETATM   34  N5  UNL     1     -43.704  60.166   4.971  1.00  0.00    -0.415 N
HETATM   35  C21 UNL     1     -43.575  58.987   5.686  1.00  0.00     0.143 C
HETATM   36  C22 UNL     1     -43.388  61.355   5.606  1.00  0.00     0.143 C
ENDBRANCH  32  34
ENDBRANCH  29  32
ENDBRANCH  22  25
ENDBRANCH   3  22
TORSDOF 11
ENDMDL