MODEL 3
REMARK VINA RESULT: -7.492309289      4.232      8.012
REMARK  12 active torsions:
REMARK  status: ('A' for Active; 'I' for Inactive)
REMARK    1  A    between atoms: C2_2  and  C3_3
REMARK    2  A    between atoms: C3_3  and  C5_5
REMARK    3  A    between atoms: C5_5  and  O1_6
REMARK    4  A    between atoms: C5_5  and  C6_8
REMARK    5  A    between atoms: C6_8  and  O2_9
REMARK    6  A    between atoms: C6_8  and  C7_11
REMARK    7  A    between atoms: C7_11  and  C8_12
REMARK    8  A    between atoms: C7_11  and  N1_15
REMARK    9  A    between atoms: C8_12  and  O3_13
REMARK       I    between atoms: N1_15  and  C9_17
REMARK   10  A    between atoms: C9_17  and  C10_19
REMARK   11  A    between atoms: C10_19  and  N2_21
REMARK   12  A    between atoms: N3_25  and  C15_26
ROOT
HETATM    1  C10 UNL     1     -37.806  57.892   4.230  1.00  0.00     0.177 C
HETATM    2  C11 UNL     1     -37.052  58.217   5.491  1.00  0.00     0.042 C
ENDROOT
BRANCH   1   3
HETATM    3  C9  UNL     1     -37.686  56.418   4.029  1.00  0.00     0.244 C
HETATM    4  N1  UNL     1     -38.598  55.681   3.251  1.00  0.00    -0.328 N
ATOM      5  H1  UNL     1     -39.364  56.195   2.815  1.00  0.00     0.168 HD
HETATM    6  O4  UNL     1     -36.727  55.834   4.584  1.00  0.00    -0.271 OA
BRANCH   4   7
HETATM    7  C7  UNL     1     -38.540  54.271   3.021  1.00  0.00     0.044 C
BRANCH   7   8
HETATM    8  C6  UNL     1     -38.316  53.825   1.629  1.00  0.00     0.195 C
BRANCH   8   9
HETATM    9  C5  UNL     1     -37.363  52.735   1.366  1.00  0.00     0.156 C
BRANCH   9  10
HETATM   10  C3  UNL     1     -36.374  53.136   0.258  1.00  0.00     0.013 C
HETATM   11  C4  UNL     1     -35.064  52.416   0.449  1.00  0.00     0.012 C
BRANCH  10  12
HETATM   12  C2  UNL     1     -36.968  52.785  -1.092  1.00  0.00     0.002 C
HETATM   13  C1  UNL     1     -35.977  53.187  -2.171  1.00  0.00     0.005 C
ENDBRANCH  10  12
ENDBRANCH   9  10
BRANCH   9  14
HETATM   14  O1  UNL     1     -36.617  52.238   2.383  1.00  0.00    -0.392 OA
ATOM     15  H1  UNL     1     -37.230  51.880   3.015  1.00  0.00     0.210 HD
ENDBRANCH   9  14
ENDBRANCH   8   9
BRANCH   8  16
HETATM   16  O2  UNL     1     -39.580  53.396   1.102  1.00  0.00    -0.387 OA
ATOM     17  H2  UNL     1     -39.560  53.581   0.170  1.00  0.00     0.210 HD
ENDBRANCH   8  16
ENDBRANCH   7   8
BRANCH   7  18
HETATM   18  C8  UNL     1     -39.573  53.465   3.761  1.00  0.00     0.219 C
BRANCH  18  19
HETATM   19  O3  UNL     1     -39.400  52.113   3.752  1.00  0.00    -0.395 OA
ATOM     20  H3  UNL     1     -39.159  51.716   4.580  1.00  0.00     0.209 HD
ENDBRANCH  18  19
ENDBRANCH   7  18
ENDBRANCH   4   7
ENDBRANCH   1   3
BRANCH   1  21
HETATM   21  N2  UNL     1     -39.156  58.308   4.216  1.00  0.00    -0.321 N
HETATM   22  C12 UNL     1     -39.978  58.109   5.397  1.00  0.00     0.130 C
HETATM   23  C13 UNL     1     -40.740  59.404   5.696  1.00  0.00     0.040 C
HETATM   24  C14 UNL     1     -41.648  59.800   4.584  1.00  0.00     0.129 C
HETATM   25  N3  UNL     1     -41.148  59.479   3.284  1.00  0.00    -0.329 N
HETATM   26  C23 UNL     1     -39.839  58.941   3.130  1.00  0.00     0.321 C
HETATM   27  O7  UNL     1     -39.261  59.011   2.039  1.00  0.00    -0.247 OA
BRANCH  25  28
HETATM   28  C15 UNL     1     -42.009  59.715   2.128  1.00  0.00     0.089 C
HETATM   29  C16 UNL     1     -42.895  60.911   2.298  1.00  0.00     0.028 C
HETATM   30  C17 UNL     1     -43.024  61.597   0.945  1.00  0.00     0.034 C
HETATM   31  C18 UNL     1     -43.901  60.710   0.090  1.00  0.00     0.133 C
HETATM   32  C19 UNL     1     -43.187  59.491  -0.395  1.00  0.00     0.047 C
HETATM   33  O6  UNL     1     -45.034  60.226   0.772  1.00  0.00    -0.316 OA
HETATM   34  C20 UNL     1     -43.569  58.451   0.614  1.00  0.00     0.090 C
HETATM   35  C21 UNL     1     -42.768  58.446   1.867  1.00  0.00     0.040 C
HETATM   36  C22 UNL     1     -44.974  58.852   0.922  1.00  0.00     0.263 C
HETATM   37  O5  UNL     1     -45.881  58.047   1.249  1.00  0.00    -0.265 OA
ENDBRANCH  25  28
ENDBRANCH   1  21
TORSDOF 12
ENDMDL