MODEL 4
REMARK VINA RESULT: -6.225306561      2.230      2.819
REMARK  9 active torsions:
REMARK  status: ('A' for Active; 'I' for Inactive)
REMARK    1  A    between atoms: C2_2  and  O1_4
REMARK    2  A    between atoms: O1_4  and  C4_5
REMARK    3  A    between atoms: N1_8  and  C6_9
REMARK    4  A    between atoms: C6_9  and  C7_10
REMARK    5  A    between atoms: C6_9  and  C11_19
REMARK       I    between atoms: C7_10  and  N2_12
REMARK    6  A    between atoms: N2_12  and  C8_14
REMARK    7  A    between atoms: C8_14  and  C10_16
REMARK    8  A    between atoms: C16_24  and  N3_25
REMARK       I    between atoms: N3_25  and  C17_27
REMARK       I    between atoms: C17_27  and  N4_29
REMARK    9  A    between atoms: N4_29  and  C18_31
ROOT
HETATM    1  C4  UNL     1     -39.229  59.810   3.438  1.00  0.00     0.236 C
HETATM    2  C5  UNL     1     -38.208  60.810   3.884  1.00  0.00     0.251 C
HETATM    3  O2  UNL     1     -37.667  61.620   3.089  1.00  0.00    -0.270 OA
HETATM    4  N1  UNL     1     -37.866  60.803   5.288  1.00  0.00    -0.336 N
HETATM    5  C14 UNL     1     -37.876  59.530   5.969  1.00  0.00     0.129 C
HETATM    6  C15 UNL     1     -37.746  58.474   4.852  1.00  0.00     0.048 C
HETATM    7  C16 UNL     1     -38.980  58.454   4.014  1.00  0.00     0.126 C
ENDROOT
BRANCH   4   8
HETATM    8  C6  UNL     1     -37.553  62.040   5.927  1.00  0.00     0.182 C
BRANCH   8   9
HETATM    9  C7  UNL     1     -36.178  62.463   5.502  1.00  0.00     0.241 C
HETATM   10  O3  UNL     1     -35.265  61.608   5.610  1.00  0.00    -0.271 OA
HETATM   11  N2  UNL     1     -35.840  63.731   5.000  1.00  0.00    -0.345 N
ATOM     12  H2  UNL     1     -36.555  64.451   4.903  1.00  0.00     0.163 HD
BRANCH  11  13
HETATM   13  C8  UNL     1     -34.470  64.011   4.621  1.00  0.00     0.181 C
HETATM   14  C9  UNL     1     -34.421  65.104   3.560  1.00  0.00     0.043 C
BRANCH  13  15
HETATM   15  C10 UNL     1     -33.675  64.418   5.798  1.00  0.00     0.196 C
HETATM   16  O4  UNL     1     -33.924  65.496   6.367  1.00  0.00    -0.646 OA
HETATM   17  O5  UNL     1     -32.665  63.610   6.266  1.00  0.00    -0.646 OA
ENDBRANCH  13  15
ENDBRANCH  11  13
ENDBRANCH   8   9
BRANCH   8  18
HETATM   18  C11 UNL     1     -37.614  62.056   7.417  1.00  0.00     0.009 C
HETATM   19  C12 UNL     1     -36.711  63.003   8.119  1.00  0.00     0.012 C
HETATM   20  C13 UNL     1     -39.053  62.238   7.867  1.00  0.00     0.012 C
ENDBRANCH   8  18
ENDBRANCH   4   8
BRANCH   1  21
HETATM   21  O1  UNL     1     -40.513  60.211   3.831  1.00  0.00    -0.370 OA
BRANCH  21  22
HETATM   22  C2  UNL     1     -41.396  60.266   2.780  1.00  0.00     0.114 C
HETATM   23  C1  UNL     1     -40.762  60.253   1.426  1.00  0.00     0.039 C
HETATM   24  C3  UNL     1     -42.342  59.078   2.869  1.00  0.00     0.039 C
ENDBRANCH  21  22
ENDBRANCH   1  21
BRANCH   7  25
HETATM   25  N3  UNL     1     -38.793  57.488   2.948  1.00  0.00    -0.335 N
HETATM   26  C17 UNL     1     -39.052  56.091   3.107  1.00  0.00     0.316 C
HETATM   27  O6  UNL     1     -39.463  55.606   4.188  1.00  0.00    -0.247 OA
HETATM   28  N4  UNL     1     -38.844  55.209   2.018  1.00  0.00    -0.339 N
ATOM     29  H4  UNL     1     -38.509  55.577   1.127  1.00  0.00     0.164 HD
ATOM     30  H3  UNL     1     -38.461  57.821   2.043  1.00  0.00     0.164 HD
BRANCH  28  31
HETATM   31  C18 UNL     1     -39.098  53.804   2.155  1.00  0.00     0.086 C
HETATM   32  C19 UNL     1     -39.464  53.237   0.812  1.00  0.00     0.025 C
HETATM   33  C20 UNL     1     -38.280  53.247  -0.136  1.00  0.00     0.002 C
HETATM   34  C21 UNL     1     -37.201  52.378   0.470  1.00  0.00     0.000 C
HETATM   35  C22 UNL     1     -36.764  52.975   1.797  1.00  0.00     0.002 C
HETATM   36  C23 UNL     1     -37.923  53.065   2.763  1.00  0.00     0.025 C
ENDBRANCH  28  31
ENDBRANCH   7  25
TORSDOF 9
ENDMDL