MODEL 1
REMARK VINA RESULT: -7.340716727      0.000      0.000
REMARK  9 active torsions:
REMARK  status: ('A' for Active; 'I' for Inactive)
REMARK    1  A    between atoms: C2_2  and  C4_4
REMARK    2  A    between atoms: C4_4  and  C5_6
REMARK    3  A    between atoms: C5_6  and  N1_7
REMARK    4  A    between atoms: C5_6  and  C11_18
REMARK       I    between atoms: N1_7  and  C6_9
REMARK    5  A    between atoms: C6_9  and  C7_11
REMARK    6  A    between atoms: C11_18  and  C12_20
REMARK    7  A    between atoms: C12_20  and  C13_21
REMARK       I    between atoms: C13_21  and  N3_23
REMARK    8  A    between atoms: C17_27  and  C18_28
REMARK       I    between atoms: C18_28  and  N4_30
REMARK    9  A    between atoms: N4_30  and  C19_32
ROOT
HETATM    1  C11 UNL     1     -39.688  59.728   5.248  1.00  0.00     0.097 C
HETATM    2  S1  UNL     1     -40.720  61.221   5.433  1.00  0.00    -0.089 SA
ENDROOT
BRANCH   1   3
HETATM    3  C5  UNL     1     -39.169  59.637   3.830  1.00  0.00     0.169 C
BRANCH   3   4
HETATM    4  C4  UNL     1     -38.146  60.649   3.511  1.00  0.00     0.154 C
HETATM    5  O1  UNL     1     -37.113  60.590   4.192  1.00  0.00    -0.295 OA
BRANCH   4   6
HETATM    6  C2  UNL     1     -38.254  61.698   2.487  1.00  0.00     0.049 C
HETATM    7  C1  UNL     1     -37.203  62.777   2.747  1.00  0.00     0.017 C
HETATM    8  C3  UNL     1     -38.092  61.240   1.069  1.00  0.00     0.017 C
ENDBRANCH   4   6
ENDBRANCH   3   4
BRANCH   3   9
HETATM    9  N1  UNL     1     -40.395  59.969   3.036  1.00  0.00    -0.347 N
HETATM   10  C6  UNL     1     -41.120  59.001   2.329  1.00  0.00     0.249 C
HETATM   11  O2  UNL     1     -40.798  57.783   2.308  1.00  0.00    -0.271 OA
ATOM     12  H1  UNL     1     -40.714  60.937   3.009  1.00  0.00     0.163 HD
BRANCH  10  13
HETATM   13  C7  UNL     1     -42.321  59.409   1.568  1.00  0.00     0.277 C
HETATM   14  C8  UNL     1     -42.427  60.921   1.405  1.00  0.00     0.044 C
HETATM   15  C9  UNL     1     -43.496  60.975   0.308  1.00  0.00     0.030 C
HETATM   16  C10 UNL     1     -43.424  59.653  -0.399  1.00  0.00     0.233 C
HETATM   17  N2  UNL     1     -42.299  58.987   0.198  1.00  0.00    -0.062 N
ATOM     18  H22 UNL     1     -41.412  59.159  -0.277  1.00  0.00     0.278 HD
ATOM     19  H21 UNL     1     -42.299  57.975   0.074  1.00  0.00     0.278 HD
ENDBRANCH  10  13
ENDBRANCH   3   9
ENDBRANCH   1   3
BRANCH   1  20
HETATM   20  C12 UNL     1     -40.455  58.556   5.752  1.00  0.00     0.121 C
BRANCH  20  21
HETATM   21  C13 UNL     1     -39.561  57.769   6.678  1.00  0.00     0.221 C
HETATM   22  O3  UNL     1     -39.790  57.859   7.904  1.00  0.00    -0.273 OA
HETATM   23  N3  UNL     1     -38.527  56.984   6.121  1.00  0.00    -0.339 N
HETATM   24  C14 UNL     1     -37.575  56.184   6.830  1.00  0.00     0.127 C
HETATM   25  C17 UNL     1     -38.243  56.847   4.724  1.00  0.00     0.179 C
HETATM   26  C15 UNL     1     -36.284  56.513   6.069  1.00  0.00     0.022 C
HETATM   27  C16 UNL     1     -36.733  56.893   4.680  1.00  0.00     0.037 C
BRANCH  25  28
HETATM   28  C18 UNL     1     -38.653  55.549   4.149  1.00  0.00     0.241 C
HETATM   29  O4  UNL     1     -39.563  54.887   4.693  1.00  0.00    -0.271 OA
HETATM   30  N4  UNL     1     -38.038  55.041   2.997  1.00  0.00    -0.355 N
ATOM     31  H4  UNL     1     -37.300  55.601   2.571  1.00  0.00     0.162 HD
BRANCH  30  32
HETATM   32  C19 UNL     1     -38.370  53.786   2.370  1.00  0.00     0.084 C
HETATM   33  C20 UNL     1     -39.649  53.898   1.553  1.00  0.00     0.025 C
HETATM   34  C21 UNL     1     -39.588  52.627   0.727  1.00  0.00     0.002 C
HETATM   35  C22 UNL     1     -38.141  52.658   0.246  1.00  0.00     0.002 C
HETATM   36  C23 UNL     1     -37.365  53.263   1.413  1.00  0.00     0.025 C
ENDBRANCH  30  32
ENDBRANCH  25  28
ENDBRANCH  20  21
ENDBRANCH   1  20
TORSDOF 9
ENDMDL