MODEL 5
REMARK VINA RESULT: -6.441780041      2.651      3.836
REMARK  13 active torsions:
REMARK  status: ('A' for Active; 'I' for Inactive)
REMARK    1  A    between atoms: C3_3  and  C4_4
REMARK    2  A    between atoms: C4_4  and  C5_5
REMARK    3  A    between atoms: C5_5  and  C6_6
REMARK    4  A    between atoms: C6_6  and  N1_7
REMARK    5  A    between atoms: C6_6  and  C17_24
REMARK       I    between atoms: N1_7  and  C7_9
REMARK    6  A    between atoms: C7_9  and  C8_11
REMARK    7  A    between atoms: C8_11  and  N2_12
REMARK    8  A    between atoms: C8_11  and  C14_21
REMARK       I    between atoms: N2_12  and  C9_14
REMARK    9  A    between atoms: C9_14  and  O3_16
REMARK   10  A    between atoms: O3_16  and  C10_17
REMARK       I    between atoms: C17_24  and  N3_26
REMARK   11  A    between atoms: N3_26  and  S1_28
REMARK   12  A    between atoms: S1_28  and  N4_31
REMARK   13  A    between atoms: N4_31  and  C18_33
ROOT
HETATM    1  C1  UNL     1     -35.567  55.061   9.599  1.00  0.00     0.112 C
HETATM    2  C2  UNL     1     -35.292  55.493   8.223  1.00  0.00    -0.111 C
HETATM    3  C3  UNL     1     -35.068  55.827   7.080  1.00  0.00    -0.107 C
ENDROOT
BRANCH   3   4
HETATM    4  C4  UNL     1     -34.820  56.217   5.671  1.00  0.00     0.096 C
BRANCH   4   5
HETATM    5  C5  UNL     1     -35.705  57.368   5.346  1.00  0.00     0.047 C
BRANCH   5   6
HETATM    6  C6  UNL     1     -37.063  57.047   4.851  1.00  0.00     0.178 C
BRANCH   6   7
HETATM    7  N1  UNL     1     -37.069  55.961   3.887  1.00  0.00    -0.343 N
HETATM    8  C7  UNL     1     -38.237  55.179   3.684  1.00  0.00     0.265 C
HETATM    9  O1  UNL     1     -39.272  55.478   4.351  1.00  0.00    -0.266 OA
ATOM     10  H1  UNL     1     -36.226  55.759   3.349  1.00  0.00     0.163 HD
BRANCH   8  11
HETATM   11  C8  UNL     1     -38.379  54.034   2.762  1.00  0.00     0.085 C
BRANCH  11  12
HETATM   12  N2  UNL     1     -37.171  53.279   2.570  1.00  0.00    -0.301 N
HETATM   13  C9  UNL     1     -36.677  52.841   1.303  1.00  0.00     0.365 C
HETATM   14  O2  UNL     1     -37.291  53.117   0.243  1.00  0.00    -0.238 OA
ATOM     15  H2  UNL     1     -36.627  53.039   3.399  1.00  0.00     0.171 HD
BRANCH  13  16
HETATM   16  O3  UNL     1     -35.511  52.103   1.198  1.00  0.00    -0.294 OA
BRANCH  16  17
HETATM   17  C10 UNL     1     -34.394  52.440   0.429  1.00  0.00     0.061 C
HETATM   18  C11 UNL     1     -34.672  53.436  -0.662  1.00  0.00     0.046 C
HETATM   19  C12 UNL     1     -33.956  51.122  -0.249  1.00  0.00     0.046 C
HETATM   20  C13 UNL     1     -33.243  52.871   1.321  1.00  0.00     0.046 C
ENDBRANCH  16  17
ENDBRANCH  13  16
ENDBRANCH  11  12
BRANCH  11  21
HETATM   21  C14 UNL     1     -39.643  53.271   2.847  1.00  0.00     0.033 C
HETATM   22  C15 UNL     1     -40.022  52.709   1.482  1.00  0.00     0.016 C
HETATM   23  C16 UNL     1     -39.568  52.103   3.814  1.00  0.00     0.016 C
ENDBRANCH  11  21
ENDBRANCH   8  11
ENDBRANCH   6   7
BRANCH   6  24
HETATM   24  C17 UNL     1     -37.564  58.291   4.155  1.00  0.00     0.255 C
HETATM   25  O4  UNL     1     -36.983  59.363   4.397  1.00  0.00    -0.270 OA
HETATM   26  N3  UNL     1     -38.648  58.224   3.264  1.00  0.00    -0.236 N
ATOM     27  H3  UNL     1     -39.105  57.328   3.094  1.00  0.00     0.183 HD
BRANCH  26  28
HETATM   28  S1  UNL     1     -39.210  59.623   2.461  1.00  0.00     0.322 S
HETATM   29  O5  UNL     1     -38.129  60.095   1.489  1.00  0.00    -0.182 OA
HETATM   30  O6  UNL     1     -40.415  59.298   1.600  1.00  0.00    -0.182 OA
BRANCH  28  31
HETATM   31  N4  UNL     1     -39.518  60.912   3.532  1.00  0.00    -0.294 N
ATOM     32  H4  UNL     1     -38.854  61.188   4.255  1.00  0.00     0.174 HD
BRANCH  31  33
HETATM   33  C18 UNL     1     -40.767  61.580   3.349  1.00  0.00     0.031 C
HETATM   34  C19 UNL     1     -41.957  60.725   3.754  1.00  0.00     0.038 C
HETATM   35  C20 UNL     1     -41.017  62.045   1.925  1.00  0.00     0.038 C
HETATM   36  C21 UNL     1     -40.809  62.803   4.233  1.00  0.00     0.038 C
ENDBRANCH  31  33
ENDBRANCH  28  31
ENDBRANCH  26  28
ENDBRANCH   6  24
ENDBRANCH   5   6
ENDBRANCH   4   5
ENDBRANCH   3   4
TORSDOF 13
ENDMDL