MODEL 2
REMARK VINA RESULT: -6.577324686      2.753      7.746
REMARK  12 active torsions:
REMARK  status: ('A' for Active; 'I' for Inactive)
REMARK    1  A    between atoms: C2_2  and  C4_4
REMARK    2  A    between atoms: C4_4  and  N1_5
REMARK    3  A    between atoms: C4_4  and  C10_14
REMARK       I    between atoms: N1_5  and  C5_7
REMARK    4  A    between atoms: C5_7  and  C6_9
REMARK       I    between atoms: C10_14  and  N2_16
REMARK    5  A    between atoms: C12_18  and  N3_19
REMARK    6  A    between atoms: N3_19  and  C13_22
REMARK    7  A    between atoms: C13_22  and  C14_23
REMARK    8  A    between atoms: C14_23  and  C15_24
REMARK    9  A    between atoms: C14_23  and  C23_35
REMARK       I    between atoms: C15_24  and  N4_26
REMARK   10  A    between atoms: N4_26  and  C16_28
REMARK   11  A    between atoms: C16_28  and  C19_31
REMARK   12  A    between atoms: C23_35  and  O5_37
ROOT
HETATM    1  N3  UNL     1     -36.341  59.046   6.559  1.00  0.00    -0.067 N
ATOM      2  H31 UNL     1     -36.941  58.405   7.079  1.00  0.00     0.277 HD
ATOM      3  H32 UNL     1     -35.666  59.273   7.290  1.00  0.00     0.277 HD
ENDROOT
BRANCH   1   4
HETATM    4  C12 UNL     1     -37.081  60.233   6.149  1.00  0.00     0.221 C
HETATM    5  C11 UNL     1     -36.662  61.538   6.728  1.00  0.00     0.160 C
HETATM    6  N2  UNL     1     -37.002  62.134   5.455  1.00  0.00    -0.346 N
HETATM    7  C10 UNL     1     -37.441  63.389   5.011  1.00  0.00     0.243 C
HETATM    8  C25 UNL     1     -36.698  60.858   4.848  1.00  0.00     0.160 C
HETATM    9  O3  UNL     1     -37.611  64.290   5.904  1.00  0.00    -0.271 OA
BRANCH   7  10
HETATM   10  C4  UNL     1     -37.706  63.693   3.586  1.00  0.00     0.180 C
BRANCH  10  11
HETATM   11  C2  UNL     1     -37.991  65.149   3.320  1.00  0.00     0.009 C
HETATM   12  C1  UNL     1     -39.370  65.357   2.731  1.00  0.00     0.012 C
HETATM   13  C3  UNL     1     -37.004  65.647   2.266  1.00  0.00     0.012 C
ENDBRANCH  10  11
BRANCH  10  14
HETATM   14  N1  UNL     1     -38.779  62.864   3.060  1.00  0.00    -0.345 N
HETATM   15  C5  UNL     1     -38.635  61.967   2.003  1.00  0.00     0.247 C
HETATM   16  O1  UNL     1     -37.522  61.837   1.439  1.00  0.00    -0.271 OA
ATOM     17  H1  UNL     1     -39.699  62.943   3.495  1.00  0.00     0.163 HD
BRANCH  15  18
HETATM   18  C6  UNL     1     -39.757  61.158   1.520  1.00  0.00     0.213 C
HETATM   19  C7  UNL     1     -41.105  61.798   1.655  1.00  0.00     0.043 C
HETATM   20  C8  UNL     1     -42.020  60.582   1.453  1.00  0.00     0.029 C
HETATM   21  C9  UNL     1     -41.043  59.441   1.721  1.00  0.00     0.168 C
HETATM   22  O2  UNL     1     -39.922  60.001   2.317  1.00  0.00    -0.376 OA
ENDBRANCH  15  18
ENDBRANCH  10  14
ENDBRANCH   7  10
ENDBRANCH   1   4
BRANCH   1  23
HETATM   23  C13 UNL     1     -35.714  58.386   5.484  1.00  0.00     0.249 C
BRANCH  23  24
HETATM   24  C14 UNL     1     -35.732  56.914   5.377  1.00  0.00     0.132 C
BRANCH  24  25
HETATM   25  C15 UNL     1     -37.147  56.533   4.976  1.00  0.00     0.226 C
HETATM   26  O4  UNL     1     -38.107  57.152   5.460  1.00  0.00    -0.273 OA
HETATM   27  N4  UNL     1     -37.374  55.485   4.061  1.00  0.00    -0.351 N
ATOM     28  H4  UNL     1     -36.582  54.977   3.665  1.00  0.00     0.163 HD
BRANCH  27  29
HETATM   29  C16 UNL     1     -38.716  55.128   3.684  1.00  0.00     0.032 C
HETATM   30  C17 UNL     1     -39.496  54.814   4.962  1.00  0.00     0.039 C
HETATM   31  C18 UNL     1     -39.416  56.246   2.963  1.00  0.00     0.039 C
BRANCH  29  32
HETATM   32  C19 UNL     1     -38.651  53.878   2.826  1.00  0.00    -0.027 C
HETATM   33  C20 UNL     1     -37.227  53.440   2.614  1.00  0.00     0.017 C
HETATM   34  C21 UNL     1     -39.309  54.139   1.497  1.00  0.00     0.017 C
HETATM   35  C22 UNL     1     -39.403  52.774   3.505  1.00  0.00     0.017 C
ENDBRANCH  29  32
ENDBRANCH  27  29
ENDBRANCH  24  25
BRANCH  24  36
HETATM   36  C23 UNL     1     -35.365  56.145   6.593  1.00  0.00     0.128 C
HETATM   37  C24 UNL     1     -33.957  56.391   7.037  1.00  0.00     0.040 C
BRANCH  36  38
HETATM   38  O5  UNL     1     -36.219  56.456   7.677  1.00  0.00    -0.395 OA
ATOM     39  H5  UNL     1     -36.415  55.683   8.195  1.00  0.00     0.210 HD
ENDBRANCH  36  38
ENDBRANCH  24  36
ENDBRANCH  23  24
ENDBRANCH   1  23
TORSDOF 12
ENDMDL