MODEL 5
REMARK VINA RESULT: -6.799515993      1.879      2.474
REMARK  11 active torsions:
REMARK  status: ('A' for Active; 'I' for Inactive)
REMARK    1  A    between atoms: N1_2  and  C2_4
REMARK    2  A    between atoms: C2_4  and  C4_6
REMARK       I    between atoms: C4_6  and  N2_8
REMARK    3  A    between atoms: N2_8  and  C5_10
REMARK    4  A    between atoms: C5_10  and  C6_11
REMARK    5  A    between atoms: C5_10  and  C23_35
REMARK       I    between atoms: C6_11  and  N3_13
REMARK    6  A    between atoms: N3_13  and  C7_15
REMARK    7  A    between atoms: C7_15  and  C8_16
REMARK    8  A    between atoms: C7_15  and  C12_20
REMARK    9  A    between atoms: C8_16  and  C9_17
REMARK       I    between atoms: C12_20  and  N4_22
REMARK   10  A    between atoms: C16_26  and  O4_27
REMARK   11  A    between atoms: C18_30  and  C19_31
ROOT
HETATM    1  C7  UNL     1     -38.885  56.023   3.394  1.00  0.00     0.177 C
ENDROOT
BRANCH   1   2
HETATM    2  N3  UNL     1     -40.107  56.844   3.024  1.00  0.00    -0.346 N
HETATM    3  C6  UNL     1     -40.108  58.221   3.041  1.00  0.00     0.241 C
HETATM    4  O2  UNL     1     -39.006  58.787   3.411  1.00  0.00    -0.271 OA
ATOM      5  H3  UNL     1     -40.961  56.357   2.752  1.00  0.00     0.163 HD
BRANCH   3   6
HETATM    6  C5  UNL     1     -41.178  59.175   2.708  1.00  0.00     0.180 C
BRANCH   6   7
HETATM    7  N2  UNL     1     -42.477  58.567   2.978  1.00  0.00    -0.346 N
HETATM    8  C4  UNL     1     -43.375  59.106   3.942  1.00  0.00     0.240 C
HETATM    9  O1  UNL     1     -43.100  60.126   4.613  1.00  0.00    -0.271 OA
ATOM     10  H2  UNL     1     -42.749  57.732   2.460  1.00  0.00     0.163 HD
BRANCH   8  11
HETATM   11  C2  UNL     1     -44.680  58.449   4.165  1.00  0.00     0.165 C
HETATM   12  C3  UNL     1     -45.670  59.389   4.828  1.00  0.00     0.042 C
BRANCH  11  13
HETATM   13  N1  UNL     1     -44.655  57.223   4.877  1.00  0.00    -0.414 N
HETATM   14  C1  UNL     1     -44.783  57.312   6.300  1.00  0.00     0.140 C
ATOM     15  H1  UNL     1     -44.551  56.326   4.401  1.00  0.00     0.153 HD
ENDBRANCH  11  13
ENDBRANCH   8  11
ENDBRANCH   6   7
BRANCH   6  16
HETATM   16  C23 UNL     1     -41.119  59.793   1.355  1.00  0.00     0.009 C
HETATM   17  C24 UNL     1     -42.344  59.296   0.552  1.00  0.00     0.012 C
HETATM   18  C25 UNL     1     -41.384  61.303   1.513  1.00  0.00     0.012 C
ENDBRANCH   6  16
ENDBRANCH   3   6
ENDBRANCH   1   2
BRANCH   1  19
HETATM   19  C8  UNL     1     -39.224  54.716   2.780  1.00  0.00     0.038 C
BRANCH  19  20
HETATM   20  C9  UNL     1     -38.452  54.167   1.660  1.00  0.00    -0.020 C
HETATM   21  C10 UNL     1     -37.411  53.200   2.305  1.00  0.00     0.009 C
HETATM   22  C11 UNL     1     -39.381  53.225   0.852  1.00  0.00     0.009 C
ENDBRANCH  19  20
ENDBRANCH   1  19
BRANCH   1  23
HETATM   23  C12 UNL     1     -38.900  56.006   4.910  1.00  0.00     0.243 C
HETATM   24  O3  UNL     1     -40.034  55.779   5.373  1.00  0.00    -0.271 OA
HETATM   25  N4  UNL     1     -37.790  56.224   5.707  1.00  0.00    -0.345 N
HETATM   26  C13 UNL     1     -36.595  56.453   4.842  1.00  0.00     0.126 C
HETATM   27  C18 UNL     1     -37.699  56.270   7.105  1.00  0.00     0.097 C
HETATM   28  C14 UNL     1     -35.305  56.442   5.613  1.00  0.00     0.022 C
HETATM   29  C15 UNL     1     -35.127  57.621   6.510  1.00  0.00     0.033 C
HETATM   30  C16 UNL     1     -36.414  58.399   6.697  1.00  0.00     0.120 C
HETATM   31  C17 UNL     1     -37.321  57.668   7.637  1.00  0.00     0.057 C
BRANCH  30  32
HETATM   32  O4  UNL     1     -36.038  59.585   7.374  1.00  0.00    -0.396 OA
ATOM     33  H4  UNL     1     -36.669  59.681   8.079  1.00  0.00     0.210 HD
ENDBRANCH  30  32
BRANCH  27  34
HETATM   34  C19 UNL     1     -38.755  55.786   8.022  1.00  0.00    -0.031 C
HETATM   35  C20 UNL     1     -39.258  54.403   7.827  1.00  0.00     0.016 C
HETATM   36  C21 UNL     1     -38.058  55.693   9.445  1.00  0.00     0.016 C
HETATM   37  C22 UNL     1     -39.890  56.724   8.323  1.00  0.00     0.016 C
ENDBRANCH  27  34
ENDBRANCH   1  23
TORSDOF 11
ENDMDL