MODEL 5
REMARK VINA RESULT: -6.183358682      2.042      6.740
REMARK  12 active torsions:
REMARK  status: ('A' for Active; 'I' for Inactive)
REMARK    1  A    between atoms: C2_2  and  C3_3
REMARK    2  A    between atoms: C3_3  and  O1_4
REMARK    3  A    between atoms: C3_3  and  C4_6
REMARK    4  A    between atoms: C4_6  and  C5_7
REMARK    5  A    between atoms: C5_7  and  N1_8
REMARK    6  A    between atoms: C5_7  and  C22_33
REMARK       I    between atoms: N1_8  and  C6_10
REMARK    7  A    between atoms: C6_10  and  C7_12
REMARK       I    between atoms: N2_17  and  C12_18
REMARK    8  A    between atoms: C12_18  and  C13_20
REMARK    9  A    between atoms: C13_20  and  N3_21
REMARK   10  A    between atoms: C13_20  and  C19_30
REMARK       I    between atoms: N3_21  and  C14_23
REMARK   11  A    between atoms: C14_23  and  O5_25
REMARK   12  A    between atoms: O5_25  and  C15_26
REMARK       I    between atoms: C22_33  and  N4_35
ROOT
HETATM    1  C7  UNL     1     -39.236  60.007   6.467  1.00  0.00     0.179 C
HETATM    2  C8  UNL     1     -38.509  60.826   7.471  1.00  0.00     0.035 C
HETATM    3  C9  UNL     1     -37.013  60.775   7.318  1.00  0.00     0.004 C
HETATM    4  C10 UNL     1     -36.505  59.353   7.212  1.00  0.00     0.020 C
HETATM    5  C11 UNL     1     -37.243  58.595   6.127  1.00  0.00     0.127 C
HETATM    6  N2  UNL     1     -38.676  58.665   6.304  1.00  0.00    -0.337 N
HETATM    7  C12 UNL     1     -39.534  57.518   6.293  1.00  0.00     0.243 C
HETATM    8  O3  UNL     1     -40.788  57.781   6.400  1.00  0.00    -0.271 OA
ENDROOT
BRANCH   1   9
HETATM    9  C6  UNL     1     -39.494  60.688   5.194  1.00  0.00     0.241 C
HETATM   10  N1  UNL     1     -38.775  60.523   3.995  1.00  0.00    -0.346 N
ATOM     11  H1  UNL     1     -37.995  59.865   3.991  1.00  0.00     0.163 HD
HETATM   12  O2  UNL     1     -40.459  61.504   5.182  1.00  0.00    -0.271 OA
BRANCH  10  13
HETATM   13  C5  UNL     1     -39.074  61.227   2.768  1.00  0.00     0.179 C
BRANCH  13  14
HETATM   14  C4  UNL     1     -39.372  60.333   1.615  1.00  0.00     0.070 C
BRANCH  14  15
HETATM   15  C3  UNL     1     -40.730  59.702   1.633  1.00  0.00     0.142 C
BRANCH  15  16
HETATM   16  C2  UNL     1     -41.808  60.623   2.040  1.00  0.00    -0.006 C
HETATM   17  C1  UNL     1     -42.461  61.333   1.146  1.00  0.00     0.009 C
ENDBRANCH  15  16
BRANCH  15  18
HETATM   18  O1  UNL     1     -40.747  58.517   2.400  1.00  0.00    -0.392 OA
ATOM     19  H1  UNL     1     -40.815  57.747   1.847  1.00  0.00     0.210 HD
ENDBRANCH  15  18
ENDBRANCH  14  15
ENDBRANCH  13  14
BRANCH  13  20
HETATM   20  C22 UNL     1     -37.807  61.969   2.394  1.00  0.00     0.240 C
HETATM   21  O6  UNL     1     -37.330  61.931   1.234  1.00  0.00    -0.271 OA
HETATM   22  N4  UNL     1     -37.110  62.739   3.356  1.00  0.00    -0.364 N
HETATM   23  C23 UNL     1     -35.906  63.443   2.997  1.00  0.00     0.149 C
ATOM     24  H4  UNL     1     -37.464  62.797   4.312  1.00  0.00     0.161 HD
ENDBRANCH  13  20
ENDBRANCH  10  13
ENDBRANCH   1   9
BRANCH   7  25
HETATM   25  C13 UNL     1     -39.114  56.125   6.171  1.00  0.00     0.182 C
BRANCH  25  26
HETATM   26  N3  UNL     1     -39.576  55.671   4.832  1.00  0.00    -0.323 N
HETATM   27  C14 UNL     1     -38.649  55.499   3.764  1.00  0.00     0.362 C
HETATM   28  O4  UNL     1     -37.432  55.731   3.945  1.00  0.00    -0.238 OA
ATOM     29  H3  UNL     1     -40.566  55.482   4.677  1.00  0.00     0.165 HD
BRANCH  27  30
HETATM   30  O5  UNL     1     -39.035  55.082   2.511  1.00  0.00    -0.294 OA
BRANCH  30  31
HETATM   31  C15 UNL     1     -38.944  53.799   1.984  1.00  0.00     0.061 C
HETATM   32  C16 UNL     1     -39.591  52.864   3.014  1.00  0.00     0.046 C
HETATM   33  C17 UNL     1     -37.546  53.298   1.760  1.00  0.00     0.046 C
HETATM   34  C18 UNL     1     -39.730  53.619   0.695  1.00  0.00     0.046 C
ENDBRANCH  30  31
ENDBRANCH  27  30
ENDBRANCH  25  26
BRANCH  25  35
HETATM   35  C19 UNL     1     -39.768  55.180   7.162  1.00  0.00     0.009 C
HETATM   36  C20 UNL     1     -38.865  54.740   8.268  1.00  0.00     0.012 C
HETATM   37  C21 UNL     1     -40.331  53.940   6.521  1.00  0.00     0.012 C
ENDBRANCH  25  35
ENDBRANCH   7  25
TORSDOF 12
ENDMDL