MODEL 2
REMARK VINA RESULT: -5.387185237      1.242      2.701
REMARK  1 active torsions:
REMARK  status: ('A' for Active; 'I' for Inactive)
REMARK    1  A    between atoms: C3_3  and  N1_4
ROOT
HETATM    1  C1  UNL     1      14.444   1.934  18.267  1.00  0.00     0.013 C
HETATM    2  C2  UNL     1      14.449   2.452  17.180  1.00  0.00    -0.087 C
HETATM    3  C3  UNL     1      14.443   3.099  15.873  1.00  0.00     0.365 C
ENDROOT
BRANCH   3   4
HETATM    4  N1  UNL     1      15.496   2.520  15.060  1.00  0.00     0.103 N
HETATM    5  C4  UNL     1      15.212   1.130  14.874  1.00  0.00     0.274 C
HETATM    6  C5  UNL     1      16.456   0.300  14.661  1.00  0.00     0.032 C
HETATM    7  C6  UNL     1      16.594  -0.142  13.227  1.00  0.00     0.021 C
HETATM    8  C7  UNL     1      16.419   1.025  12.250  1.00  0.00     0.119 C
HETATM    9  N2  UNL     1      17.376   1.991  12.544  1.00  0.00    -0.400 N
HETATM   10  C8  UNL     1      17.100   3.109  13.310  1.00  0.00     0.085 C
ATOM     11  H2  UNL     1      18.321   1.869  12.179  1.00  0.00     0.158 HD
HETATM   12  C9  UNL     1      15.711   3.255  13.834  1.00  0.00     0.317 C
ENDBRANCH   3   4
TORSDOF 1
ENDMDL