MODEL 4
REMARK VINA RESULT: -5.124566291      2.356      3.734
REMARK  2 active torsions:
REMARK  status: ('A' for Active; 'I' for Inactive)
REMARK    1  A    between atoms: N1_3  and  C3_5
REMARK    2  A    between atoms: C6_8  and  O1_9
ROOT
HETATM    1  C1  UNL     1      16.988  -0.299  11.004  1.00  0.00     0.037 C
HETATM    2  C2  UNL     1      16.323   0.296  11.817  1.00  0.00    -0.005 C
HETATM    3  N1  UNL     1      15.548   0.998  12.741  1.00  0.00    -0.345 N
ATOM      4  H1  UNL     1      14.615   1.301  12.459  1.00  0.00     0.170 HD
ENDROOT
BRANCH   3   5
HETATM    5  C3  UNL     1      15.993   1.317  14.065  1.00  0.00     0.101 C
HETATM    6  C4  UNL     1      16.659   2.667  14.227  1.00  0.00     0.012 C
HETATM    7  C5  UNL     1      16.942   2.706  15.699  1.00  0.00     0.039 C
HETATM    8  C9  UNL     1      15.246   3.237  14.163  1.00  0.00     0.016 C
HETATM    9  C6  UNL     1      15.618   2.111  16.227  1.00  0.00     0.127 C
HETATM   10  C8  UNL     1      14.900   1.955  14.930  1.00  0.00     0.039 C
BRANCH   9  11
HETATM   11  O1  UNL     1      15.898   0.876  16.747  1.00  0.00    -0.390 OA
HETATM   12  C7  UNL     1      14.873   0.345  17.518  1.00  0.00     0.202 C
ENDBRANCH   9  11
ENDBRANCH   3   5
TORSDOF 2
ENDMDL