MODEL 2
REMARK VINA RESULT: -5.416527479      1.815      3.521
REMARK  2 active torsions:
REMARK  status: ('A' for Active; 'I' for Inactive)
REMARK    1  A    between atoms: C2_2  and  C4_4
REMARK    2  A    between atoms: C4_4  and  O1_5
ROOT
HETATM    1  C4  UNL     1      15.408   3.043  14.674  1.00  0.00     0.106 C
HETATM    2  C5  UNL     1      16.725   2.479  15.153  1.00  0.00     0.046 C
HETATM    3  C6  UNL     1      16.537   0.965  15.234  1.00  0.00     0.033 C
HETATM    4  C7  UNL     1      15.465   0.657  16.227  1.00  0.00     0.272 C
HETATM    5  N1  UNL     1      14.242   1.358  16.019  1.00  0.00     0.087 N
HETATM    6  C8  UNL     1      13.376   1.190  17.167  1.00  0.00     0.310 C
HETATM    7  C9  UNL     1      14.400   2.773  15.799  1.00  0.00     0.314 C
ENDROOT
BRANCH   1   8
HETATM    8  C2  UNL     1      15.442   4.488  14.449  1.00  0.00    -0.058 C
HETATM    9  C1  UNL     1      14.349   5.114  14.049  1.00  0.00     0.017 C
HETATM   10  C3  UNL     1      16.688   5.251  14.665  1.00  0.00     0.046 C
ENDBRANCH   1   8
BRANCH   1  11
HETATM   11  O1  UNL     1      14.940   2.331  13.572  1.00  0.00    -0.384 OA
ATOM     12  H1  UNL     1      14.881   1.396  13.732  1.00  0.00     0.211 HD
ENDBRANCH   1  11
TORSDOF 2
ENDMDL