MODEL 4
REMARK VINA RESULT: -5.090780921      2.123      3.420
REMARK  2 active torsions:
REMARK  status: ('A' for Active; 'I' for Inactive)
REMARK    1  A    between atoms: C2_2  and  O1_3
REMARK    2  A    between atoms: C2_2  and  C3_5
ROOT
HETATM    1  C3  UNL     1      14.859   2.984  14.444  1.00  0.00     0.071 C
HETATM    2  C4  UNL     1      15.955   2.366  13.608  1.00  0.00     0.243 C
HETATM    3  N1  UNL     1      15.777   0.950  13.411  1.00  0.00    -0.074 N
ATOM      4  H11 UNL     1      16.379   0.611  12.661  1.00  0.00     0.277 HD
ATOM      5  H12 UNL     1      14.865   0.755  12.998  1.00  0.00     0.277 HD
HETATM    6  C5  UNL     1      15.970   0.177  14.605  1.00  0.00     0.232 C
HETATM    7  C6  UNL     1      16.748   0.854  15.672  1.00  0.00     0.028 C
HETATM    8  C7  UNL     1      16.076   1.990  16.362  1.00  0.00     0.006 C
HETATM    9  C8  UNL     1      14.752   2.379  15.797  1.00  0.00    -0.007 C
HETATM   10  C9  UNL     1      14.062   3.285  16.771  1.00  0.00     0.011 C
ENDROOT
BRANCH   1  11
HETATM   11  C2  UNL     1      15.027   4.451  14.413  1.00  0.00     0.040 C
HETATM   12  C1  UNL     1      16.142   5.067  14.746  1.00  0.00     0.046 C
BRANCH  11  13
HETATM   13  O1  UNL     1      13.957   5.231  14.010  1.00  0.00    -0.365 OA
ATOM     14  H1  UNL     1      13.182   4.785  13.688  1.00  0.00     0.217 HD
ENDBRANCH  11  13
ENDBRANCH   1  11
TORSDOF 2
ENDMDL