MODEL 4
REMARK VINA RESULT: -5.269796971      2.107      3.690
REMARK  1 active torsions:
REMARK  status: ('A' for Active; 'I' for Inactive)
REMARK    1  A    between atoms: C2_2  and  N1_3
ROOT
HETATM    1  N1  UNL     1      14.794   2.195  15.383  1.00  0.00    -0.370 N
HETATM    2  C3  UNL     1      16.031   1.801  14.854  1.00  0.00     0.096 C
HETATM    3  C4  UNL     1      16.604   2.749  13.830  1.00  0.00     0.225 C
HETATM    4  C5  UNL     1      17.447   3.837  14.394  1.00  0.00     0.041 C
HETATM    5  C6  UNL     1      16.473   4.905  14.828  1.00  0.00     0.042 C
HETATM    6  C7  UNL     1      15.159   4.382  14.357  1.00  0.00     0.139 C
HETATM    7  C8  UNL     1      14.207   5.446  13.867  1.00  0.00     0.048 C
HETATM    8  C9  UNL     1      14.525   3.581  15.473  1.00  0.00     0.165 C
HETATM    9  N2  UNL     1      15.489   3.478  13.248  1.00  0.00    -0.056 N
ATOM     10  H21 UNL     1      14.720   2.905  12.900  1.00  0.00     0.279 HD
ATOM     11  H22 UNL     1      15.674   3.926  12.351  1.00  0.00     0.279 HD
ENDROOT
BRANCH   1  12
HETATM   12  C2  UNL     1      13.983   1.285  16.066  1.00  0.00     0.059 C
HETATM   13  C1  UNL     1      14.205   1.423  17.565  1.00  0.00     0.055 C
ENDBRANCH   1  12
TORSDOF 1
ENDMDL