MODEL 4
REMARK VINA RESULT: -5.273886948      1.587      1.712
REMARK  0 active torsions:
REMARK  status: ('A' for Active; 'I' for Inactive)
ROOT
HETATM    1  C1  UNL     1      16.441   5.446  13.514  1.00  0.00     0.143 C
HETATM    2  N1  UNL     1      16.089   4.409  14.389  1.00  0.00    -0.415 N
HETATM    3  C2  UNL     1      17.131   3.606  14.909  1.00  0.00     0.137 C
HETATM    4  C3  UNL     1      16.551   2.199  15.010  1.00  0.00     0.133 C
HETATM    5  C4  UNL     1      16.338   1.738  13.635  1.00  0.00     0.067 C
HETATM    6  N2  UNL     1      16.150   1.374  12.554  1.00  0.00    -0.197 NA
HETATM    7  C5  UNL     1      15.304   2.180  15.804  1.00  0.00     0.072 A
HETATM    8  C6  UNL     1      15.357   1.285  16.987  1.00  0.00     0.071 C
HETATM    9  N3  UNL     1      15.407   0.602  17.919  1.00  0.00    -0.196 NA
HETATM   10  C7  UNL     1      13.968   2.314  15.156  1.00  0.00     0.034 A
HETATM   11  C8  UNL     1      14.557   3.405  15.969  1.00  0.00     0.029 A
HETATM   12  C9  UNL     1      15.021   4.633  15.286  1.00  0.00     0.122 C
ENDROOT
TORSDOF 0
ENDMDL