MODEL 3
REMARK VINA RESULT: -4.707058025      4.438      5.779
REMARK  2 active torsions:
REMARK  status: ('A' for Active; 'I' for Inactive)
REMARK    1  A    between atoms: C2_2  and  O1_3
REMARK    2  A    between atoms: N1_8  and  C6_9
ROOT
HETATM    1  C1  UNL     1      18.328   3.069  11.089  1.00  0.00     0.047 C
HETATM    2  C2  UNL     1      17.576   1.773  11.154  1.00  0.00     0.070 C
HETATM    3  C3  UNL     1      18.488   0.625  10.878  1.00  0.00     0.041 C
HETATM    4  C4  UNL     1      17.964  -0.708  11.264  1.00  0.00     0.023 C
HETATM    5  C5  UNL     1      16.548  -0.640  11.855  1.00  0.00     0.123 C
HETATM    6  N1  UNL     1      16.628   0.346  12.894  1.00  0.00    -0.378 N
HETATM    7  C7  UNL     1      16.935   1.698  12.530  1.00  0.00     0.160 C
ENDROOT
BRANCH   2   8
HETATM    8  O1  UNL     1      16.605   1.807  10.140  1.00  0.00    -0.389 OA
ATOM      9  H1  UNL     1      16.255   0.927  10.059  1.00  0.00     0.210 HD
ENDBRANCH   2   8
BRANCH   6  10
HETATM   10  C6  UNL     1      16.408  -0.026  14.229  1.00  0.00     0.168 C
HETATM   11  S1  UNL     1      15.659   1.013  15.237  1.00  0.00    -0.074 SA
ENDBRANCH   6  10
TORSDOF 2
ENDMDL