MODEL 2
REMARK VINA RESULT: -5.206553521      1.213      2.429
REMARK  1 active torsions:
REMARK  status: ('A' for Active; 'I' for Inactive)
REMARK    1  A    between atoms: N1_4  and  C4_5
ROOT
HETATM    1  C1  UNL     1      17.188   1.636  12.378  1.00  0.00     0.029 C
HETATM    2  C2  UNL     1      15.934   0.953  12.886  1.00  0.00     0.032 C
HETATM    3  C3  UNL     1      16.068   0.838  14.378  1.00  0.00     0.273 C
HETATM    4  N1  UNL     1      15.118   1.681  15.095  1.00  0.00     0.094 N
HETATM    5  C7  UNL     1      15.633   2.999  15.354  1.00  0.00     0.300 C
HETATM    6  C8  UNL     1      15.444   3.972  14.237  1.00  0.00     0.262 C
HETATM    7  N2  UNL     1      15.674   3.438  12.929  1.00  0.00    -0.073 N
ATOM      8  H21 UNL     1      15.300   4.067  12.218  1.00  0.00     0.277 HD
ATOM      9  H22 UNL     1      15.083   2.623  12.770  1.00  0.00     0.277 HD
HETATM   10  C9  UNL     1      17.046   3.122  12.643  1.00  0.00     0.232 C
ENDROOT
BRANCH   4  11
HETATM   11  C4  UNL     1      14.965   1.047  16.405  1.00  0.00     0.223 A
HETATM   12  C5  UNL     1      14.624   1.845  17.597  1.00  0.00     0.038 A
HETATM   13  C6  UNL     1      13.529   1.107  16.932  1.00  0.00     0.038 A
ENDBRANCH   4  11
TORSDOF 1
ENDMDL