MODEL 5
REMARK VINA RESULT: -4.430946230      3.911      5.186
REMARK  2 active torsions:
REMARK  status: ('A' for Active; 'I' for Inactive)
REMARK    1  A    between atoms: S1_2  and  C3_4
REMARK    2  A    between atoms: C7_8  and  O1_9
ROOT
HETATM    1  C3  UNL     1      16.023   1.033  11.981  1.00  0.00     0.065 C
HETATM    2  C4  UNL     1      16.960  -0.153  11.821  1.00  0.00     0.017 C
HETATM    3  C5  UNL     1      18.238   0.396  11.256  1.00  0.00     0.004 C
HETATM    4  C6  UNL     1      18.014   1.901  11.076  1.00  0.00     0.033 C
HETATM    5  C7  UNL     1      16.517   1.953  10.919  1.00  0.00     0.131 C
ENDROOT
BRANCH   1   6
HETATM    6  S1  UNL     1      16.185   1.581  13.614  1.00  0.00    -0.221 SA
HETATM    7  C1  UNL     1      14.963   2.624  14.233  1.00  0.00     0.078 C
HETATM    8  C2  UNL     1      16.491   0.149  14.624  1.00  0.00     0.078 C
ENDBRANCH   1   6
BRANCH   5   9
HETATM    9  O1  UNL     1      15.987   3.209  10.933  1.00  0.00    -0.394 OA
ATOM     10  H1  UNL     1      16.593   3.909  11.149  1.00  0.00     0.210 HD
ENDBRANCH   5   9
TORSDOF 2
ENDMDL