MODEL 2
REMARK VINA RESULT: -8.164355441      3.313      5.111
REMARK  10 active torsions:
REMARK  status: ('A' for Active; 'I' for Inactive)
REMARK    1  A    between atoms: O1_2  and  C2_3
REMARK    2  A    between atoms: C5_6  and  C7_8
REMARK    3  A    between atoms: C7_8  and  C8_9
REMARK    4  A    between atoms: C8_9  and  C9_10
REMARK    5  A    between atoms: C21_24  and  C22_25
REMARK    6  A    between atoms: C21_24  and  O4_28
REMARK    7  A    between atoms: C22_25  and  O3_26
REMARK    8  A    between atoms: C24_31  and  O6_32
REMARK    9  A    between atoms: C24_31  and  C25_34
REMARK   10  A    between atoms: C25_34  and  O7_35
ROOT
HETATM    1  C9  UNL     1      24.606  48.678  -0.086  1.00  0.00     0.030 C
HETATM    2  C10 UNL     1      26.104  48.591  -0.265  1.00  0.00     0.025 C
HETATM    3  C11 UNL     1      24.264  49.100   1.308  1.00  0.00     0.136 C
HETATM    4  O2  UNL     1      24.837  49.808   2.086  1.00  0.00    -0.297 OA
HETATM    5  C12 UNL     1      22.954  48.427   1.608  1.00  0.00     0.085 C
HETATM    6  C13 UNL     1      22.922  47.175   0.777  1.00  0.00     0.012 C
HETATM    7  C14 UNL     1      24.055  47.275  -0.195  1.00  0.00     0.067 C
HETATM    8  S1  UNL     1      25.362  46.054   0.057  1.00  0.00    -0.162 SA
HETATM    9  C15 UNL     1      24.753  44.617   0.982  1.00  0.00     0.087 C
HETATM   10  C16 UNL     1      23.922  45.236   2.122  1.00  0.00     0.002 C
HETATM   11  C17 UNL     1      24.866  46.052   2.914  1.00  0.00     0.019 C
HETATM   12  C18 UNL     1      22.778  45.911   1.483  1.00  0.00     0.003 C
HETATM   13  C19 UNL     1      21.762  45.943   2.596  1.00  0.00     0.009 C
HETATM   14  C20 UNL     1      21.762  44.440   2.931  1.00  0.00     0.041 C
HETATM   15  C21 UNL     1      23.260  44.110   2.874  1.00  0.00     0.089 C
ENDROOT
BRANCH   1  16
HETATM   16  C8  UNL     1      23.965  49.670  -0.993  1.00  0.00     0.021 C
BRANCH  16  17
HETATM   17  C7  UNL     1      24.801  50.141  -2.139  1.00  0.00     0.039 C
BRANCH  17  18
HETATM   18  C5  UNL     1      24.172  49.775  -3.490  1.00  0.00     0.061 C
HETATM   19  C4  UNL     1      22.770  50.265  -3.470  1.00  0.00     0.040 C
HETATM   20  C3  UNL     1      22.581  51.641  -4.036  1.00  0.00     0.040 C
HETATM   21  C2  UNL     1      23.394  51.911  -5.266  1.00  0.00     0.185 C
HETATM   22  C24 UNL     1      24.415  50.832  -5.554  1.00  0.00     0.210 C
HETATM   23  O5  UNL     1      24.981  50.286  -4.454  1.00  0.00    -0.340 OA
HETATM   24  C6  UNL     1      24.140  48.261  -3.661  1.00  0.00     0.046 C
BRANCH  21  25
HETATM   25  O1  UNL     1      24.085  53.104  -5.065  1.00  0.00    -0.385 OA
HETATM   26  C1  UNL     1      23.694  53.731  -3.882  1.00  0.00     0.202 C
ENDBRANCH  21  25
BRANCH  22  27
HETATM   27  O6  UNL     1      25.446  51.483  -6.277  1.00  0.00    -0.362 OA
ATOM     28  H6  UNL     1      25.979  51.911  -5.617  1.00  0.00     0.213 HD
ENDBRANCH  22  27
BRANCH  22  29
HETATM   29  C25 UNL     1      23.840  49.823  -6.529  1.00  0.00     0.235 C
BRANCH  29  30
HETATM   30  O7  UNL     1      24.213  50.161  -7.811  1.00  0.00    -0.395 OA
ATOM     31  H7  UNL     1      23.658  49.704  -8.432  1.00  0.00     0.209 HD
ENDBRANCH  29  30
ENDBRANCH  22  29
ENDBRANCH  17  18
ENDBRANCH  16  17
ENDBRANCH   1  16
BRANCH  15  32
HETATM   32  C22 UNL     1      23.702  43.940   4.288  1.00  0.00     0.203 C
BRANCH  32  33
HETATM   33  O3  UNL     1      24.698  42.953   4.437  1.00  0.00    -0.398 OA
ATOM     34  H3  UNL     1      24.638  42.488   5.264  1.00  0.00     0.209 HD
ENDBRANCH  32  33
ENDBRANCH  15  32
BRANCH  15  35
HETATM   35  O4  UNL     1      23.456  42.916   2.197  1.00  0.00    -0.382 OA
HETATM   36  C23 UNL     1      22.346  42.135   2.045  1.00  0.00     0.202 C
ENDBRANCH  15  35
TORSDOF 10
ENDMDL