MODEL 2
REMARK VINA RESULT: -7.434467979      2.570      6.102
REMARK  13 active torsions:
REMARK  status: ('A' for Active; 'I' for Inactive)
REMARK    1  A    between atoms: C2_2  and  O1_3
REMARK    2  A    between atoms: O1_3  and  C3_4
REMARK    3  A    between atoms: C3_4  and  C4_6
REMARK    4  A    between atoms: C4_6  and  O3_7
REMARK    5  A    between atoms: O3_7  and  C5_8
REMARK    6  A    between atoms: C5_8  and  O4_9
REMARK    7  A    between atoms: C5_8  and  C7_13
REMARK    8  A    between atoms: O4_9  and  C6_10
REMARK    9  A    between atoms: C6_10  and  O5_11
REMARK   10  A    between atoms: C18_25  and  O7_26
REMARK   11  A    between atoms: C23_33  and  C24_34
REMARK   12  A    between atoms: C24_34  and  C25_35
REMARK   13  A    between atoms: C25_35  and  O9_36
ROOT
HETATM    1  C7  UNL     1      23.423  46.657   2.654  1.00  0.00     0.120 C
HETATM    2  C8  UNL     1      23.882  46.478   1.277  1.00  0.00     0.122 C
HETATM    3  C9  UNL     1      23.519  47.628   0.458  1.00  0.00     0.017 C
HETATM    4  C10 UNL     1      24.175  48.287  -0.477  1.00  0.00    -0.085 C
HETATM    5  C11 UNL     1      23.399  49.415  -1.052  1.00  0.00     0.043 C
HETATM    6  C12 UNL     1      25.504  48.098  -1.042  1.00  0.00     0.034 C
HETATM    7  C13 UNL     1      26.035  46.718  -1.100  1.00  0.00     0.015 C
HETATM    8  C14 UNL     1      25.457  45.692  -0.222  1.00  0.00     0.057 C
HETATM    9  C15 UNL     1      24.139  45.106  -0.503  1.00  0.00     0.062 C
HETATM   10  C16 UNL     1      24.288  43.570  -0.537  1.00  0.00     0.046 C
HETATM   11  C17 UNL     1      23.500  45.426  -1.831  1.00  0.00     0.046 C
HETATM   12  O6  UNL     1      23.329  45.378   0.591  1.00  0.00    -0.362 OA
HETATM   13  C18 UNL     1      25.333  46.099   1.244  1.00  0.00     0.100 C
HETATM   14  C19 UNL     1      25.741  45.016   2.128  1.00  0.00     0.045 C
HETATM   15  C20 UNL     1      25.033  44.620   3.340  1.00  0.00     0.044 C
HETATM   16  C21 UNL     1      23.558  44.333   3.265  1.00  0.00     0.090 A
HETATM   17  C22 UNL     1      23.149  42.865   3.339  1.00  0.00     0.049 C
HETATM   18  O8  UNL     1      22.868  45.002   4.434  1.00  0.00    -0.363 OA
HETATM   19  C23 UNL     1      22.637  45.451   3.147  1.00  0.00     0.106 A
ENDROOT
BRANCH   1  20
HETATM   20  C5  UNL     1      23.025  47.986   3.191  1.00  0.00     0.273 C
BRANCH  20  21
HETATM   21  O3  UNL     1      22.469  47.778   4.434  1.00  0.00    -0.351 OA
BRANCH  21  22
HETATM   22  C4  UNL     1      21.600  48.535   5.039  1.00  0.00     0.282 C
BRANCH  22  23
HETATM   23  C3  UNL     1      21.502  48.514   6.505  1.00  0.00     0.282 C
HETATM   24  O2  UNL     1      22.288  49.054   7.306  1.00  0.00    -0.263 OA
BRANCH  23  25
HETATM   25  O1  UNL     1      20.432  47.826   7.128  1.00  0.00    -0.320 OA
BRANCH  25  26
HETATM   26  C2  UNL     1      20.614  47.246   8.394  1.00  0.00     0.174 C
HETATM   27  C1  UNL     1      20.756  45.744   8.181  1.00  0.00     0.034 C
ENDBRANCH  25  26
ENDBRANCH  23  25
ENDBRANCH  22  23
ENDBRANCH  21  22
ENDBRANCH  20  21
BRANCH  20  28
HETATM   28  O4  UNL     1      24.293  48.599   3.598  1.00  0.00    -0.337 OA
BRANCH  28  29
HETATM   29  C6  UNL     1      24.562  49.785   3.044  1.00  0.00     0.337 C
BRANCH  29  30
HETATM   30  O5  UNL     1      25.703  49.898   2.253  1.00  0.00    -0.377 OA
ATOM     31  H5  UNL     1      26.270  49.140   2.173  1.00  0.00     0.212 HD
ENDBRANCH  29  30
ENDBRANCH  28  29
ENDBRANCH  20  28
ENDBRANCH   1  20
BRANCH  19  32
HETATM   32  C24 UNL     1      21.263  45.286   2.640  1.00  0.00     0.068 C
BRANCH  32  33
HETATM   33  C25 UNL     1      20.163  44.955   3.585  1.00  0.00     0.167 C
BRANCH  33  34
HETATM   34  O9  UNL     1      20.104  45.767   4.713  1.00  0.00    -0.401 OA
ATOM     35  H9  UNL     1      20.643  45.476   5.439  1.00  0.00     0.209 HD
ENDBRANCH  33  34
ENDBRANCH  32  33
ENDBRANCH  19  32
BRANCH  13  36
HETATM   36  O7  UNL     1      26.099  47.248   1.383  1.00  0.00    -0.386 OA
ATOM     37  H7  UNL     1      26.999  47.046   1.154  1.00  0.00     0.210 HD
ENDBRANCH  13  36
TORSDOF 13
ENDMDL