MODEL 4
REMARK VINA RESULT: -8.767263499      1.392      1.962
REMARK  13 active torsions:
REMARK  status: ('A' for Active; 'I' for Inactive)
REMARK    1  A    between atoms: O1_2  and  C2_3
REMARK    2  A    between atoms: C2_3  and  C3_5
REMARK    3  A    between atoms: C3_5  and  C4_6
REMARK    4  A    between atoms: C3_5  and  O4_9
REMARK    5  A    between atoms: C4_6  and  O3_7
REMARK    6  A    between atoms: O4_9  and  C5_10
REMARK    7  A    between atoms: C5_10  and  C6_12
REMARK    8  A    between atoms: C8_14  and  C9_15
REMARK    9  A    between atoms: C9_15  and  C10_16
REMARK   10  A    between atoms: C13_19  and  C14_20
REMARK   11  A    between atoms: C15_21  and  C16_22
REMARK   12  A    between atoms: C18_24  and  O6_25
REMARK   13  A    between atoms: C19_27  and  O7_28
ROOT
HETATM    1  C10 UNL     1      25.434  45.307  -2.945  1.00  0.00     0.001 A
HETATM    2  C11 UNL     1      25.028  44.663  -4.183  1.00  0.00    -0.006 A
HETATM    3  C12 UNL     1      24.525  43.263  -4.315  1.00  0.00     0.011 C
HETATM    4  C13 UNL     1      24.071  45.657  -3.499  1.00  0.00     0.016 A
ENDROOT
BRANCH   4   5
HETATM    5  C14 UNL     1      23.876  46.985  -4.103  1.00  0.00    -0.025 C
HETATM    6  C15 UNL     1      24.066  48.094  -3.424  1.00  0.00    -0.023 C
BRANCH   6   7
HETATM    7  C16 UNL     1      23.868  49.448  -4.032  1.00  0.00     0.044 C
HETATM    8  C17 UNL     1      24.706  49.639  -5.265  1.00  0.00     0.046 C
HETATM    9  C18 UNL     1      24.109  50.751  -6.113  1.00  0.00     0.148 C
HETATM   10  C19 UNL     1      25.030  51.923  -6.071  1.00  0.00     0.157 C
HETATM   11  C20 UNL     1      24.639  52.991  -5.102  1.00  0.00     0.007 C
HETATM   12  C21 UNL     1      25.688  54.104  -5.225  1.00  0.00     0.020 C
HETATM   13  C22 UNL     1      23.315  53.595  -5.467  1.00  0.00     0.020 C
HETATM   14  C23 UNL     1      24.644  52.554  -3.668  1.00  0.00     0.133 C
HETATM   15  C24 UNL     1      25.935  51.974  -3.219  1.00  0.00     0.036 C
HETATM   16  O8  UNL     1      23.621  51.694  -3.334  1.00  0.00    -0.374 OA
HETATM   17  C25 UNL     1      25.574  50.635  -2.626  1.00  0.00     0.041 C
HETATM   18  C26 UNL     1      24.138  50.486  -2.972  1.00  0.00     0.065 C
HETATM   19  C27 UNL     1      23.396  50.028  -1.710  1.00  0.00     0.047 C
BRANCH   9  20
HETATM   20  O6  UNL     1      24.095  50.264  -7.441  1.00  0.00    -0.393 OA
ATOM     21  H6  UNL     1      24.820  50.691  -7.882  1.00  0.00     0.210 HD
ENDBRANCH   9  20
BRANCH  10  22
HETATM   22  O7  UNL     1      25.031  52.525  -7.352  1.00  0.00    -0.392 OA
ATOM     23  H7  UNL     1      25.598  53.286  -7.318  1.00  0.00     0.210 HD
ENDBRANCH  10  22
ENDBRANCH   6   7
ENDBRANCH   4   5
BRANCH   1  24
HETATM   24  C9  UNL     1      25.510  44.637  -1.598  1.00  0.00     0.033 C
BRANCH  24  25
HETATM   25  C8  UNL     1      24.429  43.695  -1.325  1.00  0.00    -0.013 C
HETATM   26  C6  UNL     1      23.444  43.774  -0.473  1.00  0.00     0.009 C
HETATM   27  C7  UNL     1      22.487  42.589  -0.455  1.00  0.00     0.054 C
BRANCH  26  28
HETATM   28  C5  UNL     1      23.153  44.847   0.449  1.00  0.00     0.289 C
HETATM   29  O5  UNL     1      22.810  45.978  -0.038  1.00  0.00    -0.260 OA
BRANCH  28  30
HETATM   30  O4  UNL     1      23.199  44.801   1.816  1.00  0.00    -0.300 OA
BRANCH  30  31
HETATM   31  C3  UNL     1      22.023  44.983   2.569  1.00  0.00     0.255 C
BRANCH  31  32
HETATM   32  C2  UNL     1      22.273  45.833   3.770  1.00  0.00     0.290 C
HETATM   33  O2  UNL     1      23.092  46.782   3.702  1.00  0.00    -0.262 OA
BRANCH  32  34
HETATM   34  O1  UNL     1      21.633  45.626   4.983  1.00  0.00    -0.324 OA
HETATM   35  C1  UNL     1      20.531  46.436   5.361  1.00  0.00     0.213 C
ENDBRANCH  32  34
ENDBRANCH  31  32
BRANCH  31  36
HETATM   36  C4  UNL     1      21.485  43.627   2.943  1.00  0.00     0.207 C
BRANCH  36  37
HETATM   37  O3  UNL     1      20.118  43.770   3.167  1.00  0.00    -0.398 OA
ATOM     38  H3  UNL     1      19.755  42.898   3.265  1.00  0.00     0.209 HD
ENDBRANCH  36  37
ENDBRANCH  31  36
ENDBRANCH  30  31
ENDBRANCH  28  30
ENDBRANCH  26  28
ENDBRANCH  24  25
ENDBRANCH   1  24
TORSDOF 13
ENDMDL