MODEL 5
REMARK VINA RESULT: -7.459218721      1.149      2.609
REMARK  11 active torsions:
REMARK  status: ('A' for Active; 'I' for Inactive)
REMARK    1  A    between atoms: O1_2  and  C2_3
REMARK    2  A    between atoms: C4_5  and  C5_6
REMARK    3  A    between atoms: C6_8  and  C7_9
REMARK    4  A    between atoms: C7_9  and  C8_10
REMARK    5  A    between atoms: C8_10  and  O3_11
REMARK    6  A    between atoms: C8_10  and  C9_13
REMARK    7  A    between atoms: C9_13  and  N1_14
REMARK    8  A    between atoms: N1_14  and  C10_17
REMARK    9  A    between atoms: C21_29  and  O5_30
REMARK   10  A    between atoms: C24_34  and  O6_35
REMARK   11  A    between atoms: C26_37  and  O7_38
ROOT
HETATM    1  C5  UNL     1      23.745  47.650   0.131  1.00  0.00     0.176 C
HETATM    2  O2  UNL     1      23.244  46.307   0.314  1.00  0.00    -0.345 OA
HETATM    3  C6  UNL     1      22.868  45.971   1.598  1.00  0.00     0.048 C
HETATM    4  C14 UNL     1      23.429  46.636   2.592  1.00  0.00     0.038 C
HETATM    5  C15 UNL     1      24.431  47.714   2.439  1.00  0.00     0.162 C
HETATM    6  O4  UNL     1      25.529  47.344   3.197  1.00  0.00    -0.370 OA
HETATM    7  C16 UNL     1      26.303  46.502   2.423  1.00  0.00     0.059 C
HETATM    8  C17 UNL     1      27.749  46.752   2.800  1.00  0.00     0.046 C
HETATM    9  C18 UNL     1      25.997  45.072   2.808  1.00  0.00     0.046 C
HETATM   10  C19 UNL     1      26.002  46.787   0.981  1.00  0.00     0.039 C
HETATM   11  C20 UNL     1      26.964  47.798   0.398  1.00  0.00     0.041 C
HETATM   12  C21 UNL     1      25.934  48.864   0.764  1.00  0.00     0.133 C
HETATM   13  C22 UNL     1      24.917  47.821   1.005  1.00  0.00     0.052 C
ENDROOT
BRANCH   1  14
HETATM   14  C4  UNL     1      23.890  47.943  -1.301  1.00  0.00    -0.022 A
HETATM   15  C3  UNL     1      24.299  46.986  -2.206  1.00  0.00     0.049 A
HETATM   16  C2  UNL     1      24.454  47.216  -3.543  1.00  0.00     0.104 A
HETATM   17  C26 UNL     1      24.184  48.485  -4.010  1.00  0.00     0.135 A
HETATM   18  C24 UNL     1      23.772  49.481  -3.149  1.00  0.00     0.104 A
HETATM   19  C23 UNL     1      23.630  49.199  -1.806  1.00  0.00     0.049 A
BRANCH  16  20
HETATM   20  O1  UNL     1      24.874  46.204  -4.430  1.00  0.00    -0.353 OA
HETATM   21  C1  UNL     1      25.088  44.889  -4.021  1.00  0.00     0.210 C
ENDBRANCH  16  20
BRANCH  17  22
HETATM   22  O7  UNL     1      24.325  48.779  -5.368  1.00  0.00    -0.351 OA
HETATM   23  C27 UNL     1      23.204  48.506  -6.187  1.00  0.00     0.210 C
ENDBRANCH  17  22
BRANCH  18  24
HETATM   24  O6  UNL     1      23.510  50.745  -3.659  1.00  0.00    -0.353 OA
HETATM   25  C25 UNL     1      22.152  51.150  -3.784  1.00  0.00     0.210 C
ENDBRANCH  18  24
ENDBRANCH   1  14
BRANCH   3  26
HETATM   26  C7  UNL     1      21.855  44.885   1.867  1.00  0.00     0.097 C
BRANCH  26  27
HETATM   27  C8  UNL     1      22.563  43.543   1.978  1.00  0.00     0.149 C
BRANCH  27  28
HETATM   28  O3  UNL     1      23.474  43.500   0.919  1.00  0.00    -0.394 OA
ATOM     29  H3  UNL     1      24.309  43.773   1.282  1.00  0.00     0.210 HD
ENDBRANCH  27  28
BRANCH  27  30
HETATM   30  C9  UNL     1      21.591  42.405   1.808  1.00  0.00     0.265 C
BRANCH  30  31
HETATM   31  N1  UNL     1      21.305  41.804   3.086  1.00  0.00    -0.065 N
ATOM     32  H12 UNL     1      21.633  42.390   3.853  1.00  0.00     0.278 HD
ATOM     33  H11 UNL     1      20.305  41.820   3.288  1.00  0.00     0.278 HD
BRANCH  31  34
HETATM   34  C10 UNL     1      21.836  40.469   3.183  1.00  0.00     0.115 C
HETATM   35  C11 UNL     1      21.990  39.792   1.846  1.00  0.00     0.045 C
HETATM   36  C12 UNL     1      20.967  39.580   4.054  1.00  0.00     0.045 C
HETATM   37  C13 UNL     1      23.203  40.505   3.827  1.00  0.00     0.045 C
ENDBRANCH  31  34
ENDBRANCH  30  31
ENDBRANCH  27  30
ENDBRANCH  26  27
ENDBRANCH   3  26
BRANCH  12  38
HETATM   38  O5  UNL     1      25.776  49.804  -0.205  1.00  0.00    -0.395 OA
ATOM     39  H5  UNL     1      24.962  50.288  -0.123  1.00  0.00     0.210 HD
ENDBRANCH  12  38
TORSDOF 11
ENDMDL