MODEL 5
REMARK VINA RESULT: -9.842508020      2.480      6.222
REMARK  12 active torsions:
REMARK  status: ('A' for Active; 'I' for Inactive)
REMARK    1  A    between atoms: C2_2  and  C3_3
REMARK    2  A    between atoms: C2_2  and  C13_13
REMARK    3  A    between atoms: C3_3  and  C4_4
REMARK    4  A    between atoms: C4_4  and  C7_7
REMARK    5  A    between atoms: C14_15  and  C15_16
REMARK    6  A    between atoms: C15_16  and  O2_17
REMARK    7  A    between atoms: O2_17  and  C16_18
REMARK    8  A    between atoms: C16_18  and  C17_20
REMARK    9  A    between atoms: C22_25  and  N1_26
REMARK   10  A    between atoms: C26_32  and  O4_33
REMARK   11  A    between atoms: C27_35  and  O5_36
REMARK   12  A    between atoms: C28_38  and  O6_39
ROOT
HETATM    1  C13 UNL     1      22.742  47.330   3.013  1.00  0.00     0.157 C
HETATM    2  O1  UNL     1      22.983  46.391   4.005  1.00  0.00    -0.373 OA
HETATM    3  C14 UNL     1      21.777  45.776   4.438  1.00  0.00     0.177 C
HETATM    4  C26 UNL     1      20.606  46.637   4.328  1.00  0.00     0.180 C
HETATM    5  C27 UNL     1      21.122  48.091   4.628  1.00  0.00     0.180 C
HETATM    6  C28 UNL     1      21.870  48.468   3.332  1.00  0.00     0.178 C
ENDROOT
BRANCH   3   7
HETATM    7  C15 UNL     1      21.706  44.374   4.018  1.00  0.00     0.213 C
BRANCH   7   8
HETATM    8  O2  UNL     1      22.821  43.807   3.474  1.00  0.00    -0.315 OA
BRANCH   8   9
HETATM    9  C16 UNL     1      23.363  42.574   3.473  1.00  0.00     0.295 C
HETATM   10  O3  UNL     1      24.567  42.466   3.871  1.00  0.00    -0.259 OA
BRANCH   9  11
HETATM   11  C17 UNL     1      22.698  41.340   3.061  1.00  0.00     0.068 A
HETATM   12  C18 UNL     1      22.561  40.310   3.994  1.00  0.00     0.020 A
HETATM   13  C19 UNL     1      21.936  39.134   3.695  1.00  0.00     0.001 A
HETATM   14  C20 UNL     1      21.412  38.920   2.442  1.00  0.00     0.002 A
HETATM   15  C21 UNL     1      21.535  39.913   1.509  1.00  0.00     0.032 A
HETATM   16  C22 UNL     1      22.171  41.101   1.832  1.00  0.00     0.072 A
BRANCH  16  17
HETATM   17  N1  UNL     1      22.282  42.090   0.819  1.00  0.00    -0.267 N
HETATM   18  C23 UNL     1      22.885  41.974  -0.362  1.00  0.00     0.118 A
HETATM   19  C24 UNL     1      22.751  43.188  -1.011  1.00  0.00     0.038 A
HETATM   20  C25 UNL     1      22.042  44.016  -0.155  1.00  0.00     0.109 A
HETATM   21  N2  UNL     1      21.774  43.309   0.951  1.00  0.00    -0.305 N
ATOM     22  H2  UNL     1      21.262  43.653   1.763  1.00  0.00     0.186 HD
ENDBRANCH  16  17
ENDBRANCH   9  11
ENDBRANCH   8   9
ENDBRANCH   7   8
ENDBRANCH   3   7
BRANCH   4  23
HETATM   23  O4  UNL     1      19.591  46.365   5.253  1.00  0.00    -0.390 OA
ATOM     24  H4  UNL     1      19.235  47.131   5.688  1.00  0.00     0.210 HD
ENDBRANCH   4  23
BRANCH   1  25
HETATM   25  C2  UNL     1      23.883  47.569   2.139  1.00  0.00     0.014 C
HETATM   26  C1  UNL     1      23.896  49.178   2.018  1.00  0.00     0.012 C
BRANCH  25  27
HETATM   27  C3  UNL     1      23.981  47.102   0.745  1.00  0.00     0.020 C
BRANCH  27  28
HETATM   28  C4  UNL     1      25.070  46.373   0.154  1.00  0.00    -0.020 C
HETATM   29  C5  UNL     1      25.357  45.048   0.783  1.00  0.00     0.020 C
HETATM   30  C6  UNL     1      26.412  47.160   0.313  1.00  0.00     0.020 C
BRANCH  28  31
HETATM   31  C7  UNL     1      24.988  46.151  -1.305  1.00  0.00    -0.050 A
HETATM   32  C8  UNL     1      24.308  47.081  -2.055  1.00  0.00     0.008 A
HETATM   33  C9  UNL     1      24.204  46.901  -3.442  1.00  0.00     0.001 A
HETATM   34  C10 UNL     1      24.778  45.800  -4.055  1.00  0.00     0.000 A
HETATM   35  C11 UNL     1      25.465  44.866  -3.292  1.00  0.00     0.001 A
HETATM   36  C12 UNL     1      25.551  45.074  -1.909  1.00  0.00     0.008 A
ENDBRANCH  28  31
ENDBRANCH  27  28
ENDBRANCH  25  27
ENDBRANCH   1  25
BRANCH   5  37
HETATM   37  O5  UNL     1      20.002  48.861   4.800  1.00  0.00    -0.390 OA
ATOM     38  H5  UNL     1      20.102  49.282   5.645  1.00  0.00     0.210 HD
ENDBRANCH   5  37
BRANCH   6  39
HETATM   39  O6  UNL     1      20.783  48.582   2.392  1.00  0.00    -0.390 OA
ATOM     40  H6  UNL     1      19.940  48.523   2.825  1.00  0.00     0.210 HD
ENDBRANCH   6  39
TORSDOF 12
ENDMDL