MODEL 3
REMARK VINA RESULT: -8.038660517      3.000     11.193
REMARK  10 active torsions:
REMARK  status: ('A' for Active; 'I' for Inactive)
REMARK    1  A    between atoms: O1_2  and  C2_3
REMARK    2  A    between atoms: C5_6  and  N1_7
REMARK    3  A    between atoms: C7_12  and  O3_13
REMARK    4  A    between atoms: C8_15  and  C9_16
REMARK    5  A    between atoms: N3_17  and  C10_19
REMARK    6  A    between atoms: C13_22  and  S1_23
REMARK    7  A    between atoms: S1_23  and  N4_26
REMARK    8  A    between atoms: N4_26  and  C14_27
REMARK    9  A    between atoms: N4_26  and  C17_30
REMARK   10  A    between atoms: C22_35  and  N5_36
ROOT
HETATM    1  N1  UNL     1      21.928  53.035  -6.283  1.00  0.00    -0.249 N
HETATM    2  C6  UNL     1      22.788  52.972  -7.308  1.00  0.00     0.334 A
HETATM    3  O2  UNL     1      22.707  53.938  -8.144  1.00  0.00    -0.246 OA
HETATM    4  N2  UNL     1      23.674  52.004  -7.488  1.00  0.00    -0.288 N
ATOM      5  H2  UNL     1      24.300  52.017  -8.293  1.00  0.00     0.172 HD
HETATM    6  C7  UNL     1      23.733  51.012  -6.599  1.00  0.00     0.159 A
HETATM    7  C8  UNL     1      22.873  50.984  -5.485  1.00  0.00     0.074 A
HETATM    8  C22 UNL     1      21.981  52.018  -5.361  1.00  0.00     0.126 A
ENDROOT
BRANCH   7   9
HETATM    9  C9  UNL     1      22.960  49.889  -4.532  1.00  0.00     0.108 C
HETATM   10  N3  UNL     1      24.083  49.606  -4.010  1.00  0.00    -0.365 N
ATOM     11  H3  UNL     1      24.896  50.161  -4.279  1.00  0.00     0.165 HD
BRANCH  10  12
HETATM   12  C10 UNL     1      24.266  48.545  -3.062  1.00  0.00     0.032 A
HETATM   13  C11 UNL     1      24.284  47.222  -3.456  1.00  0.00     0.031 A
HETATM   14  C12 UNL     1      24.459  46.198  -2.548  1.00  0.00     0.027 A
HETATM   15  C13 UNL     1      24.623  46.456  -1.202  1.00  0.00     0.079 A
HETATM   16  C20 UNL     1      24.603  47.780  -0.813  1.00  0.00     0.027 A
HETATM   17  C21 UNL     1      24.428  48.811  -1.719  1.00  0.00     0.031 A
BRANCH  15  18
HETATM   18  S1  UNL     1      24.847  45.149  -0.037  1.00  0.00     0.261 S
HETATM   19  O4  UNL     1      25.477  43.963  -0.698  1.00  0.00    -0.200 OA
HETATM   20  O5  UNL     1      25.902  45.673   0.937  1.00  0.00    -0.200 OA
BRANCH  18  21
HETATM   21  N4  UNL     1      23.466  44.810   0.842  1.00  0.00    -0.299 N
BRANCH  21  22
HETATM   22  C14 UNL     1      23.081  45.711   1.860  1.00  0.00     0.088 C
HETATM   23  C15 UNL     1      23.466  45.278   3.249  1.00  0.00     0.032 C
HETATM   24  C16 UNL     1      21.584  45.942   1.799  1.00  0.00     0.032 C
ENDBRANCH  21  22
BRANCH  21  25
HETATM   25  C17 UNL     1      22.620  43.763   0.486  1.00  0.00     0.088 C
HETATM   26  C18 UNL     1      22.617  43.434  -1.006  1.00  0.00     0.032 C
HETATM   27  C19 UNL     1      22.827  42.458   1.211  1.00  0.00     0.032 C
ENDBRANCH  21  25
ENDBRANCH  18  21
ENDBRANCH  15  18
ENDBRANCH  10  12
ENDBRANCH   7   9
BRANCH   6  28
HETATM   28  O3  UNL     1      24.633  49.979  -6.734  1.00  0.00    -0.345 OA
ATOM     29  H3  UNL     1      25.323  50.005  -7.385  1.00  0.00     0.219 HD
ENDBRANCH   6  28
BRANCH   8  30
HETATM   30  N5  UNL     1      21.164  52.076  -4.384  1.00  0.00    -0.384 N
ATOM     31  H52 UNL     1      21.109  52.900  -3.786  1.00  0.00     0.157 HD
ATOM     32  H51 UNL     1      20.569  51.263  -4.225  1.00  0.00     0.157 HD
ENDBRANCH   8  30
BRANCH   1  33
HETATM   33  C5  UNL     1      20.995  54.099  -6.135  1.00  0.00     0.045 A
HETATM   34  C4  UNL     1      21.288  55.204  -5.361  1.00  0.00     0.033 A
HETATM   35  C3  UNL     1      20.378  56.232  -5.222  1.00  0.00     0.039 A
HETATM   36  C2  UNL     1      19.144  56.216  -5.837  1.00  0.00     0.068 A
HETATM   37  C24 UNL     1      18.848  55.111  -6.612  1.00  0.00     0.039 A
HETATM   38  C23 UNL     1      19.759  54.084  -6.749  1.00  0.00     0.033 A
BRANCH  36  39
HETATM   39  O1  UNL     1      18.231  57.255  -5.693  1.00  0.00    -0.356 OA
HETATM   40  C1  UNL     1      17.168  57.371  -6.621  1.00  0.00     0.210 C
ENDBRANCH  36  39
ENDBRANCH   1  33
TORSDOF 10
ENDMDL