MODEL 5
REMARK VINA RESULT: -8.412894457      1.422      1.762
REMARK  10 active torsions:
REMARK  status: ('A' for Active; 'I' for Inactive)
REMARK    1  A    between atoms: C2_2  and  C3_3
REMARK    2  A    between atoms: N1_4  and  N2_6
REMARK    3  A    between atoms: N2_6  and  C4_8
REMARK    4  A    between atoms: C4_8  and  C5_9
REMARK    5  A    between atoms: C5_9  and  O1_10
REMARK    6  A    between atoms: C5_9  and  C6_12
REMARK    7  A    between atoms: C5_9  and  C12_18
REMARK    8  A    between atoms: C15_21  and  O2_22
REMARK    9  A    between atoms: O2_22  and  C16_23
REMARK   10  A    between atoms: C23_31  and  O4_32
ROOT
HETATM    1  C12 UNL     1      23.797  45.147   2.348  1.00  0.00     0.061 C
HETATM    2  C13 UNL     1      23.487  46.545   1.906  1.00  0.00     0.031 C
HETATM    3  C14 UNL     1      24.527  46.428   0.766  1.00  0.00     0.076 C
HETATM    4  C15 UNL     1      25.770  47.100   1.210  1.00  0.00     0.166 C
HETATM    5  C18 UNL     1      26.233  48.180   0.292  1.00  0.00    -0.057 C
HETATM    6  C19 UNL     1      27.496  48.141  -0.038  1.00  0.00     0.017 C
HETATM    7  C20 UNL     1      25.487  49.309  -0.319  1.00  0.00     0.070 C
HETATM    8  C21 UNL     1      25.191  48.771  -1.674  1.00  0.00     0.160 A
HETATM    9  O3  UNL     1      24.018  48.526  -2.254  1.00  0.00    -0.369 OA
HETATM   10  C22 UNL     1      24.814  47.404  -1.602  1.00  0.00     0.214 A
HETATM   11  C23 UNL     1      23.965  46.832  -0.545  1.00  0.00     0.207 C
HETATM   12  O5  UNL     1      23.300  45.771  -1.214  1.00  0.00    -0.316 OA
HETATM   13  C24 UNL     1      23.854  44.563  -1.152  1.00  0.00     0.161 C
HETATM   14  C25 UNL     1      25.094  44.270  -1.943  1.00  0.00     0.078 C
HETATM   15  C26 UNL     1      22.799  43.612  -1.772  1.00  0.00     0.078 C
HETATM   16  O6  UNL     1      24.031  44.144   0.108  1.00  0.00    -0.349 OA
HETATM   17  C27 UNL     1      24.518  44.943   1.070  1.00  0.00     0.149 C
ENDROOT
BRANCH   1  18
HETATM   18  C5  UNL     1      22.808  44.322   2.988  1.00  0.00     0.124 C
BRANCH  18  19
HETATM   19  C4  UNL     1      22.287  44.981   4.240  1.00  0.00     0.123 C
BRANCH  19  20
HETATM   20  N2  UNL     1      20.942  45.389   4.274  1.00  0.00    -0.313 N
ATOM     21  H2  UNL     1      20.187  44.704   4.320  1.00  0.00     0.185 HD
BRANCH  20  22
HETATM   22  N1  UNL     1      20.666  46.776   4.241  1.00  0.00    -0.312 N
HETATM   23  C3  UNL     1      20.880  47.579   5.214  1.00  0.00     0.106 C
ATOM     24  H1  UNL     1      20.271  47.162   3.384  1.00  0.00     0.186 HD
BRANCH  23  25
HETATM   25  C2  UNL     1      20.551  48.978   5.043  1.00  0.00     0.008 C
HETATM   26  C1  UNL     1      20.635  49.818   6.052  1.00  0.00     0.013 C
ENDBRANCH  23  25
ENDBRANCH  20  22
ENDBRANCH  19  20
ENDBRANCH  18  19
BRANCH  18  27
HETATM   27  O1  UNL     1      21.672  44.504   2.069  1.00  0.00    -0.379 OA
ATOM     28  H1  UNL     1      22.044  45.095   1.425  1.00  0.00     0.211 HD
ENDBRANCH  18  27
BRANCH  18  29
HETATM   29  C6  UNL     1      22.822  42.913   3.178  1.00  0.00    -0.018 A
HETATM   30  C7  UNL     1      21.913  42.174   2.389  1.00  0.00     0.010 A
HETATM   31  C8  UNL     1      21.796  40.823   2.447  1.00  0.00     0.001 A
HETATM   32  C9  UNL     1      22.584  40.097   3.306  1.00  0.00     0.000 A
HETATM   33  C10 UNL     1      23.478  40.750   4.091  1.00  0.00     0.001 A
HETATM   34  C11 UNL     1      23.575  42.134   4.009  1.00  0.00     0.010 A
ENDBRANCH  18  29
ENDBRANCH   1  18
BRANCH   4  35
HETATM   35  O2  UNL     1      25.683  47.777   2.434  1.00  0.00    -0.381 OA
BRANCH  35  36
HETATM   36  C16 UNL     1      26.851  47.971   3.107  1.00  0.00     0.164 C
HETATM   37  C17 UNL     1      26.920  49.476   3.415  1.00  0.00     0.033 C
ENDBRANCH  35  36
ENDBRANCH   4  35
BRANCH  11  38
HETATM   38  O4  UNL     1      22.836  47.654  -0.225  1.00  0.00    -0.362 OA
ATOM     39  H4  UNL     1      22.194  47.460  -0.897  1.00  0.00     0.213 HD
ENDBRANCH  11  38
TORSDOF 10
ENDMDL