MODEL 4
REMARK VINA RESULT: -8.816771046      1.640      2.227
REMARK  11 active torsions:
REMARK  status: ('A' for Active; 'I' for Inactive)
REMARK    1  A    between atoms: C2_2  and  C3_3
REMARK    2  A    between atoms: C2_2  and  O4_19
REMARK    3  A    between atoms: C4_4  and  C5_5
REMARK    4  A    between atoms: C5_5  and  O1_6
REMARK    5  A    between atoms: C5_5  and  C6_8
REMARK    6  A    between atoms: C9_12  and  O3_13
REMARK    7  A    between atoms: O4_19  and  C14_20
REMARK    8  A    between atoms: C14_20  and  C15_21
REMARK    9  A    between atoms: C14_20  and  C23_35
REMARK   10  A    between atoms: C15_21  and  C16_22
REMARK   11  A    between atoms: C23_35  and  C24_37
ROOT
HETATM    1  C14 UNL     1      23.637  45.774  -1.543  1.00  0.00     0.199 C
ENDROOT
BRANCH   1   2
HETATM    2  O4  UNL     1      24.639  46.587  -0.901  1.00  0.00    -0.369 OA
BRANCH   2   3
HETATM    3  C2  UNL     1      24.049  47.765  -0.458  1.00  0.00     0.141 C
HETATM    4  C1  UNL     1      24.558  48.039   0.945  1.00  0.00     0.044 C
BRANCH   3   5
HETATM    5  C3  UNL     1      24.411  48.901  -1.316  1.00  0.00     0.003 C
HETATM    6  C4  UNL     1      23.504  49.844  -1.584  1.00  0.00     0.004 C
BRANCH   6   7
HETATM    7  C5  UNL     1      23.776  51.029  -2.441  1.00  0.00     0.152 C
BRANCH   7   8
HETATM    8  O1  UNL     1      24.940  51.636  -1.913  1.00  0.00    -0.391 OA
ATOM      9  H1  UNL     1      24.641  52.375  -1.398  1.00  0.00     0.210 HD
ENDBRANCH   7   8
BRANCH   7  10
HETATM   10  C6  UNL     1      24.032  50.632  -3.855  1.00  0.00     0.095 C
HETATM   11  C7  UNL     1      22.792  50.204  -4.542  1.00  0.00     0.137 C
HETATM   12  O2  UNL     1      21.702  50.315  -4.027  1.00  0.00    -0.297 OA
HETATM   13  C8  UNL     1      22.882  49.619  -5.903  1.00  0.00     0.110 C
HETATM   14  C9  UNL     1      24.204  50.084  -6.504  1.00  0.00     0.126 C
HETATM   15  C10 UNL     1      24.362  51.539  -6.093  1.00  0.00     0.041 C
HETATM   16  C11 UNL     1      24.792  51.668  -4.638  1.00  0.00    -0.032 C
HETATM   17  C12 UNL     1      26.287  51.412  -4.613  1.00  0.00     0.016 C
HETATM   18  C13 UNL     1      24.518  53.073  -4.190  1.00  0.00     0.016 C
BRANCH  14  19
HETATM   19  O3  UNL     1      24.141  50.028  -7.889  1.00  0.00    -0.395 OA
ATOM     20  H3  UNL     1      23.427  50.568  -8.204  1.00  0.00     0.210 HD
ENDBRANCH  14  19
ENDBRANCH   7  10
ENDBRANCH   6   7
ENDBRANCH   3   5
ENDBRANCH   2   3
ENDBRANCH   1   2
BRANCH   1  21
HETATM   21  C15 UNL     1      23.835  44.455  -0.820  1.00  0.00     0.141 C
BRANCH  21  22
HETATM   22  C16 UNL     1      23.271  44.150   0.446  1.00  0.00     0.349 C
HETATM   23  N1  UNL     1      21.987  44.636   0.863  1.00  0.00     0.004 N
HETATM   24  C17 UNL     1      21.882  43.732   2.051  1.00  0.00     0.244 C
ATOM     25  H12 UNL     1      21.886  45.639   1.018  1.00  0.00     0.285 HD
ATOM     26  H11 UNL     1      21.228  44.620   0.182  1.00  0.00     0.285 HD
HETATM   27  C18 UNL     1      20.714  43.957   2.871  1.00  0.00     0.061 C
HETATM   28  C19 UNL     1      21.975  42.457   1.315  1.00  0.00     0.302 C
HETATM   29  C20 UNL     1      23.230  44.001   2.655  1.00  0.00     0.102 C
HETATM   30  O5  UNL     1      21.280  41.423   1.457  1.00  0.00    -0.262 OA
HETATM   31  O6  UNL     1      23.020  42.706   0.438  1.00  0.00    -0.256 OA
HETATM   32  C21 UNL     1      23.866  42.765   3.234  1.00  0.00     0.049 C
HETATM   33  C22 UNL     1      23.179  45.037   3.753  1.00  0.00     0.049 C
HETATM   34  O7  UNL     1      24.029  44.430   1.585  1.00  0.00    -0.319 OA
ENDBRANCH  21  22
ENDBRANCH   1  21
BRANCH   1  35
HETATM   35  C23 UNL     1      23.979  45.718  -2.951  1.00  0.00     0.159 C
HETATM   36  O8  UNL     1      23.404  46.502  -3.746  1.00  0.00    -0.295 OA
BRANCH  35  37
HETATM   37  C24 UNL     1      24.964  44.793  -3.553  1.00  0.00     0.050 C
HETATM   38  C25 UNL     1      25.723  45.287  -4.719  1.00  0.00     0.017 C
HETATM   39  C26 UNL     1      24.210  43.519  -3.976  1.00  0.00     0.017 C
ENDBRANCH  35  37
ENDBRANCH   1  35
TORSDOF 11
ENDMDL