MODEL 2
REMARK VINA RESULT: -8.080396349      2.619      6.731
REMARK  12 active torsions:
REMARK  status: ('A' for Active; 'I' for Inactive)
REMARK    1  A    between atoms: C2_2  and  O1_3
REMARK    2  A    between atoms: C2_2  and  C3_5
REMARK    3  A    between atoms: C7_11  and  C8_12
REMARK    4  A    between atoms: C8_12  and  O4_13
REMARK    5  A    between atoms: C13_20  and  O5_21
REMARK    6  A    between atoms: O5_21  and  C14_22
REMARK    7  A    between atoms: C14_22  and  C15_23
REMARK    8  A    between atoms: C15_23  and  C16_24
REMARK    9  A    between atoms: C16_24  and  O6_25
REMARK   10  A    between atoms: O6_25  and  C17_26
REMARK   11  A    between atoms: C17_26  and  C18_27
REMARK   12  A    between atoms: C26_35  and  O7_36
ROOT
HETATM    1  C3  UNL     1      25.108  49.397  -0.091  1.00  0.00     0.111 C
HETATM    2  C4  UNL     1      25.181  50.537   0.903  1.00  0.00     0.051 C
HETATM    3  O2  UNL     1      25.200  48.222   0.712  1.00  0.00    -0.364 OA
HETATM    4  C5  UNL     1      25.008  47.055   0.004  1.00  0.00     0.188 C
HETATM    5  C6  UNL     1      23.832  47.071  -0.937  1.00  0.00     0.188 C
HETATM    6  O3  UNL     1      23.851  48.221  -1.670  1.00  0.00    -0.368 OA
HETATM    7  C7  UNL     1      23.808  49.281  -0.772  1.00  0.00     0.182 C
HETATM    8  C9  UNL     1      24.076  45.847  -1.830  1.00  0.00    -0.011 A
HETATM    9  C10 UNL     1      24.129  45.820  -3.173  1.00  0.00     0.060 A
HETATM   10  S1  UNL     1      24.475  44.172  -3.517  1.00  0.00    -0.112 SA
HETATM   11  C11 UNL     1      24.536  43.582  -1.900  1.00  0.00     0.060 A
HETATM   12  C12 UNL     1      24.288  44.678  -1.150  1.00  0.00    -0.011 A
HETATM   13  C13 UNL     1      24.174  44.740   0.391  1.00  0.00     0.187 C
HETATM   14  C26 UNL     1      24.839  45.932   0.975  1.00  0.00     0.183 C
ENDROOT
BRANCH  13  15
HETATM   15  O5  UNL     1      22.870  44.589   0.728  1.00  0.00    -0.377 OA
BRANCH  15  16
HETATM   16  C14 UNL     1      22.168  45.350   1.531  1.00  0.00     0.188 C
BRANCH  16  17
HETATM   17  C15 UNL     1      21.804  44.928   2.933  1.00  0.00     0.038 A
HETATM   18  C24 UNL     1      20.537  44.323   3.243  1.00  0.00    -0.012 A
HETATM   19  C25 UNL     1      20.630  45.610   3.585  1.00  0.00    -0.012 A
BRANCH  17  20
HETATM   20  C16 UNL     1      22.995  44.920   3.874  1.00  0.00     0.187 C
BRANCH  20  21
HETATM   21  O6  UNL     1      23.439  43.753   4.303  1.00  0.00    -0.385 OA
BRANCH  21  22
HETATM   22  C17 UNL     1      24.055  42.839   3.537  1.00  0.00     0.206 C
BRANCH  22  23
HETATM   23  C18 UNL     1      23.232  41.599   3.332  1.00  0.00    -0.035 A
HETATM   24  C19 UNL     1      22.431  41.397   2.244  1.00  0.00     0.009 A
HETATM   25  C20 UNL     1      21.691  40.244   2.092  1.00  0.00     0.001 A
HETATM   26  C21 UNL     1      21.743  39.267   3.039  1.00  0.00     0.000 A
HETATM   27  C22 UNL     1      22.545  39.452   4.143  1.00  0.00     0.001 A
HETATM   28  C23 UNL     1      23.281  40.607   4.285  1.00  0.00     0.009 A
ENDBRANCH  22  23
ENDBRANCH  21  22
ENDBRANCH  20  21
ENDBRANCH  17  20
ENDBRANCH  16  17
ENDBRANCH  15  16
ENDBRANCH  13  15
BRANCH  14  29
HETATM   29  O7  UNL     1      26.097  45.532   1.490  1.00  0.00    -0.390 OA
ATOM     30  H7  UNL     1      26.417  44.767   1.025  1.00  0.00     0.210 HD
ENDBRANCH  14  29
BRANCH   1  31
HETATM   31  C2  UNL     1      26.345  49.377  -0.922  1.00  0.00     0.151 C
HETATM   32  C1  UNL     1      26.600  50.627  -1.737  1.00  0.00     0.042 C
BRANCH  31  33
HETATM   33  O1  UNL     1      27.448  49.351  -0.013  1.00  0.00    -0.393 OA
ATOM     34  H1  UNL     1      27.110  49.805   0.749  1.00  0.00     0.210 HD
ENDBRANCH  31  33
ENDBRANCH   1  31
BRANCH   7  35
HETATM   35  C8  UNL     1      23.131  50.460  -1.325  1.00  0.00     0.199 C
BRANCH  35  36
HETATM   36  O4  UNL     1      23.091  50.588  -2.700  1.00  0.00    -0.398 OA
ATOM     37  H4  UNL     1      22.431  51.164  -3.069  1.00  0.00     0.209 HD
ENDBRANCH  35  36
ENDBRANCH   7  35
TORSDOF 12
ENDMDL