MODEL 1
REMARK VINA RESULT: -9.884965076      0.000      0.000
REMARK  11 active torsions:
REMARK  status: ('A' for Active; 'I' for Inactive)
REMARK    1  A    between atoms: C3_3  and  O1_4
REMARK    2  A    between atoms: C3_3  and  C4_6
REMARK    3  A    between atoms: C8_10  and  N1_11
REMARK    4  A    between atoms: N1_11  and  C9_13
REMARK    5  A    between atoms: C10_16  and  N3_17
REMARK    6  A    between atoms: N3_17  and  C11_19
REMARK    7  A    between atoms: C14_22  and  O2_23
REMARK    8  A    between atoms: O2_23  and  C15_24
REMARK    9  A    between atoms: C15_24  and  C16_25
REMARK   10  A    between atoms: C16_25  and  N4_26
REMARK   11  A    between atoms: C20_30  and  O3_31
ROOT
HETATM    1  C1  UNL     1      22.013  37.196   1.267  1.00  0.00     0.015 C
HETATM    2  C2  UNL     1      21.798  37.878   2.212  1.00  0.00    -0.081 C
HETATM    3  C3  UNL     1      21.511  38.705   3.376  1.00  0.00     0.229 C
ENDROOT
BRANCH   3   4
HETATM    4  O1  UNL     1      20.133  38.881   3.520  1.00  0.00    -0.379 OA
ATOM      5  H1  UNL     1      19.895  39.785   3.350  1.00  0.00     0.211 HD
ENDBRANCH   3   4
BRANCH   3   6
HETATM    6  C4  UNL     1      22.111  40.063   3.266  1.00  0.00    -0.016 A
HETATM    7  C5  UNL     1      23.123  40.452   4.125  1.00  0.00     0.011 A
HETATM    8  C6  UNL     1      23.700  41.697   4.049  1.00  0.00     0.003 A
HETATM    9  C7  UNL     1      23.259  42.579   3.095  1.00  0.00     0.030 A
HETATM   10  C8  UNL     1      22.247  42.224   2.217  1.00  0.00     0.049 A
HETATM   11  C26 UNL     1      21.682  40.964   2.313  1.00  0.00     0.040 A
BRANCH  10  12
HETATM   12  N1  UNL     1      21.835  43.167   1.259  1.00  0.00    -0.192 N
ATOM     13  H1  UNL     1      21.140  42.880   0.570  1.00  0.00     0.184 HD
BRANCH  12  14
HETATM   14  C9  UNL     1      22.287  44.378   1.201  1.00  0.00     0.685 A
HETATM   15  N2  UNL     1      23.251  44.644   0.302  1.00  0.00    -0.175 N
HETATM   16  C10 UNL     1      23.764  45.881   0.190  1.00  0.00     0.137 A
ATOM     17  H2  UNL     1      23.597  43.898  -0.302  1.00  0.00     0.186 HD
HETATM   18  C22 UNL     1      23.322  46.910   0.986  1.00  0.00     0.071 A
HETATM   19  C23 UNL     1      23.605  48.249   1.143  1.00  0.00     0.126 A
HETATM   20  C25 UNL     1      22.318  46.626   1.918  1.00  0.00     0.152 A
HETATM   21  N5  UNL     1      22.814  48.728   2.112  1.00  0.00    -0.307 N
HETATM   22  N6  UNL     1      22.036  47.771   2.590  1.00  0.00    -0.280 N
ATOM     23  H5  UNL     1      22.811  49.695   2.436  1.00  0.00     0.186 HD
HETATM   24  C24 UNL     1      21.055  47.927   3.646  1.00  0.00     0.179 C
HETATM   25  N7  UNL     1      21.845  45.371   1.985  1.00  0.00    -0.174 N
ATOM     26  H7  UNL     1      21.114  45.165   2.666  1.00  0.00     0.186 HD
BRANCH  16  27
HETATM   27  N3  UNL     1      24.689  46.149  -0.668  1.00  0.00    -0.339 N
ATOM     28  H3  UNL     1      25.655  45.983  -0.389  1.00  0.00     0.167 HD
BRANCH  27  29
HETATM   29  C11 UNL     1      24.460  46.655  -1.963  1.00  0.00     0.067 A
HETATM   30  C12 UNL     1      24.475  47.987  -2.309  1.00  0.00     0.035 A
HETATM   31  C13 UNL     1      24.245  48.420  -3.587  1.00  0.00     0.039 A
HETATM   32  C14 UNL     1      23.979  47.520  -4.627  1.00  0.00     0.071 A
HETATM   33  C19 UNL     1      23.967  46.204  -4.268  1.00  0.00     0.075 A
HETATM   34  C20 UNL     1      24.196  45.738  -2.982  1.00  0.00     0.097 A
BRANCH  32  35
HETATM   35  O2  UNL     1      23.750  47.988  -5.894  1.00  0.00    -0.349 OA
BRANCH  35  36
HETATM   36  C15 UNL     1      23.934  49.281  -6.335  1.00  0.00     0.206 C
BRANCH  36  37
HETATM   37  C16 UNL     1      22.707  50.095  -6.585  1.00  0.00     0.297 C
BRANCH  37  38
HETATM   38  N4  UNL     1      22.701  51.328  -5.815  1.00  0.00     0.082 N
HETATM   39  C17 UNL     1      24.106  51.622  -5.507  1.00  0.00     0.309 C
HETATM   40  C18 UNL     1      21.968  51.176  -4.575  1.00  0.00     0.309 C
ENDBRANCH  37  38
ENDBRANCH  36  37
ENDBRANCH  35  36
ENDBRANCH  32  35
BRANCH  34  41
HETATM   41  O3  UNL     1      24.165  44.374  -2.707  1.00  0.00    -0.354 OA
HETATM   42  C21 UNL     1      24.416  43.475  -3.765  1.00  0.00     0.210 C
ENDBRANCH  34  41
ENDBRANCH  27  29
ENDBRANCH  16  27
ENDBRANCH  12  14
ENDBRANCH  10  12
ENDBRANCH   3   6
TORSDOF 11
ENDMDL