MODEL 1
REMARK VINA RESULT: -4.616747670      0.000      0.000
REMARK  1 active torsions:
REMARK  status: ('A' for Active; 'I' for Inactive)
REMARK       I    between atoms: C2_2  and  N1_4
REMARK    1  A    between atoms: N1_4  and  C3_6
ROOT
HETATM    1  C3  UNL     1      15.536   2.551  14.636  1.00  0.00     0.114 C
HETATM    2  C4  UNL     1      16.755   3.343  15.017  1.00  0.00     0.055 C
HETATM    3  C5  UNL     1      14.548   3.525  13.996  1.00  0.00     0.055 C
HETATM    4  C6  UNL     1      15.950   1.537  13.676  1.00  0.00     0.090 C
HETATM    5  N2  UNL     1      16.289   0.729  12.897  1.00  0.00    -0.195 NA
ENDROOT
BRANCH   1   6
HETATM    6  N1  UNL     1      14.873   1.946  15.747  1.00  0.00    -0.340 N
HETATM    7  C2  UNL     1      15.504   1.017  16.627  1.00  0.00     0.214 C
HETATM    8  C1  UNL     1      14.738   0.434  17.758  1.00  0.00     0.117 C
HETATM    9  O1  UNL     1      16.689   0.665  16.488  1.00  0.00    -0.274 OA
ATOM     10  H1  UNL     1      13.897   2.189  15.919  1.00  0.00     0.164 HD
ENDBRANCH   1   6
TORSDOF 1
ENDMDL