MODEL 3
REMARK VINA RESULT: -4.127945264      3.351      4.470
REMARK  2 active torsions:
REMARK  status: ('A' for Active; 'I' for Inactive)
REMARK    1  A    between atoms: O1_2  and  C2_3
REMARK       I    between atoms: C2_3  and  N1_5
REMARK    2  A    between atoms: N1_5  and  C3_7
ROOT
HETATM    1  C2  UNL     1      16.172   0.340  13.124  1.00  0.00     0.360 C
HETATM    2  O2  UNL     1      16.658   1.419  12.725  1.00  0.00    -0.239 OA
HETATM    3  N1  UNL     1      16.424  -0.825  12.344  1.00  0.00    -0.329 N
ATOM      4  H1  UNL     1      16.037  -1.718  12.650  1.00  0.00     0.165 HD
ENDROOT
BRANCH   3   5
HETATM    5  C3  UNL     1      17.211  -0.782  11.133  1.00  0.00     0.024 C
HETATM    6  C4  UNL     1      16.275  -0.546   9.978  1.00  0.00     0.037 C
HETATM    7  C5  UNL     1      18.259   0.282  11.256  1.00  0.00     0.037 C
HETATM    8  C6  UNL     1      17.922  -2.111  11.027  1.00  0.00     0.037 C
ENDBRANCH   3   5
BRANCH   1   9
HETATM    9  O1  UNL     1      15.429   0.330  14.278  1.00  0.00    -0.309 OA
HETATM   10  C1  UNL     1      15.126   1.547  14.953  1.00  0.00     0.215 C
ENDBRANCH   1   9
TORSDOF 2
ENDMDL