MODEL 1
REMARK VINA RESULT: -5.236242132      0.000      0.000
REMARK  1 active torsions:
REMARK  status: ('A' for Active; 'I' for Inactive)
REMARK    1  A    between atoms: N1_2  and  C2_4
ROOT
HETATM    1  C2  UNL     1      15.848   0.874  14.595  1.00  0.00     0.129 A
HETATM    2  N2  UNL     1      16.025  -0.253  15.307  1.00  0.00    -0.245 N
ATOM      3  H2  UNL     1      16.622  -1.035  15.036  1.00  0.00     0.196 HD
HETATM    4  O1  UNL     1      15.309  -0.190  16.402  1.00  0.00    -0.240 OA
HETATM    5  C3  UNL     1      14.652   0.933  16.466  1.00  0.00     0.082 A
HETATM    6  C4  UNL     1      13.736   1.346  17.574  1.00  0.00     0.079 C
HETATM    7  C5  UNL     1      14.971   1.645  15.325  1.00  0.00     0.015 A
HETATM    8  C6  UNL     1      14.477   2.973  14.945  1.00  0.00     0.055 C
ENDROOT
BRANCH   1   9
HETATM    9  N1  UNL     1      16.396   1.180  13.443  1.00  0.00    -0.379 N
HETATM   10  C1  UNL     1      16.283   0.269  12.333  1.00  0.00     0.147 C
ATOM     11  H1  UNL     1      16.900   2.060  13.334  1.00  0.00     0.160 HD
ENDBRANCH   1   9
TORSDOF 1
ENDMDL