MODEL 1
REMARK VINA RESULT: -4.879400797      0.000      0.000
REMARK  2 active torsions:
REMARK  status: ('A' for Active; 'I' for Inactive)
REMARK       I    between atoms: C2_2  and  N1_4
REMARK    1  A    between atoms: N1_4  and  O2_6
REMARK    2  A    between atoms: O2_6  and  C3_7
ROOT
HETATM    1  C1  UNL     1      14.673   0.816  17.378  1.00  0.00     0.119 C
HETATM    2  C2  UNL     1      15.788   0.972  16.359  1.00  0.00     0.237 C
HETATM    3  O1  UNL     1      16.814   0.288  16.619  1.00  0.00    -0.272 OA
HETATM    4  N1  UNL     1      15.572   1.820  15.276  1.00  0.00    -0.234 N
ATOM      5  H1  UNL     1      14.644   2.240  15.324  1.00  0.00     0.197 HD
ENDROOT
BRANCH   4   6
HETATM    6  O2  UNL     1      16.202   2.226  14.235  1.00  0.00    -0.268 OA
BRANCH   6   7
HETATM    7  C3  UNL     1      16.381   3.459  13.789  1.00  0.00     0.078 C
HETATM    8  C4  UNL     1      17.400   4.302  14.540  1.00  0.00     0.048 C
HETATM    9  C5  UNL     1      16.552   3.568  12.316  1.00  0.00     0.048 C
HETATM   10  C6  UNL     1      15.045   4.281  14.062  1.00  0.00     0.048 C
ENDBRANCH   6   7
ENDBRANCH   4   6
TORSDOF 2
ENDMDL