MODEL 3
REMARK VINA RESULT: -5.027505058      1.268      2.288
REMARK  2 active torsions:
REMARK  status: ('A' for Active; 'I' for Inactive)
REMARK    1  A    between atoms: C3_3  and  S1_5
REMARK    2  A    between atoms: S1_5  and  C5_6
ROOT
HETATM    1  C1  UNL     1      16.271   1.357  12.737  1.00  0.00     0.018 C
HETATM    2  C2  UNL     1      15.636   1.886  13.607  1.00  0.00    -0.071 C
HETATM    3  C3  UNL     1      14.855   2.526  14.706  1.00  0.00     0.052 C
HETATM    4  C4  UNL     1      14.750   3.804  14.635  1.00  0.00     0.041 C
ENDROOT
BRANCH   3   5
HETATM    5  S1  UNL     1      14.174   1.512  15.954  1.00  0.00    -0.025 SA
BRANCH   5   6
HETATM    6  C5  UNL     1      15.323   0.570  16.846  1.00  0.00     0.298 C
HETATM    7  N1  UNL     1      16.705   0.523  16.599  1.00  0.00    -0.051 NA
HETATM    8  O1  UNL     1      14.902  -0.158  17.825  1.00  0.00    -0.263 OA
ENDBRANCH   5   6
ENDBRANCH   3   5
TORSDOF 2
ENDMDL