MODEL 2
REMARK VINA RESULT: -4.529960995      1.592      3.295
REMARK  1 active torsions:
REMARK  status: ('A' for Active; 'I' for Inactive)
REMARK    1  A    between atoms: C5_6  and  O2_7
ROOT
HETATM    1  C1  UNL     1      15.977   1.517  13.153  1.00  0.00     0.040 C
HETATM    2  C2  UNL     1      16.155   0.530  12.071  1.00  0.00     0.124 C
HETATM    3  O1  UNL     1      16.752  -0.668  12.474  1.00  0.00    -0.378 OA
HETATM    4  C3  UNL     1      16.782  -1.362  11.262  1.00  0.00     0.147 C
HETATM    5  C4  UNL     1      17.709  -2.546  11.298  1.00  0.00     0.042 C
HETATM    6  C5  UNL     1      17.240  -0.365  10.213  1.00  0.00     0.152 C
HETATM    7  C6  UNL     1      17.105   0.960  10.976  1.00  0.00     0.041 C
HETATM    8  C7  UNL     1      18.462   1.332  11.477  1.00  0.00     0.015 C
ENDROOT
BRANCH   6   9
HETATM    9  O2  UNL     1      16.293  -0.407   9.178  1.00  0.00    -0.393 OA
ATOM     10  H2  UNL     1      16.776  -0.546   8.373  1.00  0.00     0.210 HD
ENDBRANCH   6   9
TORSDOF 1
ENDMDL