MODEL 4
REMARK VINA RESULT: -4.035963657      3.203      4.223
REMARK  0 active torsions:
REMARK  status: ('A' for Active; 'I' for Inactive)
ROOT
HETATM    1  C1  UNL     1      15.299   1.237  15.139  1.00  0.00     0.088 C
HETATM    2  C2  UNL     1      15.555   2.632  14.627  1.00  0.00     0.069 C
HETATM    3  N1  UNL     1      16.628   3.094  14.133  1.00  0.00    -0.370 N
ATOM      4  H1  UNL     1      17.478   2.542  14.023  1.00  0.00     0.161 HD
HETATM    5  C3  UNL     1      16.525   4.466  13.747  1.00  0.00     0.044 C
HETATM    6  C4  UNL     1      16.390   4.497  12.234  1.00  0.00     0.040 C
HETATM    7  C5  UNL     1      17.727   5.278  14.194  1.00  0.00     0.040 C
HETATM    8  C6  UNL     1      15.276   4.939  14.438  1.00  0.00     0.106 C
HETATM    9  C7  UNL     1      14.409   5.809  13.565  1.00  0.00     0.035 C
HETATM   10  N2  UNL     1      14.590   3.670  14.626  1.00  0.00    -0.374 N
ATOM     11  H2  UNL     1      13.584   3.549  14.738  1.00  0.00     0.161 HD
ENDROOT
TORSDOF 0
ENDMDL