MODEL 3
REMARK VINA RESULT: -4.895069753      2.159      3.101
REMARK  0 active torsions:
REMARK  status: ('A' for Active; 'I' for Inactive)
ROOT
HETATM    1  C1  UNL     1      17.048   2.658  11.239  1.00  0.00     0.070 C
HETATM    2  C2  UNL     1      16.561   1.623  12.204  1.00  0.00     0.029 A
HETATM    3  N1  UNL     1      16.286   1.741  13.506  1.00  0.00    -0.336 N
ATOM      4  H1  UNL     1      16.381   2.607  14.036  1.00  0.00     0.168 HD
HETATM    5  C3  UNL     1      15.869   0.573  14.031  1.00  0.00     0.189 A
HETATM    6  C4  UNL     1      15.481   0.313  15.404  1.00  0.00     0.137 C
HETATM    7  N2  UNL     1      15.160   0.090  16.495  1.00  0.00    -0.188 NA
HETATM    8  N3  UNL     1      15.888  -0.300  13.009  1.00  0.00    -0.336 N
ATOM      9  H3  UNL     1      15.624  -1.283  13.080  1.00  0.00     0.168 HD
HETATM   10  C5  UNL     1      16.303   0.304  11.881  1.00  0.00     0.029 A
HETATM   11  C6  UNL     1      16.475  -0.270  10.527  1.00  0.00     0.070 C
ENDROOT
TORSDOF 0
ENDMDL