MODEL 4
REMARK VINA RESULT: -4.671076674      1.741      4.175
REMARK  1 active torsions:
REMARK  status: ('A' for Active; 'I' for Inactive)
REMARK    1  A    between atoms: N1_2  and  C2_4
ROOT
HETATM    1  C2  UNL     1      15.918   1.043  13.351  1.00  0.00     0.224 A
HETATM    2  N2  UNL     1      15.845   0.004  12.500  1.00  0.00    -0.324 N
ATOM      3  H2  UNL     1      15.153  -0.744  12.549  1.00  0.00     0.169 HD
HETATM    4  C3  UNL     1      16.819   0.096  11.573  1.00  0.00     0.038 A
HETATM    5  C4  UNL     1      17.127  -0.807  10.448  1.00  0.00     0.071 C
HETATM    6  C5  UNL     1      17.497   1.267  11.916  1.00  0.00     0.075 A
HETATM    7  C6  UNL     1      18.670   1.865  11.236  1.00  0.00     0.079 C
HETATM    8  O1  UNL     1      16.921   1.790  12.979  1.00  0.00    -0.282 OA
ENDROOT
BRANCH   1   9
HETATM    9  N1  UNL     1      15.102   1.219  14.352  1.00  0.00    -0.360 N
HETATM   10  C1  UNL     1      14.901   2.510  14.938  1.00  0.00     0.150 C
ATOM     11  H1  UNL     1      14.595   0.417  14.727  1.00  0.00     0.162 HD
ENDBRANCH   1   9
TORSDOF 1
ENDMDL