MODEL 5
REMARK VINA RESULT: -4.182192131      1.781      3.102
REMARK  0 active torsions:
REMARK  status: ('A' for Active; 'I' for Inactive)
ROOT
HETATM    1  C1  UNL     1      17.411   3.898  10.120  1.00  0.00     0.070 C
HETATM    2  C2  UNL     1      17.378   2.664  10.941  1.00  0.00     0.318 C
HETATM    3  N1  UNL     1      16.236   1.812  10.690  1.00  0.00    -0.039 N
ATOM      4  H11 UNL     1      15.974   1.696   9.711  1.00  0.00     0.281 HD
ATOM      5  H12 UNL     1      15.331   2.187  10.973  1.00  0.00     0.281 HD
HETATM    6  C3  UNL     1      16.669   0.589  11.387  1.00  0.00     0.147 C
HETATM    7  C4  UNL     1      16.150   0.709  12.820  1.00  0.00     0.049 C
HETATM    8  C5  UNL     1      16.037  -0.570  10.730  1.00  0.00     0.049 C
HETATM    9  C6  UNL     1      18.136   0.684  11.332  1.00  0.00     0.155 C
HETATM   10  C7  UNL     1      18.877  -0.463  10.779  1.00  0.00     0.042 C
HETATM   11  O1  UNL     1      18.430   1.816  10.537  1.00  0.00    -0.352 OA
ENDROOT
TORSDOF 0
ENDMDL