MODEL 1
REMARK VINA RESULT: -4.647433721      0.000      0.000
REMARK  1 active torsions:
REMARK  status: ('A' for Active; 'I' for Inactive)
REMARK    1  A    between atoms: N1_4  and  N2_5
ROOT
HETATM    1  N2  UNL     1      32.020  -0.128  12.472  1.00  0.00    -0.247 NA
HETATM    2  C4  UNL     1      32.363  -1.428  12.961  1.00  0.00     0.135 C
HETATM    3  C5  UNL     1      32.817  -1.430  14.399  1.00  0.00     0.248 C
HETATM    4  N3  UNL     1      32.009  -0.626  15.257  1.00  0.00    -0.073 N
ATOM      5  H31 UNL     1      32.530   0.166  15.634  1.00  0.00     0.277 HD
ATOM      6  H32 UNL     1      31.800  -1.102  16.135  1.00  0.00     0.277 HD
HETATM    7  C6  UNL     1      30.813  -0.204  14.580  1.00  0.00     0.248 C
HETATM    8  C7  UNL     1      31.209   0.634  13.359  1.00  0.00     0.135 C
ENDROOT
BRANCH   1   9
HETATM    9  N1  UNL     1      33.145   0.503  12.002  1.00  0.00    -0.250 NA
HETATM   10  C3  UNL     1      32.929   1.786  11.422  1.00  0.00     0.108 C
HETATM   11  C2  UNL     1      34.092   1.990  10.475  1.00  0.00     0.017 C
HETATM   12  C1  UNL     1      34.908   0.716  10.544  1.00  0.00     0.017 C
HETATM   13  C8  UNL     1      33.878  -0.283  11.018  1.00  0.00     0.108 C
ENDBRANCH   1   9
TORSDOF 1
ENDMDL