MODEL 5
REMARK VINA RESULT: -4.321853486      1.703      2.752
REMARK  1 active torsions:
REMARK  status: ('A' for Active; 'I' for Inactive)
REMARK    1  A    between atoms: N2_10  and  C7_11
ROOT
HETATM    1  C1  UNL     1      31.230  -0.131  13.927  1.00  0.00     0.037 C
HETATM    2  C2  UNL     1      32.000   0.217  12.662  1.00  0.00     0.040 C
HETATM    3  C3  UNL     1      32.754  -1.051  12.279  1.00  0.00     0.249 C
HETATM    4  C4  UNL     1      31.801  -2.215  12.320  1.00  0.00     0.268 C
HETATM    5  N1  UNL     1      31.317  -2.487  13.654  1.00  0.00    -0.067 N
ATOM      6  H11 UNL     1      31.593  -3.407  13.996  1.00  0.00     0.277 HD
ATOM      7  H12 UNL     1      30.307  -2.627  13.688  1.00  0.00     0.277 HD
HETATM    8  C5  UNL     1      31.762  -1.417  14.512  1.00  0.00     0.214 C
HETATM    9  C6  UNL     1      33.267  -1.476  14.552  1.00  0.00     0.306 C
HETATM   10  N2  UNL     1      33.823  -1.179  13.264  1.00  0.00     0.101 N
ENDROOT
BRANCH  10  11
HETATM   11  C7  UNL     1      34.754  -2.157  12.773  1.00  0.00     0.223 A
HETATM   12  C8  UNL     1      35.871  -2.674  13.579  1.00  0.00     0.038 A
HETATM   13  C9  UNL     1      36.166  -1.594  12.589  1.00  0.00     0.038 A
ENDBRANCH  10  11
TORSDOF 1
ENDMDL