MODEL 2
REMARK VINA RESULT: -4.353875433      1.254      4.428
REMARK  1 active torsions:
REMARK  status: ('A' for Active; 'I' for Inactive)
REMARK    1  A    between atoms: C7_9  and  N2_10
ROOT
HETATM    1  C1  UNL     1      30.684  -0.534  14.861  1.00  0.00     0.031 C
HETATM    2  C2  UNL     1      31.910  -0.892  14.025  1.00  0.00     0.072 C
HETATM    3  C3  UNL     1      31.517  -2.069  13.188  1.00  0.00     0.031 C
HETATM    4  C4  UNL     1      32.568  -2.468  12.197  1.00  0.00     0.029 A
HETATM    5  C5  UNL     1      33.260  -1.329  11.580  1.00  0.00     0.043 A
HETATM    6  C6  UNL     1      32.711   0.018  11.929  1.00  0.00     0.121 C
HETATM    7  N1  UNL     1      32.428   0.224  13.309  1.00  0.00    -0.417 N
ATOM      8  H1  UNL     1      32.589   1.124  13.762  1.00  0.00     0.153 HD
HETATM    9  C7  UNL     1      34.015  -2.140  12.548  1.00  0.00     0.232 A
ENDROOT
BRANCH   9  10
HETATM   10  N2  UNL     1      34.934  -3.162  12.124  1.00  0.00     0.085 N
HETATM   11  C8  UNL     1      35.565  -3.696  13.305  1.00  0.00     0.309 C
HETATM   12  C9  UNL     1      35.866  -2.727  11.117  1.00  0.00     0.309 C
ENDBRANCH   9  10
TORSDOF 1
ENDMDL