MODEL 1
REMARK VINA RESULT: -4.958814540      0.000      0.000
REMARK  2 active torsions:
REMARK  status: ('A' for Active; 'I' for Inactive)
REMARK    1  A    between atoms: C2_2  and  O1_3
REMARK    2  A    between atoms: C2_2  and  C3_5
ROOT
HETATM    1  C3  UNL     1      32.653  -0.934  13.477  1.00  0.00     0.046 C
HETATM    2  C4  UNL     1      32.100  -1.841  12.433  1.00  0.00     0.279 C
HETATM    3  N1  UNL     1      33.185  -2.417  11.632  1.00  0.00     0.088 N
HETATM    4  C5  UNL     1      34.120  -1.376  11.237  1.00  0.00     0.272 C
HETATM    5  C6  UNL     1      34.818  -0.746  12.407  1.00  0.00     0.035 C
HETATM    6  C7  UNL     1      34.105  -1.257  13.666  1.00  0.00    -0.003 C
HETATM    7  C8  UNL     1      34.358  -2.756  13.695  1.00  0.00     0.035 C
HETATM    8  C9  UNL     1      33.892  -3.389  12.415  1.00  0.00     0.272 C
ENDROOT
BRANCH   1   9
HETATM    9  C2  UNL     1      31.884  -0.939  14.767  1.00  0.00     0.120 C
HETATM   10  C1  UNL     1      30.641  -0.124  14.737  1.00  0.00     0.040 C
BRANCH   9  11
HETATM   11  O1  UNL     1      32.715  -0.474  15.786  1.00  0.00    -0.396 OA
ATOM     12  H1  UNL     1      33.152   0.318  15.497  1.00  0.00     0.210 HD
ENDBRANCH   9  11
ENDBRANCH   1   9
TORSDOF 2
ENDMDL