MODEL 4
REMARK VINA RESULT: -4.180859659      1.724      4.167
REMARK  1 active torsions:
REMARK  status: ('A' for Active; 'I' for Inactive)
REMARK    1  A    between atoms: C2_2  and  N1_3
ROOT
HETATM    1  N1  UNL     1      32.166  -1.849  13.996  1.00  0.00     0.089 N
HETATM    2  C3  UNL     1      32.240  -2.426  12.669  1.00  0.00     0.279 C
HETATM    3  C4  UNL     1      33.595  -2.051  12.109  1.00  0.00     0.051 C
HETATM    4  C5  UNL     1      34.003  -3.191  11.193  1.00  0.00     0.239 C
HETATM    5  N2  UNL     1      35.260  -3.614  11.765  1.00  0.00    -0.074 N
ATOM      6  H21 UNL     1      36.071  -3.093  11.431  1.00  0.00     0.277 HD
ATOM      7  H22 UNL     1      35.580  -4.529  11.445  1.00  0.00     0.277 HD
HETATM    8  C6  UNL     1      35.035  -3.522  13.212  1.00  0.00     0.243 C
HETATM    9  C7  UNL     1      34.452  -2.132  13.335  1.00  0.00     0.013 C
HETATM   10  C8  UNL     1      35.565  -1.130  13.379  1.00  0.00     0.019 C
HETATM   11  C9  UNL     1      33.533  -1.950  14.498  1.00  0.00     0.283 C
ENDROOT
BRANCH   1  12
HETATM   12  C2  UNL     1      31.747  -0.477  13.787  1.00  0.00     0.268 C
HETATM   13  C1  UNL     1      30.751   0.034  14.773  1.00  0.00     0.037 C
ENDBRANCH   1  12
TORSDOF 1
ENDMDL