MODEL 4
REMARK VINA RESULT: -4.041324862      1.107      2.002
REMARK  3 active torsions:
REMARK  status: ('A' for Active; 'I' for Inactive)
REMARK    1  A    between atoms: N1_2  and  C4_5
REMARK    2  A    between atoms: C4_5  and  C5_6
REMARK    3  A    between atoms: C5_6  and  O1_7
ROOT
HETATM    1  C5  UNL     1      32.471  -1.158  13.348  1.00  0.00     0.185 C
HETATM    2  C6  UNL     1      32.055   0.173  12.712  1.00  0.00     0.072 C
HETATM    3  C7  UNL     1      30.838   0.629  13.505  1.00  0.00     0.032 C
HETATM    4  C8  UNL     1      30.857  -0.346  14.663  1.00  0.00     0.171 C
HETATM    5  O2  UNL     1      31.370  -1.504  14.091  1.00  0.00    -0.353 OA
ENDROOT
BRANCH   1   6
HETATM    6  C4  UNL     1      32.803  -2.083  12.234  1.00  0.00     0.303 C
BRANCH   6   7
HETATM    7  N1  UNL     1      34.156  -2.524  12.178  1.00  0.00    -0.073 N
HETATM    8  C1  UNL     1      35.117  -1.447  12.067  1.00  0.00     0.271 C
HETATM    9  C2  UNL     1      34.276  -3.378  10.983  1.00  0.00     0.271 C
HETATM   10  C3  UNL     1      34.557  -3.350  13.289  1.00  0.00     0.271 C
ENDBRANCH   6   7
ENDBRANCH   1   6
BRANCH   1  11
HETATM   11  O1  UNL     1      33.582  -0.895  14.137  1.00  0.00    -0.364 OA
ATOM     12  H1  UNL     1      33.809  -1.644  14.676  1.00  0.00     0.213 HD
ENDBRANCH   1  11
TORSDOF 3
ENDMDL