MODEL 4
REMARK VINA RESULT: -4.409903209     10.333     10.728
REMARK  2 active torsions:
REMARK  status: ('A' for Active; 'I' for Inactive)
REMARK    1  A    between atoms: C2_4  and  N2_5
REMARK    2  A    between atoms: C6_9  and  O1_11
ROOT
HETATM    1  N2  UNL     1      32.199   0.002  12.565  1.00  0.00    -0.374 N
HETATM    2  C3  UNL     1      31.389  -0.128  13.721  1.00  0.00     0.123 C
HETATM    3  C4  UNL     1      31.109  -1.522  14.161  1.00  0.00     0.023 C
HETATM    4  C5  UNL     1      32.169  -2.516  13.967  1.00  0.00     0.041 C
HETATM    5  C6  UNL     1      33.222  -2.201  12.960  1.00  0.00     0.070 C
HETATM    6  C7  UNL     1      34.487  -1.764  13.674  1.00  0.00     0.047 C
HETATM    7  C8  UNL     1      32.847  -1.123  11.988  1.00  0.00     0.161 C
ENDROOT
BRANCH   1   8
HETATM    8  C2  UNL     1      32.375   1.266  11.966  1.00  0.00     0.173 C
HETATM    9  N1  UNL     1      33.588   1.670  11.776  1.00  0.00    -0.391 N
HETATM   10  C1  UNL     1      33.905   2.947  11.171  1.00  0.00     0.147 C
ATOM     11  H1  UNL     1      34.355   1.063  12.065  1.00  0.00     0.159 HD
ENDBRANCH   1   8
BRANCH   5  12
HETATM   12  O1  UNL     1      33.576  -3.326  12.187  1.00  0.00    -0.389 OA
ATOM     13  H1  UNL     1      33.714  -4.101  12.719  1.00  0.00     0.210 HD
ENDBRANCH   5  12
TORSDOF 2
ENDMDL