MODEL 2
REMARK VINA RESULT: -4.336585173      1.579      3.194
REMARK  2 active torsions:
REMARK  status: ('A' for Active; 'I' for Inactive)
REMARK    1  A    between atoms: C2_2  and  O1_3
REMARK    2  A    between atoms: C2_2  and  C3_5
ROOT
HETATM    1  C3  UNL     1      33.025  -1.131  13.424  1.00  0.00     0.289 C
HETATM    2  C4  UNL     1      33.633  -2.494  13.622  1.00  0.00     0.100 C
HETATM    3  N1  UNL     1      35.031  -2.549  13.505  1.00  0.00    -0.374 N
HETATM    4  C5  UNL     1      35.487  -3.892  13.176  1.00  0.00     0.154 C
HETATM    5  C6  UNL     1      35.691  -1.531  12.799  1.00  0.00     0.092 C
HETATM    6  C7  UNL     1      34.911  -0.416  12.259  1.00  0.00     0.317 C
HETATM    7  N2  UNL     1      33.489  -0.595  12.199  1.00  0.00     0.101 N
HETATM    8  C8  UNL     1      32.911   0.657  11.808  1.00  0.00     0.311 C
ENDROOT
BRANCH   1   9
HETATM    9  C2  UNL     1      31.542  -1.274  13.549  1.00  0.00     0.152 C
HETATM   10  C1  UNL     1      30.953  -0.546  14.713  1.00  0.00     0.042 C
BRANCH   9  11
HETATM   11  O1  UNL     1      31.113  -2.593  13.599  1.00  0.00    -0.393 OA
ATOM     12  H1  UNL     1      30.327  -2.671  13.072  1.00  0.00     0.210 HD
ENDBRANCH   9  11
ENDBRANCH   1   9
TORSDOF 2
ENDMDL