MODEL 1
REMARK VINA RESULT: -4.698231160      0.000      0.000
REMARK  1 active torsions:
REMARK  status: ('A' for Active; 'I' for Inactive)
REMARK    1  A    between atoms: N1_3  and  C3_4
ROOT
HETATM    1  C1  UNL     1      31.097  -1.436  14.456  1.00  0.00     0.038 C
HETATM    2  C2  UNL     1      31.367  -2.449  13.374  1.00  0.00     0.274 C
HETATM    3  N1  UNL     1      32.567  -2.082  12.712  1.00  0.00     0.099 N
HETATM    4  C6  UNL     1      33.042  -0.833  13.184  1.00  0.00     0.254 C
HETATM    5  C7  UNL     1      33.215   0.151  12.022  1.00  0.00     0.268 C
HETATM    6  N2  UNL     1      32.220   1.173  12.216  1.00  0.00    -0.073 N
ATOM      7  H21 UNL     1      31.835   1.519  11.336  1.00  0.00     0.277 HD
ATOM      8  H22 UNL     1      32.618   2.052  12.547  1.00  0.00     0.277 HD
HETATM    9  C8  UNL     1      31.215   0.658  13.092  1.00  0.00     0.239 C
HETATM   10  C9  UNL     1      31.940  -0.267  14.032  1.00  0.00     0.048 C
ENDROOT
BRANCH   3  11
HETATM   11  C3  UNL     1      33.523  -3.151  12.669  1.00  0.00     0.223 A
HETATM   12  C4  UNL     1      34.875  -2.754  12.180  1.00  0.00     0.038 A
HETATM   13  C5  UNL     1      34.636  -3.188  13.647  1.00  0.00     0.038 A
ENDBRANCH   3  11
TORSDOF 1
ENDMDL