MODEL 4
REMARK VINA RESULT: -4.505740530      1.309      4.118
REMARK  1 active torsions:
REMARK  status: ('A' for Active; 'I' for Inactive)
REMARK    1  A    between atoms: C2_2  and  N1_4
ROOT
HETATM    1  N1  UNL     1      32.848  -1.120  13.611  1.00  0.00     0.098 N
HETATM    2  C4  UNL     1      32.409  -0.284  12.482  1.00  0.00     0.281 C
HETATM    3  C5  UNL     1      33.234  -1.158  11.593  1.00  0.00     0.073 C
HETATM    4  C6  UNL     1      34.692  -0.762  11.616  1.00  0.00     0.240 C
HETATM    5  N2  UNL     1      35.571  -1.862  11.288  1.00  0.00    -0.075 N
ATOM      6  H21 UNL     1      36.411  -1.884  11.867  1.00  0.00     0.277 HD
ATOM      7  H22 UNL     1      36.034  -1.747  10.386  1.00  0.00     0.277 HD
HETATM    8  C7  UNL     1      34.795  -3.081  11.372  1.00  0.00     0.234 C
HETATM    9  C8  UNL     1      34.156  -3.079  12.766  1.00  0.00     0.064 C
HETATM   10  C9  UNL     1      32.937  -2.207  12.666  1.00  0.00     0.232 C
ENDROOT
BRANCH   1  11
HETATM   11  C2  UNL     1      31.747  -1.207  14.552  1.00  0.00     0.215 C
HETATM   12  C1  UNL     1      30.902  -2.390  14.056  1.00  0.00     0.042 C
HETATM   13  C3  UNL     1      30.916   0.041  14.596  1.00  0.00     0.042 C
ENDBRANCH   1  11
TORSDOF 1
ENDMDL