MODEL 4
REMARK VINA RESULT: -5.209558784      3.066      5.013
REMARK  4 active torsions:
REMARK  status: ('A' for Active; 'I' for Inactive)
REMARK       I    between atoms: C3_3  and  N1_5
REMARK    1  A    between atoms: N1_5  and  C4_7
REMARK    2  A    between atoms: C5_8  and  C6_9
REMARK    3  A    between atoms: C7_11  and  N2_12
REMARK    4  A    between atoms: N2_12  and  O3_14
ROOT
HETATM    1  C1  UNL     1       1.906  21.463  29.147  1.00  0.00     0.022 C
HETATM    2  C2  UNL     1       1.643  20.453  29.741  1.00  0.00    -0.016 C
HETATM    3  C3  UNL     1       1.345  19.225  30.481  1.00  0.00     0.300 C
HETATM    4  O1  UNL     1       0.415  19.226  31.339  1.00  0.00    -0.258 OA
HETATM    5  N1  UNL     1       2.109  18.084  30.207  1.00  0.00    -0.311 N
ATOM      6  H1  UNL     1       3.092  18.148  30.471  1.00  0.00     0.170 HD
ENDROOT
BRANCH   5   7
HETATM    7  C4  UNL     1       1.768  16.995  29.685  1.00  0.00     0.121 C
HETATM    8  C5  UNL     1       1.561  15.922  30.557  1.00  0.00     0.080 C
HETATM    9  C7  UNL     1       0.686  14.876  30.391  1.00  0.00     0.144 C
HETATM   10  N3  UNL     1       0.379  14.227  29.230  1.00  0.00    -0.292 N
HETATM   11  C8  UNL     1       0.419  14.771  27.992  1.00  0.00     0.328 C
ATOM     12  H3  UNL     1       0.095  13.251  29.302  1.00  0.00     0.172 HD
HETATM   13  O4  UNL     1       0.018  14.013  27.071  1.00  0.00    -0.247 OA
HETATM   14  N4  UNL     1       0.830  16.019  27.607  1.00  0.00    -0.274 N
HETATM   15  C9  UNL     1       1.612  16.883  28.325  1.00  0.00     0.277 C
ATOM     16  H4  UNL     1       0.521  16.337  26.689  1.00  0.00     0.173 HD
HETATM   17  O5  UNL     1       2.283  17.684  27.632  1.00  0.00    -0.266 OA
BRANCH   8  18
HETATM   18  C6  UNL     1       2.374  15.913  31.729  1.00  0.00     0.276 C
HETATM   19  O2  UNL     1       3.652  15.906  31.634  1.00  0.00    -0.301 OA
ENDBRANCH   8  18
BRANCH   9  20
HETATM   20  N2  UNL     1      -0.014  14.407  31.515  1.00  0.00    -0.252 N
ATOM     21  H2  UNL     1       0.053  14.926  32.390  1.00  0.00     0.196 HD
BRANCH  20  22
HETATM   22  O3  UNL     1      -0.777  13.288  31.475  1.00  0.00    -0.288 OA
ATOM     23  H3  UNL     1      -0.603  12.536  32.030  1.00  0.00     0.244 HD
ENDBRANCH  20  22
ENDBRANCH   9  20
ENDBRANCH   5   7
TORSDOF 4
ENDMDL