MODEL 4
REMARK VINA RESULT: -5.660466599      4.395      6.289
REMARK  4 active torsions:
REMARK  status: ('A' for Active; 'I' for Inactive)
REMARK    1  A    between atoms: N1_1  and  N2_4
REMARK    2  A    between atoms: C2_12  and  C3_13
REMARK    3  A    between atoms: C4_14  and  S1_15
REMARK    4  A    between atoms: S1_15  and  N5_16
ROOT
HETATM    1  N2  UNL     1      -3.390   9.818  27.591  1.00  0.00    -0.137 N
ATOM      2  H2  UNL     1      -3.568   9.367  28.488  1.00  0.00     0.205 HD
HETATM    3  C1  UNL     1      -2.517  10.767  27.522  1.00  0.00     0.721 C
HETATM    4  N3  UNL     1      -2.273  11.393  26.266  1.00  0.00    -0.070 N
ATOM      5  H3  UNL     1      -2.819  11.021  25.488  1.00  0.00     0.215 HD
HETATM    6  O1  UNL     1      -1.411  12.429  25.934  1.00  0.00    -0.141 OA
HETATM    7  N4  UNL     1      -0.870  13.348  26.804  1.00  0.00    -0.236 N
ATOM      8  H4  UNL     1      -0.529  14.190  26.342  1.00  0.00     0.197 HD
HETATM    9  C2  UNL     1      -0.708  13.365  28.072  1.00  0.00     0.125 C
HETATM   10  C5  UNL     1      -1.091  12.316  29.015  1.00  0.00     0.288 C
HETATM   11  O4  UNL     1      -0.707  12.493  30.190  1.00  0.00    -0.265 OA
HETATM   12  N6  UNL     1      -1.852  11.122  28.729  1.00  0.00    -0.151 N
ATOM     13  H6  UNL     1      -1.922  10.446  29.490  1.00  0.00     0.188 HD
ENDROOT
BRANCH   9  14
HETATM   14  C3  UNL     1      -0.077  14.550  28.646  1.00  0.00     0.050 C
HETATM   15  C4  UNL     1       0.988  15.071  28.059  1.00  0.00     0.133 C
BRANCH  15  16
HETATM   16  S1  UNL     1       1.722  16.494  28.774  1.00  0.00     0.246 S
HETATM   17  O2  UNL     1       2.100  17.494  27.694  1.00  0.00    -0.202 OA
HETATM   18  O3  UNL     1       2.968  16.110  29.535  1.00  0.00    -0.202 OA
BRANCH  16  19
HETATM   19  N5  UNL     1       0.598  17.286  29.819  1.00  0.00    -0.325 N
ATOM     20  H52 UNL     1       0.178  16.852  30.641  1.00  0.00     0.169 HD
ATOM     21  H51 UNL     1       0.422  18.236  29.493  1.00  0.00     0.169 HD
ENDBRANCH  16  19
ENDBRANCH  15  16
ENDBRANCH   9  14
BRANCH   1  22
HETATM   22  N1  UNL     1      -4.089   9.402  26.475  1.00  0.00    -0.331 N
ATOM     23  H12 UNL     1      -4.112  10.017  25.662  1.00  0.00     0.177 HD
ATOM     24  H11 UNL     1      -4.572   8.504  26.456  1.00  0.00     0.177 HD
ENDBRANCH   1  22
TORSDOF 4
ENDMDL