MODEL 2
REMARK VINA RESULT: -5.540011930      2.326      3.620
REMARK  3 active torsions:
REMARK  status: ('A' for Active; 'I' for Inactive)
REMARK    1  A    between atoms: S1_2  and  N1_5
REMARK       I    between atoms: N1_5  and  C2_7
REMARK    2  A    between atoms: C2_7  and  C3_9
REMARK    3  A    between atoms: C4_10  and  O4_11
ROOT
HETATM    1  C3  UNL     1      -0.473  14.093  29.332  1.00  0.00     0.151 A
HETATM    2  C4  UNL     1      -0.770  13.292  28.215  1.00  0.00     0.165 A
HETATM    3  N2  UNL     1      -1.339  12.101  28.449  1.00  0.00    -0.288 N
ATOM      4  H2  UNL     1      -1.561  11.507  27.650  1.00  0.00     0.172 HD
HETATM    5  C5  UNL     1      -1.634  11.648  29.682  1.00  0.00     0.329 A
HETATM    6  O5  UNL     1      -2.177  10.498  29.823  1.00  0.00    -0.247 OA
HETATM    7  N3  UNL     1      -1.366  12.383  30.772  1.00  0.00    -0.274 N
ATOM      8  H3  UNL     1      -1.586  12.048  31.709  1.00  0.00     0.173 HD
HETATM    9  C6  UNL     1      -0.788  13.597  30.566  1.00  0.00     0.269 A
HETATM   10  O6  UNL     1      -0.542  14.276  31.591  1.00  0.00    -0.267 OA
ENDROOT
BRANCH   1  11
HETATM   11  C2  UNL     1       0.141  15.382  29.124  1.00  0.00     0.274 C
HETATM   12  N1  UNL     1       1.370  15.863  29.586  1.00  0.00    -0.250 N
ATOM     13  H1  UNL     1       1.971  15.272  30.160  1.00  0.00     0.181 HD
HETATM   14  O3  UNL     1      -0.573  16.192  28.401  1.00  0.00    -0.266 OA
BRANCH  12  15
HETATM   15  S1  UNL     1       1.859  17.468  29.177  1.00  0.00     0.229 S
HETATM   16  C1  UNL     1       3.377  17.857  30.002  1.00  0.00     0.186 C
HETATM   17  O1  UNL     1       0.803  18.467  29.574  1.00  0.00    -0.206 OA
HETATM   18  O2  UNL     1       2.096  17.611  27.705  1.00  0.00    -0.206 OA
ENDBRANCH  12  15
ENDBRANCH   1  11
BRANCH   2  19
HETATM   19  O4  UNL     1      -0.488  13.710  26.919  1.00  0.00    -0.345 OA
ATOM     20  H4  UNL     1      -0.945  13.351  26.168  1.00  0.00     0.219 HD
ENDBRANCH   2  19
TORSDOF 3
ENDMDL