MODEL 2
REMARK VINA RESULT: -5.570148587      1.245      2.485
REMARK  3 active torsions:
REMARK  status: ('A' for Active; 'I' for Inactive)
REMARK    1  A    between atoms: C3_8  and  S1_9
REMARK    2  A    between atoms: S1_9  and  N4_10
REMARK    3  A    between atoms: C5_18  and  C6_19
ROOT
HETATM    1  C1  UNL     1      -2.253  11.157  27.068  1.00  0.00     0.071 C
HETATM    2  C2  UNL     1      -1.471  12.329  27.468  1.00  0.00     0.043 A
HETATM    3  N1  UNL     1      -1.044  13.276  26.614  1.00  0.00    -0.281 N
ATOM      4  H1  UNL     1      -1.220  13.275  25.609  1.00  0.00     0.189 HD
HETATM    5  N2  UNL     1      -0.371  14.201  27.252  1.00  0.00    -0.176 N
HETATM    6  N3  UNL     1       0.292  15.336  27.106  1.00  0.00    -0.251 N
ATOM      7  H3  UNL     1       0.435  15.824  26.221  1.00  0.00     0.191 HD
HETATM    8  C3  UNL     1       0.750  15.750  28.302  1.00  0.00     0.241 A
HETATM    9  N5  UNL     1       0.343  14.828  29.176  1.00  0.00    -0.313 N
ATOM     10  H5  UNL     1       0.532  14.854  30.178  1.00  0.00     0.170 HD
HETATM   11  C4  UNL     1      -0.350  13.866  28.554  1.00  0.00     0.165 A
HETATM   12  C5  UNL     1      -1.042  12.682  28.711  1.00  0.00     0.100 A
ENDROOT
BRANCH   8  13
HETATM   13  S1  UNL     1       1.676  17.159  28.704  1.00  0.00     0.290 S
HETATM   14  O1  UNL     1       2.196  17.875  27.502  1.00  0.00    -0.198 OA
HETATM   15  O2  UNL     1       0.886  18.096  29.533  1.00  0.00    -0.198 OA
BRANCH  13  16
HETATM   16  N4  UNL     1       3.024  16.625  29.679  1.00  0.00    -0.322 N
ATOM     17  H42 UNL     1       3.980  16.978  29.619  1.00  0.00     0.169 HD
ATOM     18  H41 UNL     1       2.671  15.905  30.309  1.00  0.00     0.169 HD
ENDBRANCH  13  16
ENDBRANCH   8  13
BRANCH  12  19
HETATM   19  C6  UNL     1      -1.248  11.989  29.958  1.00  0.00     0.270 C
HETATM   20  N6  UNL     1      -0.669  12.500  31.179  1.00  0.00    -0.057 NA
HETATM   21  O3  UNL     1      -1.913  10.940  30.080  1.00  0.00    -0.271 OA
ENDBRANCH  12  19
TORSDOF 3
ENDMDL