MODEL 3
REMARK VINA RESULT: -5.059497569      1.257      1.799
REMARK  5 active torsions:
REMARK  status: ('A' for Active; 'I' for Inactive)
REMARK       I    between atoms: C2_2  and  N1_4
REMARK    1  A    between atoms: N1_4  and  N2_6
REMARK    2  A    between atoms: N2_6  and  C3_8
REMARK    3  A    between atoms: C4_13  and  S1_14
REMARK    4  A    between atoms: S1_14  and  N5_15
REMARK    5  A    between atoms: N6_20  and  N7_21
ROOT
HETATM    1  C3  UNL     1      -0.870  13.736  28.187  1.00  0.00     0.734 A
HETATM    2  N3  UNL     1      -0.769  14.245  26.968  1.00  0.00    -0.127 N
ATOM      3  H3  UNL     1      -1.261  13.904  26.142  1.00  0.00     0.206 HD
HETATM    4  N4  UNL     1       0.072  15.264  26.994  1.00  0.00    -0.258 N
ATOM      5  H4  UNL     1       0.332  15.835  26.191  1.00  0.00     0.190 HD
HETATM    6  C4  UNL     1       0.531  15.428  28.251  1.00  0.00     0.276 A
HETATM    7  N6  UNL     1      -0.068  14.466  28.982  1.00  0.00    -0.059 N
ENDROOT
BRANCH   1   8
HETATM    8  N2  UNL     1      -1.595  12.721  28.597  1.00  0.00    -0.126 N
ATOM      9  H2  UNL     1      -2.386  12.860  29.225  1.00  0.00     0.206 HD
BRANCH   8  10
HETATM   10  N1  UNL     1      -1.250  11.442  28.148  1.00  0.00    -0.256 N
HETATM   11  C2  UNL     1      -2.096  10.771  27.222  1.00  0.00     0.232 C
HETATM   12  C1  UNL     1      -1.782   9.418  26.712  1.00  0.00     0.119 C
HETATM   13  O1  UNL     1      -3.140  11.317  26.809  1.00  0.00    -0.272 OA
ATOM     14  H1  UNL     1      -0.398  10.992  28.482  1.00  0.00     0.190 HD
ENDBRANCH   8  10
ENDBRANCH   1   8
BRANCH   7  15
HETATM   15  N7  UNL     1       0.134  14.279  30.351  1.00  0.00    -0.322 N
ATOM     16  H72 UNL     1       0.299  13.372  30.789  1.00  0.00     0.178 HD
ATOM     17  H71 UNL     1       0.142  15.006  31.067  1.00  0.00     0.178 HD
ENDBRANCH   7  15
BRANCH   6  18
HETATM   18  S1  UNL     1       1.676  16.652  28.806  1.00  0.00     0.292 S
HETATM   19  O2  UNL     1       2.846  15.957  29.384  1.00  0.00    -0.198 OA
HETATM   20  O3  UNL     1       2.146  17.466  27.636  1.00  0.00    -0.198 OA
BRANCH  18  21
HETATM   21  N5  UNL     1       0.970  17.706  29.947  1.00  0.00    -0.322 N
ATOM     22  H52 UNL     1      -0.029  17.722  30.151  1.00  0.00     0.169 HD
ATOM     23  H51 UNL     1       1.668  18.305  30.390  1.00  0.00     0.169 HD
ENDBRANCH  18  21
ENDBRANCH   6  18
TORSDOF 5
ENDMDL