MODEL 1
REMARK VINA RESULT: -5.776966799      0.000      0.000
REMARK  4 active torsions:
REMARK  status: ('A' for Active; 'I' for Inactive)
REMARK    1  A    between atoms: C1_2  and  N1_3
REMARK    2  A    between atoms: N1_3  and  N2_5
REMARK    3  A    between atoms: C4_13  and  C5_14
REMARK       I    between atoms: C5_14  and  N5_16
REMARK    4  A    between atoms: N5_16  and  C6_18
ROOT
HETATM    1  N2  UNL     1       0.163  14.556  27.622  1.00  0.00    -0.130 N
ATOM      2  H2  UNL     1      -0.331  14.740  26.749  1.00  0.00     0.205 HD
HETATM    3  C2  UNL     1      -0.330  13.690  28.470  1.00  0.00     0.699 A
HETATM    4  N3  UNL     1       0.281  13.410  29.637  1.00  0.00    -0.186 N
ATOM      5  H3  UNL     1       1.152  13.888  29.866  1.00  0.00     0.185 HD
HETATM    6  C3  UNL     1      -0.226  12.518  30.512  1.00  0.00     0.200 A
HETATM    7  N4  UNL     1      -1.377  11.918  30.160  1.00  0.00    -0.333 N
ATOM      8  H4  UNL     1      -1.792  11.237  30.796  1.00  0.00     0.168 HD
HETATM    9  C4  UNL     1      -2.008  12.188  28.986  1.00  0.00     0.191 A
HETATM   10  N10 UNL     1      -1.479  13.081  28.135  1.00  0.00    -0.170 N
ATOM     11  H10 UNL     1      -1.941  13.294  27.251  1.00  0.00     0.186 HD
ENDROOT
BRANCH   9  12
HETATM   12  C5  UNL     1      -3.250  11.517  28.643  1.00  0.00     0.304 C
HETATM   13  O2  UNL     1      -4.323  12.120  28.803  1.00  0.00    -0.263 OA
HETATM   14  N5  UNL     1      -3.193  10.207  28.143  1.00  0.00    -0.150 N
ATOM     15  H5  UNL     1      -3.583   9.470  28.730  1.00  0.00     0.188 HD
BRANCH  14  16
HETATM   16  C6  UNL     1      -2.701   9.856  27.028  1.00  0.00     0.716 A
HETATM   17  N6  UNL     1      -1.948   8.769  26.803  1.00  0.00    -0.115 N
HETATM   18  N7  UNL     1      -1.608   8.714  25.527  1.00  0.00    -0.213 N
ATOM     19  H6  UNL     1      -1.678   8.087  27.511  1.00  0.00     0.207 HD
HETATM   20  N8  UNL     1      -2.152   9.771  24.957  1.00  0.00    -0.213 N
ATOM     21  H7  UNL     1      -1.040   7.999  25.074  1.00  0.00     0.210 HD
HETATM   22  N9  UNL     1      -2.820  10.480  25.850  1.00  0.00    -0.115 N
ATOM     23  H8  UNL     1      -2.067  10.007  23.968  1.00  0.00     0.210 HD
ATOM     24  H9  UNL     1      -3.333  11.343  25.673  1.00  0.00     0.207 HD
ENDBRANCH  14  16
ENDBRANCH   9  12
BRANCH   1  25
HETATM   25  N1  UNL     1       1.346  15.228  27.895  1.00  0.00    -0.263 N
ATOM     26  H1  UNL     1       2.226  14.714  27.896  1.00  0.00     0.190 HD
BRANCH  25  27
HETATM   27  C1  UNL     1       1.350  16.610  28.169  1.00  0.00     0.369 C
HETATM   28  O1  UNL     1       2.266  17.369  27.743  1.00  0.00    -0.282 OA
ENDBRANCH  25  27
ENDBRANCH   1  25
TORSDOF 4
ENDMDL