MODEL 3
REMARK VINA RESULT: -4.847740899      1.879      2.779
REMARK  6 active torsions:
REMARK  status: ('A' for Active; 'I' for Inactive)
REMARK    1  A    between atoms: C2_3  and  N2_4
REMARK    2  A    between atoms: N2_4  and  N3_6
REMARK    3  A    between atoms: C3_13  and  N6_14
REMARK    4  A    between atoms: N6_14  and  C4_16
REMARK    5  A    between atoms: C4_16  and  C5_17
REMARK    6  A    between atoms: C5_17  and  N7_18
ROOT
HETATM    1  C1  UNL     1      -5.253  11.659  29.082  1.00  0.00     0.177 C
HETATM    2  N1  UNL     1      -4.321  10.689  28.618  1.00  0.00    -0.167 N
HETATM    3  C2  UNL     1      -2.957  10.699  29.074  1.00  0.00     0.714 C
HETATM    4  N4  UNL     1      -1.818  10.107  28.472  1.00  0.00    -0.129 N
ATOM      5  H4  UNL     1      -0.970  10.110  29.040  1.00  0.00     0.205 HD
HETATM    6  N5  UNL     1      -1.694   9.520  27.214  1.00  0.00    -0.269 N
ATOM      7  H5  UNL     1      -0.748   9.276  26.921  1.00  0.00     0.189 HD
HETATM    8  C3  UNL     1      -2.746   9.220  26.281  1.00  0.00     0.147 C
HETATM    9  C6  UNL     1      -4.165   9.102  26.635  1.00  0.00     0.124 A
HETATM   10  N8  UNL     1      -5.068   8.331  26.017  1.00  0.00    -0.346 N
ATOM     11  H8  UNL     1      -4.891   7.728  25.214  1.00  0.00     0.167 HD
HETATM   12  C7  UNL     1      -6.234   8.489  26.633  1.00  0.00     0.184 A
HETATM   13  N9  UNL     1      -6.129   9.366  27.669  1.00  0.00    -0.331 N
HETATM   14  C8  UNL     1      -7.133   9.802  28.588  1.00  0.00     0.158 C
HETATM   15  C9  UNL     1      -4.847   9.757  27.681  1.00  0.00     0.156 A
ENDROOT
BRANCH   8  16
HETATM   16  N6  UNL     1      -2.430   9.042  25.065  1.00  0.00    -0.372 N
ATOM     17  H6  UNL     1      -2.840   9.701  24.403  1.00  0.00     0.161 HD
BRANCH  16  18
HETATM   18  C4  UNL     1      -1.584   8.052  24.496  1.00  0.00     0.148 C
BRANCH  18  19
HETATM   19  C5  UNL     1      -2.322   7.258  23.426  1.00  0.00     0.249 C
BRANCH  19  20
HETATM   20  N7  UNL     1      -1.311   6.533  22.671  1.00  0.00    -0.078 N
ATOM     21  H73 UNL     1      -0.432   7.043  22.583  1.00  0.00     0.274 HD
ATOM     22  H72 UNL     1      -0.939   5.724  23.169  1.00  0.00     0.274 HD
ATOM     23  H71 UNL     1      -1.731   6.295  21.773  1.00  0.00     0.274 HD
ENDBRANCH  19  20
ENDBRANCH  18  19
ENDBRANCH  16  18
ENDBRANCH   8  16
BRANCH   3  24
HETATM   24  N2  UNL     1      -2.818  11.349  30.177  1.00  0.00    -0.137 N
ATOM     25  H2  UNL     1      -3.609  11.504  30.801  1.00  0.00     0.205 HD
BRANCH  24  26
HETATM   26  N3  UNL     1      -1.545  11.834  30.488  1.00  0.00    -0.331 N
ATOM     27  H32 UNL     1      -0.718  11.272  30.287  1.00  0.00     0.177 HD
ATOM     28  H31 UNL     1      -1.481  12.758  30.916  1.00  0.00     0.177 HD
ENDBRANCH  24  26
ENDBRANCH   3  24
TORSDOF 6
ENDMDL