MODEL 1
REMARK VINA RESULT: -6.361771089      0.000      0.000
REMARK  2 active torsions:
REMARK  status: ('A' for Active; 'I' for Inactive)
REMARK    1  A    between atoms: C2_2  and  C3_3
REMARK    2  A    between atoms: C2_2  and  N2_10
REMARK       I    between atoms: C3_3  and  N1_5
REMARK       I    between atoms: N1_5  and  C4_7
ROOT
HETATM    1  N2  UNL     1      -2.481  10.176  26.737  1.00  0.00    -0.235 N
HETATM    2  N3  UNL     1      -2.708   9.811  27.981  1.00  0.00    -0.245 N
ATOM      3  H3  UNL     1      -3.225   8.950  28.160  1.00  0.00     0.192 HD
HETATM    4  C5  UNL     1      -2.273  10.550  29.032  1.00  0.00     0.342 A
HETATM    5  O4  UNL     1      -2.518  10.155  30.217  1.00  0.00    -0.245 OA
HETATM    6  N4  UNL     1      -1.586  11.694  28.848  1.00  0.00    -0.270 N
ATOM      7  H4  UNL     1      -1.255  12.253  29.634  1.00  0.00     0.174 HD
HETATM    8  C6  UNL     1      -1.357  12.060  27.570  1.00  0.00     0.319 A
HETATM    9  O5  UNL     1      -0.721  13.118  27.305  1.00  0.00    -0.262 OA
HETATM   10  C7  UNL     1      -1.795  11.316  26.507  1.00  0.00     0.331 A
HETATM   11  O6  UNL     1      -1.607  11.616  25.304  1.00  0.00    -0.260 OA
ENDROOT
BRANCH   1  12
HETATM   12  C2  UNL     1      -2.962   9.360  25.675  1.00  0.00     0.200 C
HETATM   13  C1  UNL     1      -4.176   8.585  26.207  1.00  0.00     0.044 C
BRANCH  12  14
HETATM   14  C3  UNL     1      -2.017   8.401  25.134  1.00  0.00     0.251 C
HETATM   15  O1  UNL     1      -0.955   8.141  25.740  1.00  0.00    -0.271 OA
HETATM   16  N1  UNL     1      -2.282   7.743  23.910  1.00  0.00    -0.269 N
HETATM   17  C4  UNL     1      -1.386   6.793  23.333  1.00  0.00     0.290 C
ATOM     18  H1  UNL     1      -3.149   7.958  23.418  1.00  0.00     0.174 HD
HETATM   19  O2  UNL     1      -0.326   6.527  23.929  1.00  0.00    -0.629 OA
HETATM   20  O3  UNL     1      -1.652   6.154  22.134  1.00  0.00    -0.629 OA
ENDBRANCH  12  14
ENDBRANCH   1  12
TORSDOF 2
ENDMDL