MODEL 5
REMARK VINA RESULT: -5.849296328      5.846     10.191
REMARK  3 active torsions:
REMARK  status: ('A' for Active; 'I' for Inactive)
REMARK    1  A    between atoms: C4_6  and  O2_7
REMARK    2  A    between atoms: O2_7  and  C5_8
REMARK    3  A    between atoms: C7_17  and  N5_18
ROOT
HETATM    1  C5  UNL     1      -3.223   8.005  24.900  1.00  0.00     0.208 A
HETATM    2  N2  UNL     1      -1.910   8.110  24.564  1.00  0.00    -0.273 N
ATOM      3  H2  UNL     1      -1.310   8.721  25.119  1.00  0.00     0.189 HD
HETATM    4  N3  UNL     1      -1.382   7.454  23.551  1.00  0.00    -0.249 N
ATOM      5  H3  UNL     1      -0.393   7.557  23.325  1.00  0.00     0.192 HD
HETATM    6  C6  UNL     1      -2.167   6.650  22.821  1.00  0.00     0.340 A
HETATM    7  O3  UNL     1      -1.682   6.014  21.849  1.00  0.00    -0.245 OA
HETATM    8  N4  UNL     1      -3.477   6.505  23.107  1.00  0.00    -0.290 N
ATOM      9  H4  UNL     1      -4.057   5.887  22.538  1.00  0.00     0.172 HD
HETATM   10  C7  UNL     1      -4.015   7.167  24.131  1.00  0.00     0.156 A
ENDROOT
BRANCH   1  11
HETATM   11  O2  UNL     1      -3.747   8.707  25.968  1.00  0.00    -0.272 OA
BRANCH  11  12
HETATM   12  C4  UNL     1      -3.045   9.706  26.633  1.00  0.00     0.159 A
HETATM   13  C3  UNL     1      -2.872   9.698  28.004  1.00  0.00     0.131 A
HETATM   14  C2  UNL     1      -2.167  10.712  28.626  1.00  0.00     0.255 A
HETATM   15  N1  UNL     1      -1.634  11.723  27.921  1.00  0.00    -0.271 N
HETATM   16  O1  UNL     1      -1.999  10.717  29.890  1.00  0.00    -0.268 OA
HETATM   17  C1  UNL     1      -0.883  12.806  28.566  1.00  0.00     0.164 C
HETATM   18  C8  UNL     1      -1.814  11.711  26.588  1.00  0.00     0.330 A
HETATM   19  N6  UNL     1      -2.502  10.729  25.953  1.00  0.00    -0.288 N
HETATM   20  O4  UNL     1      -1.324  12.651  25.885  1.00  0.00    -0.246 OA
ATOM     21  H6  UNL     1      -2.609  10.769  24.940  1.00  0.00     0.172 HD
ENDBRANCH  11  12
ENDBRANCH   1  11
BRANCH  10  22
HETATM   22  N5  UNL     1      -5.276   7.070  24.462  1.00  0.00    -0.382 N
ATOM     23  H52 UNL     1      -5.716   7.665  25.163  1.00  0.00     0.157 HD
ATOM     24  H51 UNL     1      -5.829   6.358  23.983  1.00  0.00     0.157 HD
ENDBRANCH  10  22
TORSDOF 3
ENDMDL