MODEL 3
REMARK VINA RESULT: -5.938936219      1.694      3.410
REMARK  3 active torsions:
REMARK  status: ('A' for Active; 'I' for Inactive)
REMARK    1  A    between atoms: C3_6  and  C4_7
REMARK    2  A    between atoms: C5_12  and  C6_13
REMARK       I    between atoms: C6_13  and  N5_15
REMARK    3  A    between atoms: N5_15  and  N6_17
ROOT
HETATM    1  N1  UNL     1      -4.119  10.520  31.393  1.00  0.00    -0.188 NA
HETATM    2  C1  UNL     1      -3.569  10.856  30.433  1.00  0.00     0.137 C
HETATM    3  C2  UNL     1      -2.887  11.255  29.234  1.00  0.00     0.191 A
HETATM    4  N2  UNL     1      -2.704  10.401  28.201  1.00  0.00    -0.315 N
ATOM      5  H2  UNL     1      -3.057   9.446  28.269  1.00  0.00     0.170 HD
HETATM    6  C3  UNL     1      -2.062  10.795  27.086  1.00  0.00     0.175 A
HETATM    7  N4  UNL     1      -1.584  12.046  26.962  1.00  0.00    -0.320 N
ATOM      8  H4  UNL     1      -1.101  12.330  26.110  1.00  0.00     0.169 HD
HETATM    9  C5  UNL     1      -1.750  12.920  27.972  1.00  0.00     0.180 A
HETATM   10  N9  UNL     1      -2.396  12.491  29.070  1.00  0.00    -0.315 N
ATOM     11  H9  UNL     1      -2.521  13.155  29.835  1.00  0.00     0.170 HD
ENDROOT
BRANCH   6  12
HETATM   12  C4  UNL     1      -1.866   9.859  25.964  1.00  0.00     0.298 C
HETATM   13  N3  UNL     1      -1.748   8.452  26.198  1.00  0.00    -0.054 NA
HETATM   14  O1  UNL     1      -1.810  10.351  24.814  1.00  0.00    -0.268 OA
ENDBRANCH   6  12
BRANCH   9  15
HETATM   15  C6  UNL     1      -1.276  14.281  27.938  1.00  0.00     0.304 C
HETATM   16  O2  UNL     1      -2.064  15.204  28.222  1.00  0.00    -0.263 OA
HETATM   17  N5  UNL     1       0.051  14.572  27.589  1.00  0.00    -0.261 N
ATOM     18  H5  UNL     1       0.686  13.808  27.359  1.00  0.00     0.190 HD
BRANCH  17  19
HETATM   19  N6  UNL     1       0.520  15.885  27.553  1.00  0.00    -0.273 N
HETATM   20  C7  UNL     1       1.649  16.165  28.060  1.00  0.00     0.215 C
HETATM   21  N7  UNL     1       2.512  15.213  28.687  1.00  0.00    -0.065 NA
HETATM   22  N8  UNL     1       2.109  17.524  28.010  1.00  0.00    -0.065 NA
ATOM     23  H6  UNL     1      -0.043  16.618  27.119  1.00  0.00     0.189 HD
ENDBRANCH  17  19
ENDBRANCH   9  15
TORSDOF 3
ENDMDL