MODEL 2
REMARK VINA RESULT: -4.919219383      2.501      5.222
REMARK  3 active torsions:
REMARK  status: ('A' for Active; 'I' for Inactive)
REMARK    1  A    between atoms: C2_2  and  O1_3
REMARK    2  A    between atoms: C2_2  and  C3_5
REMARK    3  A    between atoms: C3_5  and  N1_6
REMARK       I    between atoms: N5_14  and  C7_15
ROOT
HETATM    1  N1  UNL     1      -0.078  12.736  29.773  1.00  0.00    -0.334 N
HETATM    2  C4  UNL     1      -0.239  12.414  28.395  1.00  0.00     0.192 C
HETATM    3  N2  UNL     1      -0.693  11.133  27.961  1.00  0.00    -0.063 NA
HETATM    4  N3  UNL     1       0.047  13.345  27.555  1.00  0.00    -0.331 N
ATOM      5  H3  UNL     1      -0.066  13.123  26.566  1.00  0.00     0.168 HD
HETATM    6  C5  UNL     1       0.505  14.651  27.869  1.00  0.00     0.157 C
HETATM    7  N4  UNL     1       0.526  15.006  29.253  1.00  0.00    -0.239 NA
HETATM    8  C6  UNL     1       1.703  15.855  29.470  1.00  0.00     0.226 C
HETATM    9  N5  UNL     1       2.608  15.107  30.289  1.00  0.00    -0.340 N
HETATM   10  C7  UNL     1       3.702  15.627  31.019  1.00  0.00     0.185 C
HETATM   11  N6  UNL     1       3.598  16.655  31.812  1.00  0.00    -0.374 N
ATOM     12  H61 UNL     1       4.387  17.030  32.339  1.00  0.00     0.158 HD
ATOM     13  H62 UNL     1       2.680  17.091  31.896  1.00  0.00     0.158 HD
HETATM   14  N7  UNL     1       4.978  15.023  30.904  1.00  0.00    -0.064 NA
HETATM   15  C8  UNL     1       2.152  13.711  30.203  1.00  0.00     0.168 C
HETATM   16  C9  UNL     1       0.647  13.893  30.155  1.00  0.00     0.187 C
ENDROOT
BRANCH   1  17
HETATM   17  C3  UNL     1      -0.678  11.849  30.742  1.00  0.00     0.158 C
BRANCH  17  18
HETATM   18  C2  UNL     1      -1.957  12.332  31.335  1.00  0.00     0.132 C
HETATM   19  C1  UNL     1      -3.048  11.352  30.872  1.00  0.00     0.041 C
BRANCH  18  20
HETATM   20  O1  UNL     1      -1.990  12.316  32.719  1.00  0.00    -0.394 OA
ATOM     21  H1  UNL     1      -1.951  13.225  32.993  1.00  0.00     0.210 HD
ENDBRANCH  18  20
ENDBRANCH  17  18
ENDBRANCH   1  17
TORSDOF 3
ENDMDL