MODEL 2
REMARK VINA RESULT: -5.744197811      1.257      1.566
REMARK  5 active torsions:
REMARK  status: ('A' for Active; 'I' for Inactive)
REMARK    1  A    between atoms: C2_9  and  S1_10
REMARK    2  A    between atoms: S1_10  and  N5_11
REMARK    3  A    between atoms: S1_10  and  N6_15
REMARK    4  A    between atoms: N6_15  and  C3_17
REMARK    5  A    between atoms: C4_23  and  N9_24
ROOT
HETATM    1  S1  UNL     1       1.880  16.378  28.843  1.00  0.00     0.174 S
HETATM    2  O1  UNL     1       2.284  16.176  27.986  1.00  0.00    -0.220 OA
ENDROOT
BRANCH   1   3
HETATM    3  C2  UNL     1       2.892  15.482  30.413  1.00  0.00     0.235 A
HETATM    4  N1  UNL     1       3.459  16.125  31.400  1.00  0.00    -0.255 N
HETATM    5  C1  UNL     1       3.492  17.549  31.726  1.00  0.00     0.182 C
HETATM    6  N2  UNL     1       4.105  15.233  32.180  1.00  0.00    -0.224 N
HETATM    7  N3  UNL     1       3.926  14.035  31.659  1.00  0.00    -0.226 N
ATOM      8  H2  UNL     1       4.637  15.447  33.024  1.00  0.00     0.210 HD
HETATM    9  N4  UNL     1       3.164  14.205  30.554  1.00  0.00    -0.259 N
ATOM     10  H3  UNL     1       4.292  13.153  32.018  1.00  0.00     0.210 HD
ATOM     11  H4  UNL     1       2.852  13.461  29.931  1.00  0.00     0.191 HD
ENDBRANCH   1   3
BRANCH   1  12
HETATM   12  N5  UNL     1       1.850  18.311  29.243  1.00  0.00    -0.338 N
ATOM     13  H52 UNL     1       1.028  18.914  29.241  1.00  0.00     0.167 HD
ATOM     14  H51 UNL     1       2.815  18.571  29.449  1.00  0.00     0.167 HD
ENDBRANCH   1  12
BRANCH   1  15
HETATM   15  N6  UNL     1       0.090  15.557  28.836  1.00  0.00    -0.276 N
ATOM     16  H6  UNL     1      -0.727  16.071  29.167  1.00  0.00     0.179 HD
BRANCH  15  17
HETATM   17  C3  UNL     1      -0.010  14.382  28.413  1.00  0.00     0.182 A
HETATM   18  N7  UNL     1       0.039  13.876  27.182  1.00  0.00    -0.221 N
HETATM   19  O2  UNL     1      -0.114  12.592  27.217  1.00  0.00    -0.153 OA
ATOM     20  H7  UNL     1       0.178  14.423  26.332  1.00  0.00     0.198 HD
HETATM   21  N8  UNL     1      -0.268  12.208  28.452  1.00  0.00    -0.222 N
HETATM   22  C4  UNL     1      -0.214  13.277  29.251  1.00  0.00     0.168 A
ATOM     23  H8  UNL     1      -0.407  11.246  28.759  1.00  0.00     0.198 HD
BRANCH  22  24
HETATM   24  N9  UNL     1      -0.328  13.261  30.534  1.00  0.00    -0.381 N
ATOM     25  H92 UNL     1       0.060  13.955  31.174  1.00  0.00     0.157 HD
ATOM     26  H91 UNL     1      -0.811  12.576  31.115  1.00  0.00     0.157 HD
ENDBRANCH  22  24
ENDBRANCH  15  17
ENDBRANCH   1  15
TORSDOF 5
ENDMDL