MODEL 3
REMARK VINA RESULT: -4.788280799      2.194      6.425
REMARK  4 active torsions:
REMARK  status: ('A' for Active; 'I' for Inactive)
REMARK    1  A    between atoms: O1_2  and  N1_3
REMARK    2  A    between atoms: N1_3  and  C2_5
REMARK    3  A    between atoms: C3_10  and  N4_11
REMARK    4  A    between atoms: C8_19  and  N6_20
ROOT
HETATM    1  C2  UNL     1      -0.323  11.669  28.742  1.00  0.00     0.185 A
HETATM    2  N2  UNL     1       0.031  12.715  27.941  1.00  0.00    -0.267 N
ATOM      3  H2  UNL     1      -0.331  12.784  26.990  1.00  0.00     0.189 HD
HETATM    4  N3  UNL     1       0.849  13.637  28.414  1.00  0.00    -0.130 N
ATOM      5  H3  UNL     1       1.102  14.411  27.799  1.00  0.00     0.205 HD
HETATM    6  C3  UNL     1       1.372  13.619  29.659  1.00  0.00     0.696 A
HETATM    7  N5  UNL     1       1.014  12.581  30.438  1.00  0.00    -0.172 N
ATOM      8  H5  UNL     1       1.388  12.529  31.386  1.00  0.00     0.186 HD
HETATM    9  C8  UNL     1       0.184  11.607  30.018  1.00  0.00     0.162 A
ENDROOT
BRANCH   6  10
HETATM   10  N4  UNL     1       2.258  14.647  30.120  1.00  0.00    -0.212 N
HETATM   11  C4  UNL     1       3.328  14.264  30.998  1.00  0.00     0.167 C
HETATM   12  C5  UNL     1       4.350  15.374  30.995  1.00  0.00     0.188 C
HETATM   13  O2  UNL     1       3.768  16.607  31.215  1.00  0.00    -0.388 OA
HETATM   14  C6  UNL     1       2.894  17.019  30.258  1.00  0.00     0.188 C
HETATM   15  C7  UNL     1       2.012  15.987  29.673  1.00  0.00     0.167 C
ENDBRANCH   6  10
BRANCH   9  16
HETATM   16  N6  UNL     1      -0.164  10.612  30.756  1.00  0.00    -0.382 N
ATOM     17  H62 UNL     1      -1.073  10.155  30.684  1.00  0.00     0.157 HD
ATOM     18  H61 UNL     1       0.508  10.269  31.442  1.00  0.00     0.157 HD
ENDBRANCH   9  16
BRANCH   1  19
HETATM   19  N1  UNL     1      -1.110  10.739  28.360  1.00  0.00    -0.247 N
ATOM     20  H1  UNL     1      -1.582  10.197  29.084  1.00  0.00     0.196 HD
BRANCH  19  21
HETATM   21  O1  UNL     1      -1.367  10.411  27.066  1.00  0.00    -0.284 OA
HETATM   22  C1  UNL     1      -2.014   9.187  26.804  1.00  0.00     0.237 C
ENDBRANCH  19  21
ENDBRANCH   1  19
TORSDOF 4
ENDMDL