MODEL 3
REMARK VINA RESULT: -4.834652779      1.903      2.982
REMARK  4 active torsions:
REMARK  status: ('A' for Active; 'I' for Inactive)
REMARK       I    between atoms: N3_8  and  C5_9
REMARK       I    between atoms: C5_9  and  N4_11
REMARK    1  A    between atoms: N4_11  and  C6_12
REMARK    2  A    between atoms: N4_11  and  N5_14
REMARK    3  A    between atoms: N5_14  and  O3_15
REMARK    4  A    between atoms: C8_18  and  O4_19
ROOT
HETATM    1  C1  UNL     1       2.265  16.152  28.396  1.00  0.00     0.068 C
HETATM    2  C2  UNL     1       1.716  15.539  29.629  1.00  0.00     0.047 C
HETATM    3  N1  UNL     1       2.330  15.168  30.664  1.00  0.00    -0.368 N
ATOM      4  H1  UNL     1       3.340  15.252  30.780  1.00  0.00     0.161 HD
HETATM    5  C3  UNL     1       1.463  14.617  31.660  1.00  0.00     0.402 C
HETATM    6  N2  UNL     1       0.157  15.124  31.328  1.00  0.00     0.165 N
HETATM    7  C4  UNL     1      -0.895  14.162  31.557  1.00  0.00     0.408 C
HETATM    8  N3  UNL     1      -0.847  13.261  30.392  1.00  0.00    -0.301 N
HETATM    9  C5  UNL     1      -1.443  11.965  30.420  1.00  0.00     0.346 C
HETATM   10  O1  UNL     1      -2.045  11.553  31.473  1.00  0.00    -0.245 OA
HETATM   11  N4  UNL     1      -1.413  11.068  29.321  1.00  0.00    -0.158 N
HETATM   12  C7  UNL     1      -0.145  13.912  29.340  1.00  0.00     0.208 C
HETATM   13  C8  UNL     1       0.269  15.244  29.884  1.00  0.00     0.318 C
ENDROOT
BRANCH  11  14
HETATM   14  C6  UNL     1      -2.024   9.799  29.408  1.00  0.00     0.379 C
HETATM   15  O2  UNL     1      -3.194   9.570  29.032  1.00  0.00    -0.282 OA
ENDBRANCH  11  14
BRANCH  11  16
HETATM   16  N5  UNL     1      -0.759  11.478  28.147  1.00  0.00     0.032 NA
BRANCH  16  17
HETATM   17  O3  UNL     1      -1.180  10.738  27.102  1.00  0.00    -0.276 OA
ATOM     18  H3  UNL     1      -1.652  11.286  26.485  1.00  0.00     0.240 HD
ENDBRANCH  16  17
ENDBRANCH  11  16
BRANCH  13  19
HETATM   19  O4  UNL     1      -0.523  16.297  29.486  1.00  0.00    -0.357 OA
ATOM     20  H4  UNL     1      -1.402  16.209  29.835  1.00  0.00     0.213 HD
ENDBRANCH  13  19
TORSDOF 4
ENDMDL