MODEL 3
REMARK VINA RESULT: -4.777319341      3.750      6.648
REMARK  6 active torsions:
REMARK  status: ('A' for Active; 'I' for Inactive)
REMARK    1  A    between atoms: C2_2  and  O1_3
REMARK    2  A    between atoms: C2_2  and  C3_5
REMARK    3  A    between atoms: C2_2  and  N1_8
REMARK    4  A    between atoms: C3_5  and  O2_6
REMARK    5  A    between atoms: N1_8  and  N2_9
REMARK    6  A    between atoms: N1_8  and  C4_12
ROOT
HETATM    1  C4  UNL     1       0.913  16.944  29.803  1.00  0.00     0.163 C
HETATM    2  N3  UNL     1       1.680  17.832  29.372  1.00  0.00    -0.314 N
ATOM      3  H3  UNL     1       2.179  17.684  28.494  1.00  0.00     0.166 HD
HETATM    4  C5  UNL     1       1.862  19.029  30.080  1.00  0.00     0.316 C
HETATM    5  C6  UNL     1       0.644  19.361  30.921  1.00  0.00     0.175 C
HETATM    6  S1  UNL     1       0.226  17.610  31.347  1.00  0.00    -0.086 SA
HETATM    7  N4  UNL     1       2.059  20.157  29.200  1.00  0.00    -0.021 N
ATOM      8  H41 UNL     1       1.239  20.452  28.670  1.00  0.00     0.283 HD
ATOM      9  H42 UNL     1       2.634  19.979  28.377  1.00  0.00     0.283 HD
HETATM   10  C7  UNL     1       2.594  21.150  30.146  1.00  0.00     0.264 C
HETATM   11  C8  UNL     1       3.493  20.268  30.989  1.00  0.00     0.200 C
HETATM   12  O3  UNL     1       2.994  18.990  30.910  1.00  0.00    -0.336 OA
ENDROOT
BRANCH   1  13
HETATM   13  N1  UNL     1       0.540  15.664  29.316  1.00  0.00    -0.240 N
BRANCH  13  14
HETATM   14  C2  UNL     1       1.331  14.883  28.416  1.00  0.00     0.171 C
HETATM   15  C1  UNL     1       1.979  13.777  29.263  1.00  0.00     0.075 C
BRANCH  14  16
HETATM   16  O1  UNL     1       2.312  15.626  27.764  1.00  0.00    -0.367 OA
ATOM     17  H1  UNL     1       1.933  16.412  27.388  1.00  0.00     0.212 HD
ENDBRANCH  14  16
BRANCH  14  18
HETATM   18  C3  UNL     1       0.449  14.172  27.420  1.00  0.00     0.226 C
BRANCH  18  19
HETATM   19  O2  UNL     1       0.287  12.833  27.705  1.00  0.00    -0.396 OA
ATOM     20  H2  UNL     1      -0.467  12.659  28.256  1.00  0.00     0.209 HD
ENDBRANCH  18  19
ENDBRANCH  14  18
ENDBRANCH  13  14
BRANCH  13  21
HETATM   21  N2  UNL     1      -0.681  15.140  29.748  1.00  0.00    -0.338 N
ATOM     22  H22 UNL     1      -1.529  15.639  29.480  1.00  0.00     0.177 HD
ATOM     23  H21 UNL     1      -0.668  14.287  30.307  1.00  0.00     0.177 HD
ENDBRANCH  13  21
ENDBRANCH   1  13
TORSDOF 6
ENDMDL