MODEL 4
REMARK VINA RESULT: -4.926118976      3.170      6.461
REMARK  4 active torsions:
REMARK  status: ('A' for Active; 'I' for Inactive)
REMARK    1  A    between atoms: N3_4  and  N4_6
REMARK    2  A    between atoms: C2_8  and  N5_9
REMARK    3  A    between atoms: N5_9  and  C3_11
REMARK    4  A    between atoms: N7_19  and  O3_20
ROOT
HETATM    1  C3  UNL     1       2.244  14.781  29.686  1.00  0.00     0.714 C
HETATM    2  N6  UNL     1       2.476  14.570  30.935  1.00  0.00    -0.115 N
ATOM      3  H6  UNL     1       2.509  13.617  31.300  1.00  0.00     0.197 HD
HETATM    4  S1  UNL     1       2.731  15.913  31.987  1.00  0.00     0.245 S
HETATM    5  O1  UNL     1       1.386  16.398  32.501  1.00  0.00    -0.205 OA
HETATM    6  O2  UNL     1       3.676  15.623  33.089  1.00  0.00    -0.205 OA
HETATM    7  C4  UNL     1       3.335  17.230  30.921  1.00  0.00     0.186 C
HETATM    8  C5  UNL     1       2.290  17.322  29.814  1.00  0.00     0.192 C
HETATM    9  N7  UNL     1       2.184  16.071  29.116  1.00  0.00    -0.089 N
ENDROOT
BRANCH   1  10
HETATM   10  N5  UNL     1       2.039  13.610  28.862  1.00  0.00    -0.184 N
ATOM     11  H5  UNL     1       2.448  13.569  27.929  1.00  0.00     0.185 HD
BRANCH  10  12
HETATM   12  C2  UNL     1       1.275  12.522  29.343  1.00  0.00     0.214 C
HETATM   13  N4  UNL     1       0.015  12.392  29.152  1.00  0.00    -0.294 N
ATOM     14  H4  UNL     1      -0.477  13.110  28.622  1.00  0.00     0.187 HD
BRANCH  13  15
HETATM   15  N3  UNL     1      -0.708  11.306  29.639  1.00  0.00    -0.275 N
HETATM   16  C1  UNL     1      -1.282  10.512  28.822  1.00  0.00     0.215 C
HETATM   17  N1  UNL     1      -2.024   9.398  29.284  1.00  0.00    -0.065 NA
HETATM   18  N2  UNL     1      -1.178  10.739  27.434  1.00  0.00    -0.065 NA
ATOM     19  H3  UNL     1      -0.779  11.147  30.644  1.00  0.00     0.189 HD
ENDBRANCH  13  15
ENDBRANCH  10  12
ENDBRANCH   1  10
BRANCH   9  20
HETATM   20  O3  UNL     1       2.005  16.162  27.757  1.00  0.00    -0.274 OA
ATOM     21  H3  UNL     1       1.437  15.523  27.342  1.00  0.00     0.245 HD
ENDBRANCH   9  20
TORSDOF 4
ENDMDL