MODEL 4
REMARK VINA RESULT: -4.870814673      1.944      4.731
REMARK  4 active torsions:
REMARK  status: ('A' for Active; 'I' for Inactive)
REMARK    1  A    between atoms: N1_1  and  C1_4
REMARK    2  A    between atoms: C2_9  and  S1_10
REMARK    3  A    between atoms: S1_10  and  N4_13
REMARK       I    between atoms: C3_15  and  N6_17
REMARK    4  A    between atoms: N6_17  and  O3_19
ROOT
HETATM    1  C1  UNL     1       1.836  15.563  28.472  1.00  0.00     0.691 A
HETATM    2  N2  UNL     1       2.459  14.408  28.762  1.00  0.00    -0.131 N
ATOM      3  H2  UNL     1       3.474  14.399  28.855  1.00  0.00     0.205 HD
HETATM    4  N3  UNL     1       1.790  13.296  28.927  1.00  0.00    -0.272 N
ATOM      5  H3  UNL     1       2.308  12.444  29.146  1.00  0.00     0.188 HD
HETATM    6  C2  UNL     1       0.433  13.223  28.819  1.00  0.00     0.206 A
HETATM    7  C4  UNL     1      -0.227  14.399  28.522  1.00  0.00     0.173 A
HETATM    8  N7  UNL     1      -1.642  14.382  28.397  1.00  0.00    -0.079 NA
HETATM    9  N8  UNL     1       0.501  15.528  28.358  1.00  0.00    -0.175 N
ATOM     10  H8  UNL     1       0.009  16.394  28.137  1.00  0.00     0.185 HD
ENDROOT
BRANCH   6  11
HETATM   11  S1  UNL     1      -0.415  11.734  29.044  1.00  0.00     0.285 S
HETATM   12  O1  UNL     1      -0.869  11.140  27.728  1.00  0.00    -0.198 OA
HETATM   13  O2  UNL     1       0.451  10.671  29.696  1.00  0.00    -0.198 OA
BRANCH  11  14
HETATM   14  N4  UNL     1      -1.815  11.976  30.005  1.00  0.00    -0.251 N
HETATM   15  C3  UNL     1      -1.739  12.211  31.288  1.00  0.00     0.222 C
HETATM   16  N5  UNL     1      -0.449  12.263  31.875  1.00  0.00    -0.061 NA
HETATM   17  N6  UNL     1      -2.936  12.405  32.031  1.00  0.00    -0.240 N
ATOM     18  H6  UNL     1      -3.119  13.276  32.530  1.00  0.00     0.197 HD
ATOM     19  H4  UNL     1      -2.733  11.935  29.562  1.00  0.00     0.181 HD
BRANCH  17  20
HETATM   20  O3  UNL     1      -3.764  11.448  32.047  1.00  0.00    -0.287 OA
ATOM     21  H3  UNL     1      -3.435  10.588  31.816  1.00  0.00     0.244 HD
ENDBRANCH  17  20
ENDBRANCH  11  14
ENDBRANCH   6  11
BRANCH   1  22
HETATM   22  N1  UNL     1       2.532  16.647  28.314  1.00  0.00    -0.233 N
ATOM     23  H12 UNL     1       3.440  16.793  28.754  1.00  0.00     0.174 HD
ATOM     24  H11 UNL     1       2.169  17.399  27.728  1.00  0.00     0.174 HD
ENDBRANCH   1  22
TORSDOF 4
ENDMDL