MODEL 4
REMARK VINA RESULT: -4.610324073      2.972      5.044
REMARK  5 active torsions:
REMARK  status: ('A' for Active; 'I' for Inactive)
REMARK    1  A    between atoms: O1_2  and  C2_3
REMARK    2  A    between atoms: C5_10  and  N3_11
REMARK    3  A    between atoms: C5_10  and  N4_15
REMARK    4  A    between atoms: N4_15  and  C7_18
REMARK    5  A    between atoms: C8_21  and  O2_22
ROOT
HETATM    1  C2  UNL     1       1.846  17.470  29.928  1.00  0.00     0.200 C
HETATM    2  C3  UNL     1       0.878  17.198  31.068  1.00  0.00     0.328 C
HETATM    3  C4  UNL     1      -0.413  17.808  30.777  1.00  0.00     0.095 C
HETATM    4  N1  UNL     1      -1.438  18.304  30.552  1.00  0.00    -0.195 NA
HETATM    5  N2  UNL     1       0.825  15.759  31.101  1.00  0.00     0.001 N
ATOM      6  H21 UNL     1       0.068  15.399  31.683  1.00  0.00     0.284 HD
ATOM      7  H22 UNL     1       1.598  15.341  31.619  1.00  0.00     0.284 HD
HETATM    8  C5  UNL     1       0.750  15.305  29.717  1.00  0.00     0.405 C
HETATM    9  C8  UNL     1       1.485  16.389  28.956  1.00  0.00     0.237 C
ENDROOT
BRANCH   1  10
HETATM   10  O1  UNL     1       3.160  17.389  30.295  1.00  0.00    -0.385 OA
HETATM   11  C1  UNL     1       3.466  18.123  31.437  1.00  0.00     0.202 C
ENDBRANCH   1  10
BRANCH   9  12
HETATM   12  O2  UNL     1       2.627  15.839  28.405  1.00  0.00    -0.387 OA
ATOM     13  H2  UNL     1       2.664  14.907  28.587  1.00  0.00     0.210 HD
ENDBRANCH   9  12
BRANCH   8  14
HETATM   14  N3  UNL     1      -0.573  15.247  29.291  1.00  0.00    -0.022 N
ATOM     15  H33 UNL     1      -1.215  15.100  30.070  1.00  0.00     0.279 HD
ATOM     16  H32 UNL     1      -0.911  16.159  28.983  1.00  0.00     0.279 HD
ATOM     17  H31 UNL     1      -0.687  14.536  28.568  1.00  0.00     0.279 HD
ENDBRANCH   8  14
BRANCH   8  18
HETATM   18  N4  UNL     1       1.395  14.025  29.611  1.00  0.00    -0.201 N
HETATM   19  C6  UNL     1       2.631  13.905  30.262  1.00  0.00     0.190 C
HETATM   20  N5  UNL     1       3.668  13.787  30.801  1.00  0.00    -0.171 NA
BRANCH  18  21
HETATM   21  C7  UNL     1       0.869  12.930  28.909  1.00  0.00     0.200 C
HETATM   22  N6  UNL     1       0.607  13.102  27.509  1.00  0.00    -0.069 NA
HETATM   23  S1  UNL     1       0.518  11.466  29.542  1.00  0.00    -0.043 SA
ENDBRANCH  18  21
ENDBRANCH   8  18
TORSDOF 5
ENDMDL