MODEL 3
REMARK VINA RESULT: -4.915555301      2.272      3.521
REMARK  5 active torsions:
REMARK  status: ('A' for Active; 'I' for Inactive)
REMARK    1  A    between atoms: N1_2  and  C2_4
REMARK    2  A    between atoms: C5_13  and  N5_14
REMARK    3  A    between atoms: N5_14  and  N6_16
REMARK       I    between atoms: N6_16  and  C6_18
REMARK    4  A    between atoms: C6_18  and  C7_20
REMARK    5  A    between atoms: C7_20  and  N7_21
ROOT
HETATM    1  C2  UNL     1       1.890  18.263  29.870  1.00  0.00     0.708 A
HETATM    2  N2  UNL     1       2.973  17.947  30.604  1.00  0.00    -0.019 N
ATOM      3  H2  UNL     1       3.592  18.623  31.053  1.00  0.00     0.203 HD
HETATM    4  C3  UNL     1       3.118  16.622  30.658  1.00  0.00     0.734 A
HETATM    5  N3  UNL     1       4.062  15.892  31.284  1.00  0.00    -0.184 N
ATOM      6  H3  UNL     1       4.812  16.334  31.816  1.00  0.00     0.185 HD
HETATM    7  C4  UNL     1       3.973  14.552  31.176  1.00  0.00     0.215 A
HETATM    8  N4  UNL     1       2.984  13.969  30.476  1.00  0.00    -0.184 N
ATOM      9  H4  UNL     1       2.931  12.954  30.405  1.00  0.00     0.185 HD
HETATM   10  C5  UNL     1       2.068  14.743  29.872  1.00  0.00     0.734 A
HETATM   11  N8  UNL     1       2.113  16.080  29.949  1.00  0.00     0.106 N
HETATM   12  N9  UNL     1       1.385  17.081  29.482  1.00  0.00    -0.096 N
ATOM     13  H9  UNL     1       0.552  16.970  28.905  1.00  0.00     0.207 HD
ENDROOT
BRANCH  10  14
HETATM   14  N5  UNL     1       1.111  14.208  29.194  1.00  0.00    -0.127 N
ATOM     15  H5  UNL     1       0.804  14.651  28.328  1.00  0.00     0.205 HD
BRANCH  14  16
HETATM   16  N6  UNL     1       0.478  13.025  29.625  1.00  0.00    -0.254 N
HETATM   17  C6  UNL     1      -0.200  12.167  28.725  1.00  0.00     0.262 C
HETATM   18  O1  UNL     1      -0.276  12.410  27.495  1.00  0.00    -0.270 OA
ATOM     19  H6  UNL     1       0.510  12.778  30.614  1.00  0.00     0.190 HD
BRANCH  17  20
HETATM   20  C7  UNL     1      -0.843  10.941  29.238  1.00  0.00     0.333 C
BRANCH  20  21
HETATM   21  N7  UNL     1      -0.383  10.686  30.569  1.00  0.00    -0.071 N
ATOM     22  H73 UNL     1       0.180   9.837  30.628  1.00  0.00     0.274 HD
ATOM     23  H72 UNL     1       0.330  11.353  30.866  1.00  0.00     0.274 HD
ATOM     24  H71 UNL     1      -1.181  10.666  31.204  1.00  0.00     0.274 HD
ENDBRANCH  20  21
ENDBRANCH  17  20
ENDBRANCH  14  16
ENDBRANCH  10  14
BRANCH   1  25
HETATM   25  N1  UNL     1       1.435  19.451  29.597  1.00  0.00    -0.229 N
HETATM   26  C1  UNL     1       2.382  20.542  29.518  1.00  0.00     0.165 C
ATOM     27  H1  UNL     1       0.439  19.609  29.442  1.00  0.00     0.177 HD
ENDBRANCH   1  25
TORSDOF 5
ENDMDL