MODEL 3
REMARK VINA RESULT: -7.170023724      1.008      1.426
REMARK  8 active torsions:
REMARK  status: ('A' for Active; 'I' for Inactive)
REMARK    1  A    between atoms: C2_2  and  O1_4
REMARK    2  A    between atoms: O1_4  and  C4_5
REMARK    3  A    between atoms: C6_7  and  O2_8
REMARK    4  A    between atoms: C13_17  and  N1_18
REMARK    5  A    between atoms: N1_18  and  C14_20
REMARK    6  A    between atoms: C14_20  and  C15_21
REMARK    7  A    between atoms: C15_21  and  C18_24
REMARK    8  A    between atoms: C18_24  and  O4_25
ROOT
HETATM    1  C4  UNL     1      78.333   5.803  24.798  1.00  0.00     0.131 C
HETATM    2  C5  UNL     1      79.292   4.785  24.141  1.00  0.00     0.064 C
HETATM    3  C6  UNL     1      80.426   4.578  25.169  1.00  0.00     0.125 C
HETATM    4  C7  UNL     1      80.163   5.693  26.087  1.00  0.00     0.032 C
HETATM    5  C8  UNL     1      80.793   5.762  27.420  1.00  0.00     0.041 C
HETATM    6  C9  UNL     1      81.139   7.218  27.653  1.00  0.00     0.009 C
HETATM    7  C10 UNL     1      79.974   8.064  28.016  1.00  0.00     0.003 C
HETATM    8  C11 UNL     1      78.768   7.797  27.146  1.00  0.00     0.032 C
HETATM    9  C12 UNL     1      78.205   6.419  27.272  1.00  0.00     0.131 C
HETATM   10  O3  UNL     1      78.661   5.923  28.516  1.00  0.00    -0.361 OA
HETATM   11  C13 UNL     1      79.823   5.200  28.420  1.00  0.00     0.225 C
HETATM   12  C19 UNL     1      78.639   5.492  26.241  1.00  0.00     0.051 C
ENDROOT
BRANCH  11  13
HETATM   13  N1  UNL     1      80.276   4.804  29.675  1.00  0.00    -0.376 N
ATOM     14  H1  UNL     1      81.182   4.338  29.722  1.00  0.00     0.161 HD
BRANCH  13  15
HETATM   15  C14 UNL     1      79.595   4.992  30.865  1.00  0.00     0.069 C
BRANCH  15  16
HETATM   16  C15 UNL     1      80.560   5.174  32.034  1.00  0.00     0.005 C
HETATM   17  C16 UNL     1      80.759   3.804  32.665  1.00  0.00     0.023 C
HETATM   18  C17 UNL     1      79.866   6.054  33.035  1.00  0.00     0.023 C
BRANCH  16  19
HETATM   19  C18 UNL     1      81.884   5.730  31.616  1.00  0.00     0.178 C
BRANCH  19  20
HETATM   20  O4  UNL     1      81.767   7.015  31.150  1.00  0.00    -0.400 OA
ATOM     21  H4  UNL     1      82.542   7.286  30.673  1.00  0.00     0.209 HD
ENDBRANCH  19  20
ENDBRANCH  16  19
ENDBRANCH  15  16
ENDBRANCH  13  15
ENDBRANCH  11  13
BRANCH   3  22
HETATM   22  O2  UNL     1      80.273   3.344  25.769  1.00  0.00    -0.395 OA
ATOM     23  H2  UNL     1      80.562   3.400  26.673  1.00  0.00     0.210 HD
ENDBRANCH   3  22
BRANCH   1  24
HETATM   24  O1  UNL     1      77.032   5.608  24.447  1.00  0.00    -0.381 OA
BRANCH  24  25
HETATM   25  C2  UNL     1      76.701   6.093  23.191  1.00  0.00     0.113 C
HETATM   26  C1  UNL     1      75.503   5.366  22.622  1.00  0.00     0.039 C
HETATM   27  C3  UNL     1      76.455   7.556  23.131  1.00  0.00     0.039 C
ENDBRANCH  24  25
ENDBRANCH   1  24
TORSDOF 8
ENDMDL