MODEL 3
REMARK VINA RESULT: -6.824584976      3.928      8.096
REMARK  7 active torsions:
REMARK  status: ('A' for Active; 'I' for Inactive)
REMARK    1  A    between atoms: C2_2  and  C3_3
REMARK    2  A    between atoms: C6_11  and  O2_12
REMARK    3  A    between atoms: C7_14  and  C8_15
REMARK    4  A    between atoms: N3_16  and  C9_18
REMARK    5  A    between atoms: C9_18  and  C10_19
REMARK    6  A    between atoms: C10_19  and  C11_20
REMARK    7  A    between atoms: C11_20  and  N4_21
ROOT
HETATM    1  C3  UNL     1      82.270   6.854  27.540  1.00  0.00     0.175 C
HETATM    2  C4  UNL     1      80.925   7.043  26.986  1.00  0.00     0.246 C
HETATM    3  O1  UNL     1      80.893   7.381  25.775  1.00  0.00    -0.271 OA
HETATM    4  N1  UNL     1      79.617   6.917  27.554  1.00  0.00    -0.310 N
ATOM      5  H1  UNL     1      78.821   7.227  26.996  1.00  0.00     0.170 HD
HETATM    6  C5  UNL     1      79.358   6.387  28.849  1.00  0.00     0.122 A
HETATM    7  N2  UNL     1      78.163   5.989  29.283  1.00  0.00    -0.322 N
ATOM      8  H2  UNL     1      77.307   6.023  28.730  1.00  0.00     0.169 HD
HETATM    9  C6  UNL     1      78.237   5.529  30.566  1.00  0.00     0.154 A
HETATM   10  C7  UNL     1      79.548   5.639  30.973  1.00  0.00     0.045 A
HETATM   11  C16 UNL     1      80.243   6.170  29.913  1.00  0.00     0.039 A
HETATM   12  C17 UNL     1      81.691   6.477  29.858  1.00  0.00     0.102 C
HETATM   13  N5  UNL     1      82.359   6.061  28.703  1.00  0.00    -0.380 N
HETATM   14  C18 UNL     1      83.498   5.246  28.847  1.00  0.00     0.150 C
ENDROOT
BRANCH  10  15
HETATM   15  C8  UNL     1      80.111   5.273  32.265  1.00  0.00     0.099 C
HETATM   16  N3  UNL     1      80.799   4.186  32.366  1.00  0.00    -0.398 N
ATOM     17  H3  UNL     1      80.922   3.618  31.528  1.00  0.00     0.158 HD
BRANCH  16  18
HETATM   18  C9  UNL     1      81.399   3.727  33.580  1.00  0.00     0.120 C
BRANCH  18  19
HETATM   19  C10 UNL     1      81.558   4.854  34.573  1.00  0.00     0.050 C
BRANCH  19  20
HETATM   20  C11 UNL     1      82.843   4.690  35.352  1.00  0.00     0.274 C
BRANCH  20  21
HETATM   21  N4  UNL     1      83.895   4.112  34.554  1.00  0.00     0.088 N
HETATM   22  C12 UNL     1      84.849   5.159  34.240  1.00  0.00     0.272 C
HETATM   23  C13 UNL     1      85.623   5.361  35.536  1.00  0.00     0.032 C
HETATM   24  C14 UNL     1      85.467   4.100  36.324  1.00  0.00     0.032 C
HETATM   25  C15 UNL     1      84.709   3.208  35.344  1.00  0.00     0.272 C
ENDBRANCH  20  21
ENDBRANCH  19  20
ENDBRANCH  18  19
ENDBRANCH  16  18
ENDBRANCH  10  15
BRANCH   9  26
HETATM   26  O2  UNL     1      77.187   5.037  31.332  1.00  0.00    -0.345 OA
ATOM     27  H2  UNL     1      76.759   5.477  32.057  1.00  0.00     0.219 HD
ENDBRANCH   9  26
BRANCH   1  28
HETATM   28  C2  UNL     1      82.885   8.232  27.760  1.00  0.00     0.030 C
HETATM   29  C1  UNL     1      84.108   8.437  26.893  1.00  0.00     0.007 C
ENDBRANCH   1  28
TORSDOF 7
ENDMDL