MODEL 5
REMARK VINA RESULT: -6.634307939      2.328      7.773
REMARK  8 active torsions:
REMARK  status: ('A' for Active; 'I' for Inactive)
REMARK    1  A    between atoms: C4_4  and  C5_5
REMARK    2  A    between atoms: C4_4  and  C6_7
REMARK    3  A    between atoms: C6_7  and  C7_8
REMARK    4  A    between atoms: C7_8  and  C8_9
REMARK    5  A    between atoms: C8_9  and  O2_10
REMARK    6  A    between atoms: C8_9  and  C9_12
REMARK    7  A    between atoms: C10_13  and  C11_14
REMARK    8  A    between atoms: C19_26  and  O4_27
ROOT
HETATM    1  C6  UNL     1      81.051   6.216  34.673  1.00  0.00     0.019 C
ENDROOT
BRANCH   1   2
HETATM    2  C4  UNL     1      82.331   6.174  35.482  1.00  0.00     0.014 C
HETATM    3  C3  UNL     1      83.293   7.128  34.757  1.00  0.00     0.023 C
HETATM    4  C2  UNL     1      84.002   6.356  33.679  1.00  0.00     0.012 C
HETATM    5  C1  UNL     1      84.717   7.296  32.737  1.00  0.00     0.012 C
HETATM    6  C19 UNL     1      84.978   5.397  34.297  1.00  0.00     0.129 C
HETATM    7  C16 UNL     1      84.344   4.667  35.444  1.00  0.00    -0.020 C
HETATM    8  C15 UNL     1      82.852   4.762  35.477  1.00  0.00     0.028 C
HETATM    9  C17 UNL     1      84.684   3.181  35.255  1.00  0.00     0.017 C
HETATM   10  C18 UNL     1      84.981   5.061  36.768  1.00  0.00     0.017 C
BRANCH   6  11
HETATM   11  O4  UNL     1      86.163   6.052  34.685  1.00  0.00    -0.394 OA
ATOM     12  H4  UNL     1      86.879   5.436  34.792  1.00  0.00     0.210 HD
ENDBRANCH   6  11
BRANCH   2  13
HETATM   13  C5  UNL     1      82.126   6.583  36.880  1.00  0.00     0.240 C
HETATM   14  O1  UNL     1      81.636   5.862  37.746  1.00  0.00    -0.306 OA
ENDBRANCH   2  13
ENDBRANCH   1   2
BRANCH   1  15
HETATM   15  C7  UNL     1      80.914   5.021  33.765  1.00  0.00     0.037 C
BRANCH  15  16
HETATM   16  C8  UNL     1      80.178   5.430  32.488  1.00  0.00     0.140 C
BRANCH  16  17
HETATM   17  O2  UNL     1      79.324   6.513  32.823  1.00  0.00    -0.392 OA
ATOM     18  H2  UNL     1      79.499   7.212  32.204  1.00  0.00     0.210 HD
ENDBRANCH  16  17
BRANCH  16  19
HETATM   19  C9  UNL     1      81.101   5.955  31.472  1.00  0.00     0.002 C
HETATM   20  C10 UNL     1      80.829   5.820  30.187  1.00  0.00     0.006 C
BRANCH  20  21
HETATM   21  C11 UNL     1      79.589   5.141  29.745  1.00  0.00     0.232 C
HETATM   22  C12 UNL     1      79.791   4.702  28.304  1.00  0.00     0.204 C
HETATM   23  O3  UNL     1      78.820   5.184  27.459  1.00  0.00    -0.387 OA
HETATM   24  C13 UNL     1      78.734   6.568  27.464  1.00  0.00     0.195 C
HETATM   25  C14 UNL     1      78.753   7.136  28.867  1.00  0.00     0.259 C
HETATM   26  N1  UNL     1      78.455   6.050  29.774  1.00  0.00    -0.064 N
ATOM     27  H12 UNL     1      77.569   5.588  29.567  1.00  0.00     0.278 HD
ATOM     28  H11 UNL     1      78.222   6.367  30.714  1.00  0.00     0.278 HD
ENDBRANCH  20  21
ENDBRANCH  16  19
ENDBRANCH  15  16
ENDBRANCH   1  15
TORSDOF 8
ENDMDL