MODEL 3
REMARK VINA RESULT: -6.645119450      2.371      7.495
REMARK  9 active torsions:
REMARK  status: ('A' for Active; 'I' for Inactive)
REMARK    1  A    between atoms: C2_3  and  N2_4
REMARK    2  A    between atoms: N2_4  and  C3_6
REMARK    3  A    between atoms: C3_6  and  N3_8
REMARK    4  A    between atoms: N3_8  and  C4_10
REMARK    5  A    between atoms: C4_10  and  C5_11
REMARK    6  A    between atoms: C5_11  and  O1_12
REMARK    7  A    between atoms: C5_11  and  C6_14
REMARK    8  A    between atoms: C6_14  and  O2_15
REMARK    9  A    between atoms: O2_15  and  C7_16
ROOT
HETATM    1  N1  UNL     1      83.889   3.601  34.435  1.00  0.00    -0.195 NA
HETATM    2  C1  UNL     1      83.137   4.252  33.848  1.00  0.00     0.091 C
HETATM    3  C2  UNL     1      82.170   5.076  33.091  1.00  0.00     0.121 C
HETATM    4  C12 UNL     1      80.943   5.212  33.943  1.00  0.00     0.046 C
HETATM    5  C13 UNL     1      80.778   6.627  34.467  1.00  0.00     0.004 C
HETATM    6  C14 UNL     1      82.043   7.146  35.108  1.00  0.00     0.000 C
HETATM    7  C15 UNL     1      83.256   6.966  34.220  1.00  0.00     0.004 C
HETATM    8  C16 UNL     1      82.849   6.416  32.870  1.00  0.00     0.046 C
ENDROOT
BRANCH   3   9
HETATM    9  N2  UNL     1      81.903   4.454  31.809  1.00  0.00    -0.345 N
ATOM     10  H2  UNL     1      81.758   3.445  31.763  1.00  0.00     0.163 HD
BRANCH   9  11
HETATM   11  C3  UNL     1      81.839   5.220  30.621  1.00  0.00     0.169 C
HETATM   12  S1  UNL     1      82.996   5.051  29.482  1.00  0.00    -0.041 SA
BRANCH  11  13
HETATM   13  N3  UNL     1      80.791   6.136  30.394  1.00  0.00    -0.365 N
ATOM     14  H3  UNL     1      81.015   7.053  30.009  1.00  0.00     0.161 HD
BRANCH  13  15
HETATM   15  C4  UNL     1      79.397   5.818  30.690  1.00  0.00     0.155 C
BRANCH  15  16
HETATM   16  C5  UNL     1      78.448   6.569  29.774  1.00  0.00     0.159 C
BRANCH  16  17
HETATM   17  O1  UNL     1      78.341   7.901  30.271  1.00  0.00    -0.392 OA
ATOM     18  H1  UNL     1      79.085   8.389  29.936  1.00  0.00     0.210 HD
ENDBRANCH  16  17
BRANCH  16  19
HETATM   19  C6  UNL     1      78.941   6.710  28.374  1.00  0.00     0.204 C
BRANCH  19  20
HETATM   20  O2  UNL     1      78.536   5.767  27.473  1.00  0.00    -0.359 OA
BRANCH  20  21
HETATM   21  C7  UNL     1      79.488   4.793  27.187  1.00  0.00     0.259 C
HETATM   22  C8  UNL     1      80.662   5.302  26.463  1.00  0.00     0.061 C
HETATM   23  C9  UNL     1      80.948   4.777  25.111  1.00  0.00     0.007 C
HETATM   24  C10 UNL     1      80.228   3.512  24.743  1.00  0.00     0.026 C
HETATM   25  C11 UNL     1      78.791   3.693  25.253  1.00  0.00     0.171 C
HETATM   26  O3  UNL     1      78.890   3.669  26.621  1.00  0.00    -0.361 OA
ENDBRANCH  20  21
ENDBRANCH  19  20
ENDBRANCH  16  19
ENDBRANCH  15  16
ENDBRANCH  13  15
ENDBRANCH  11  13
ENDBRANCH   9  11
ENDBRANCH   3   9
TORSDOF 9
ENDMDL