MODEL 2
REMARK VINA RESULT: -7.291534772      1.859      2.756
REMARK  7 active torsions:
REMARK  status: ('A' for Active; 'I' for Inactive)
REMARK    1  A    between atoms: C2_2  and  N1_3
REMARK    2  A    between atoms: C6_7  and  C7_8
REMARK    3  A    between atoms: C7_8  and  C8_9
REMARK    4  A    between atoms: N4_15  and  C10_17
REMARK    5  A    between atoms: C12_19  and  C13_20
REMARK    6  A    between atoms: C13_20  and  N5_21
REMARK    7  A    between atoms: N7_27  and  C14_28
ROOT
HETATM    1  C8  UNL     1      80.040   4.708  31.130  1.00  0.00     0.036 A
HETATM    2  N2  UNL     1      79.169   4.049  30.290  1.00  0.00    -0.303 N
ATOM      3  H2  UNL     1      78.529   3.308  30.574  1.00  0.00     0.186 HD
HETATM    4  N3  UNL     1      79.285   4.514  29.077  1.00  0.00    -0.285 N
ATOM      5  H3  UNL     1      78.750   4.188  28.273  1.00  0.00     0.188 HD
HETATM    6  C9  UNL     1      80.205   5.474  29.044  1.00  0.00     0.129 A
HETATM    7  N4  UNL     1      80.581   6.157  28.031  1.00  0.00    -0.326 N
ATOM      8  H4  UNL     1      81.304   6.866  28.157  1.00  0.00     0.169 HD
HETATM    9  C16 UNL     1      80.687   5.602  30.343  1.00  0.00     0.007 A
HETATM   10  C17 UNL     1      81.717   6.617  30.707  1.00  0.00     0.054 C
ENDROOT
BRANCH   7  11
HETATM   11  C10 UNL     1      80.038   5.966  26.752  1.00  0.00     0.125 A
HETATM   12  C11 UNL     1      78.747   6.243  26.295  1.00  0.00     0.078 A
HETATM   13  C12 UNL     1      78.697   5.899  24.969  1.00  0.00     0.055 A
HETATM   14  N6  UNL     1      79.905   5.441  24.665  1.00  0.00    -0.299 N
HETATM   15  N7  UNL     1      80.721   5.465  25.687  1.00  0.00    -0.277 N
ATOM     16  H6  UNL     1      80.168   5.108  23.738  1.00  0.00     0.187 HD
BRANCH  13  17
HETATM   17  C13 UNL     1      77.521   6.020  24.086  1.00  0.00     0.288 C
BRANCH  17  18
HETATM   18  N5  UNL     1      77.851   5.788  22.701  1.00  0.00    -0.074 N
ATOM     19  H53 UNL     1      78.657   5.170  22.613  1.00  0.00     0.274 HD
ATOM     20  H52 UNL     1      77.148   5.205  22.247  1.00  0.00     0.274 HD
ATOM     21  H51 UNL     1      77.995   6.657  22.187  1.00  0.00     0.274 HD
ENDBRANCH  17  18
ENDBRANCH  13  17
BRANCH  15  22
HETATM   22  C14 UNL     1      82.107   5.048  25.740  1.00  0.00     0.146 C
HETATM   23  C15 UNL     1      82.408   4.290  24.455  1.00  0.00     0.028 C
ENDBRANCH  15  22
ENDBRANCH   7  11
BRANCH   1  24
HETATM   24  C7  UNL     1      80.177   4.380  32.564  1.00  0.00     0.065 C
BRANCH  24  25
HETATM   25  C6  UNL     1      81.083   5.259  33.353  1.00  0.00     0.019 C
HETATM   26  C5  UNL     1      80.374   6.364  34.033  1.00  0.00     0.008 C
HETATM   27  C4  UNL     1      81.316   7.210  34.893  1.00  0.00     0.031 C
HETATM   28  C3  UNL     1      82.560   6.456  35.288  1.00  0.00     0.272 C
HETATM   29  N1  UNL     1      82.387   5.048  35.425  1.00  0.00     0.088 N
HETATM   30  C18 UNL     1      81.854   4.367  34.305  1.00  0.00     0.277 C
BRANCH  29  31
HETATM   31  C2  UNL     1      83.547   4.471  36.033  1.00  0.00     0.268 C
HETATM   32  C1  UNL     1      84.362   3.596  35.114  1.00  0.00     0.037 C
ENDBRANCH  29  31
ENDBRANCH  24  25
ENDBRANCH   1  24
TORSDOF 7
ENDMDL