MODEL 3
REMARK VINA RESULT: -7.083614165      1.443      2.034
REMARK  7 active torsions:
REMARK  status: ('A' for Active; 'I' for Inactive)
REMARK    1  A    between atoms: C2_2  and  C4_4
REMARK    2  A    between atoms: C4_4  and  S1_5
REMARK    3  A    between atoms: S1_5  and  C5_6
REMARK    4  A    between atoms: N4_16  and  C9_18
REMARK    5  A    between atoms: C14_23  and  N5_24
REMARK    6  A    between atoms: C15_26  and  C16_27
REMARK    7  A    between atoms: C16_27  and  O1_28
ROOT
HETATM    1  C5  UNL     1      81.501   5.455  26.907  1.00  0.00     0.147 A
HETATM    2  N1  UNL     1      82.808   5.754  26.930  1.00  0.00    -0.322 N
ATOM      3  H1  UNL     1      83.323   5.987  26.082  1.00  0.00     0.169 HD
HETATM    4  C6  UNL     1      83.394   5.729  28.131  1.00  0.00     0.126 A
HETATM    5  N2  UNL     1      84.709   6.028  28.179  1.00  0.00    -0.338 N
ATOM      6  H2  UNL     1      85.207   6.259  27.319  1.00  0.00     0.168 HD
HETATM    7  C7  UNL     1      85.366   6.024  29.348  1.00  0.00     0.183 A
HETATM    8  N3  UNL     1      84.715   5.722  30.484  1.00  0.00    -0.338 N
ATOM      9  H3  UNL     1      85.234   5.726  31.363  1.00  0.00     0.168 HD
HETATM   10  C8  UNL     1      83.405   5.414  30.509  1.00  0.00     0.120 A
HETATM   11  N4  UNL     1      82.765   5.123  31.587  1.00  0.00    -0.370 N
ATOM     12  H4  UNL     1      81.771   4.896  31.552  1.00  0.00     0.161 HD
HETATM   13  C13 UNL     1      82.740   5.423  29.284  1.00  0.00     0.096 A
HETATM   14  C14 UNL     1      81.374   5.110  29.263  1.00  0.00     0.124 A
HETATM   15  N6  UNL     1      80.809   5.143  28.039  1.00  0.00    -0.322 N
ATOM     16  H6  UNL     1      79.816   4.924  27.956  1.00  0.00     0.169 HD
ENDROOT
BRANCH  11  17
HETATM   17  C9  UNL     1      83.461   5.121  32.832  1.00  0.00     0.087 A
HETATM   18  C10 UNL     1      82.816   5.990  33.926  1.00  0.00     0.031 A
HETATM   19  C11 UNL     1      82.909   4.511  34.058  1.00  0.00     0.006 A
HETATM   20  C12 UNL     1      81.656   3.705  34.074  1.00  0.00     0.012 C
ENDBRANCH  11  17
BRANCH  14  21
HETATM   21  N5  UNL     1      80.857   4.845  30.351  1.00  0.00    -0.353 N
HETATM   22  C15 UNL     1      79.700   5.043  31.035  1.00  0.00     0.088 C
ATOM     23  H5  UNL     1      81.508   4.303  30.920  1.00  0.00     0.166 HD
BRANCH  22  24
HETATM   24  C16 UNL     1      78.532   5.751  30.434  1.00  0.00     0.208 C
BRANCH  24  25
HETATM   25  O1  UNL     1      77.355   5.225  31.010  1.00  0.00    -0.396 OA
ATOM     26  H1  UNL     1      76.655   5.301  30.374  1.00  0.00     0.209 HD
ENDBRANCH  24  25
ENDBRANCH  22  24
ENDBRANCH  14  21
BRANCH   1  27
HETATM   27  S1  UNL     1      80.553   5.444  25.386  1.00  0.00    -0.093 SA
BRANCH  27  28
HETATM   28  C4  UNL     1      79.167   6.594  25.498  1.00  0.00     0.086 C
BRANCH  28  29
HETATM   29  C2  UNL     1      77.898   5.855  25.190  1.00  0.00    -0.013 C
HETATM   30  C1  UNL     1      78.192   4.373  25.259  1.00  0.00     0.010 C
HETATM   31  C3  UNL     1      77.464   6.232  23.789  1.00  0.00     0.010 C
ENDBRANCH  28  29
ENDBRANCH  27  28
ENDBRANCH   1  27
TORSDOF 7
ENDMDL