MODEL 2
REMARK VINA RESULT: -6.887698780      1.001      1.421
REMARK  8 active torsions:
REMARK  status: ('A' for Active; 'I' for Inactive)
REMARK    1  A    between atoms: C2_2  and  C3_3
REMARK    2  A    between atoms: C3_3  and  C4_4
REMARK    3  A    between atoms: C4_4  and  N1_5
REMARK    4  A    between atoms: N1_5  and  C5_7
REMARK    5  A    between atoms: C6_10  and  N3_11
REMARK    6  A    between atoms: N3_11  and  C7_13
REMARK    7  A    between atoms: C7_13  and  C8_14
REMARK    8  A    between atoms: N6_24  and  C13_25
ROOT
HETATM    1  C5  UNL     1      80.610   4.751  26.530  1.00  0.00     0.151 A
HETATM    2  N2  UNL     1      81.667   5.578  26.234  1.00  0.00    -0.174 N
ATOM      3  H2  UNL     1      81.994   5.623  25.268  1.00  0.00     0.186 HD
HETATM    4  C6  UNL     1      82.289   6.329  27.157  1.00  0.00     0.681 A
HETATM    5  N4  UNL     1      81.883   6.294  28.440  1.00  0.00    -0.174 N
ATOM      6  H4  UNL     1      82.365   6.869  29.131  1.00  0.00     0.186 HD
HETATM    7  C10 UNL     1      80.852   5.514  28.835  1.00  0.00     0.160 A
HETATM    8  C11 UNL     1      80.240   4.757  27.857  1.00  0.00     0.126 A
HETATM    9  N5  UNL     1      79.263   4.077  28.472  1.00  0.00    -0.302 N
ATOM     10  H5  UNL     1      78.617   3.422  28.031  1.00  0.00     0.171 HD
HETATM   11  C12 UNL     1      79.289   4.415  29.782  1.00  0.00     0.331 A
HETATM   12  O1  UNL     1      78.500   3.945  30.608  1.00  0.00    -0.246 OA
HETATM   13  N6  UNL     1      80.248   5.290  30.030  1.00  0.00    -0.255 N
ENDROOT
BRANCH   1  14
HETATM   14  N1  UNL     1      80.120   4.107  25.585  1.00  0.00    -0.354 N
ATOM     15  H1  UNL     1      80.564   3.191  25.523  1.00  0.00     0.166 HD
BRANCH  14  16
HETATM   16  C4  UNL     1      79.168   4.234  24.594  1.00  0.00     0.062 C
BRANCH  16  17
HETATM   17  C3  UNL     1      77.844   4.837  25.013  1.00  0.00     0.044 C
BRANCH  17  18
HETATM   18  C2  UNL     1      77.792   6.226  24.363  1.00  0.00     0.001 C
HETATM   19  C1  UNL     1      76.729   6.270  23.283  1.00  0.00     0.005 C
ENDBRANCH  17  18
ENDBRANCH  16  17
ENDBRANCH  14  16
ENDBRANCH   1  14
BRANCH   4  20
HETATM   20  N3  UNL     1      83.266   7.060  26.748  1.00  0.00    -0.226 N
ATOM     21  H3  UNL     1      83.024   7.904  26.228  1.00  0.00     0.177 HD
BRANCH  20  22
HETATM   22  C7  UNL     1      84.646   6.807  26.950  1.00  0.00     0.137 C
BRANCH  22  23
HETATM   23  C8  UNL     1      85.357   7.015  25.606  1.00  0.00     0.016 C
HETATM   24  C9  UNL     1      85.163   5.829  24.705  1.00  0.00     0.006 C
ENDBRANCH  22  23
ENDBRANCH  20  22
ENDBRANCH   4  20
BRANCH  13  25
HETATM   25  C13 UNL     1      80.675   5.943  31.219  1.00  0.00     0.234 C
HETATM   26  C14 UNL     1      80.048   5.514  32.478  1.00  0.00     0.054 C
HETATM   27  C15 UNL     1      80.775   4.448  33.262  1.00  0.00     0.006 C
HETATM   28  C16 UNL     1      82.239   4.910  33.338  1.00  0.00     0.026 C
HETATM   29  C17 UNL     1      82.682   4.952  31.868  1.00  0.00     0.170 C
HETATM   30  O2  UNL     1      82.061   5.975  31.217  1.00  0.00    -0.366 OA
ENDBRANCH  13  25
TORSDOF 8
ENDMDL