MODEL 5
REMARK VINA RESULT: -6.637209020      2.880      8.643
REMARK  6 active torsions:
REMARK  status: ('A' for Active; 'I' for Inactive)
REMARK    1  A    between atoms: C4_6  and  C5_7
REMARK    2  A    between atoms: C5_7  and  N2_8
REMARK    3  A    between atoms: C8_13  and  C9_14
REMARK    4  A    between atoms: C9_14  and  C10_15
REMARK    5  A    between atoms: C10_15  and  N4_16
REMARK       I    between atoms: C11_18  and  N5_19
REMARK       I    between atoms: C11_18  and  N7_23
REMARK    6  A    between atoms: N7_23  and  C13_25
ROOT
HETATM    1  C1  UNL     1      85.210   4.894  36.701  1.00  0.00     0.014 C
HETATM    2  C2  UNL     1      84.000   4.812  36.714  1.00  0.00    -0.090 C
HETATM    3  C3  UNL     1      82.546   4.697  36.728  1.00  0.00     0.184 C
HETATM    4  N1  UNL     1      82.008   5.710  37.615  1.00  0.00    -0.361 N
ATOM      5  H1  UNL     1      81.736   5.599  38.593  1.00  0.00     0.162 HD
HETATM    6  C4  UNL     1      81.941   6.891  36.828  1.00  0.00     0.103 C
HETATM    7  N3  UNL     1      81.889   6.566  35.564  1.00  0.00    -0.371 N
ATOM      8  H3  UNL     1      81.835   7.230  34.792  1.00  0.00     0.161 HD
HETATM    9  C8  UNL     1      81.917   5.127  35.420  1.00  0.00     0.119 C
ENDROOT
BRANCH   9  10
HETATM   10  C9  UNL     1      82.722   4.781  34.211  1.00  0.00     0.048 C
BRANCH  10  11
HETATM   11  C10 UNL     1      81.885   4.439  33.000  1.00  0.00     0.140 C
BRANCH  11  12
HETATM   12  N4  UNL     1      81.777   5.523  32.075  1.00  0.00    -0.226 N
HETATM   13  C11 UNL     1      80.833   5.537  31.197  1.00  0.00     0.683 C
HETATM   14  N5  UNL     1      79.871   4.496  31.103  1.00  0.00    -0.126 N
HETATM   15  N7  UNL     1      80.692   6.607  30.252  1.00  0.00    -0.221 N
HETATM   16  C12 UNL     1      78.508   4.719  31.120  1.00  0.00     0.196 C
ATOM     17  H5  UNL     1      80.203   3.535  31.020  1.00  0.00     0.197 HD
HETATM   18  N6  UNL     1      77.376   4.917  31.121  1.00  0.00    -0.171 NA
ATOM     19  H7  UNL     1      80.851   7.566  30.562  1.00  0.00     0.178 HD
ATOM     20  H4  UNL     1      82.449   6.290  32.110  1.00  0.00     0.177 HD
BRANCH  15  21
HETATM   21  C13 UNL     1      80.330   6.365  28.871  1.00  0.00     0.099 C
HETATM   22  C14 UNL     1      79.175   7.257  28.530  1.00  0.00     0.026 C
HETATM   23  C15 UNL     1      79.459   8.212  27.410  1.00  0.00     0.002 C
HETATM   24  C16 UNL     1      80.792   8.868  27.463  1.00  0.00     0.000 C
HETATM   25  C17 UNL     1      81.866   8.101  28.159  1.00  0.00     0.002 C
HETATM   26  C18 UNL     1      81.544   6.626  28.014  1.00  0.00     0.026 C
ENDBRANCH  15  21
ENDBRANCH  11  12
ENDBRANCH  10  11
ENDBRANCH   9  10
BRANCH   6  27
HETATM   27  C5  UNL     1      81.921   8.283  37.350  1.00  0.00     0.346 C
BRANCH  27  28
HETATM   28  N2  UNL     1      80.618   8.903  37.282  1.00  0.00     0.086 N
HETATM   29  C6  UNL     1      80.865  10.259  36.763  1.00  0.00     0.309 C
HETATM   30  C7  UNL     1      80.005   9.068  38.591  1.00  0.00     0.309 C
ENDBRANCH  27  28
ENDBRANCH   6  27
TORSDOF 6
ENDMDL