MODEL 2
REMARK VINA RESULT: -7.051737706      1.703      1.884
REMARK  7 active torsions:
REMARK  status: ('A' for Active; 'I' for Inactive)
REMARK    1  A    between atoms: O1_2  and  C2_3
REMARK    2  A    between atoms: C4_5  and  C5_6
REMARK    3  A    between atoms: C5_6  and  O2_7
REMARK    4  A    between atoms: C6_10  and  C7_11
REMARK    5  A    between atoms: C7_11  and  C8_12
REMARK    6  A    between atoms: C8_12  and  C9_13
REMARK       I    between atoms: C9_13  and  N1_15
REMARK    7  A    between atoms: N1_15  and  C10_17
ROOT
HETATM    1  C9  UNL     1      79.851   5.449  31.434  1.00  0.00     0.217 C
HETATM    2  O4  UNL     1      79.029   6.377  31.395  1.00  0.00    -0.274 OA
HETATM    3  N1  UNL     1      80.245   4.898  30.170  1.00  0.00    -0.356 N
ATOM      4  H1  UNL     1      80.918   4.133  30.153  1.00  0.00     0.162 HD
ENDROOT
BRANCH   1   5
HETATM    5  C8  UNL     1      80.376   4.959  32.704  1.00  0.00     0.105 C
BRANCH   5   6
HETATM    6  C7  UNL     1      80.502   5.906  33.843  1.00  0.00     0.044 C
BRANCH   6   7
HETATM    7  C6  UNL     1      81.496   5.561  34.833  1.00  0.00     0.151 C
HETATM    8  C2  UNL     1      82.924   5.434  34.688  1.00  0.00     0.152 C
HETATM    9  C3  UNL     1      83.202   4.871  36.169  1.00  0.00     0.068 C
HETATM   10  C4  UNL     1      82.090   5.532  36.899  1.00  0.00     0.148 C
HETATM   11  O3  UNL     1      81.438   6.377  36.011  1.00  0.00    -0.376 OA
BRANCH   8  12
HETATM   12  O1  UNL     1      83.698   6.586  34.622  1.00  0.00    -0.388 OA
HETATM   13  C1  UNL     1      85.041   6.442  34.752  1.00  0.00     0.202 C
ENDBRANCH   8  12
BRANCH  10  14
HETATM   14  C5  UNL     1      82.542   6.254  38.147  1.00  0.00     0.196 C
BRANCH  14  15
HETATM   15  O2  UNL     1      81.504   6.264  39.070  1.00  0.00    -0.398 OA
ATOM     16  H2  UNL     1      81.861   6.142  39.943  1.00  0.00     0.209 HD
ENDBRANCH  14  15
ENDBRANCH  10  14
ENDBRANCH   6   7
ENDBRANCH   5   6
ENDBRANCH   1   5
BRANCH   3  17
HETATM   17  C10 UNL     1      79.717   5.394  28.916  1.00  0.00     0.089 C
HETATM   18  C11 UNL     1      79.708   4.305  27.870  1.00  0.00     0.063 C
HETATM   19  C12 UNL     1      79.665   4.865  26.465  1.00  0.00     0.121 C
HETATM   20  C13 UNL     1      78.680   3.995  25.699  1.00  0.00     0.046 C
HETATM   21  C14 UNL     1      80.987   4.714  25.755  1.00  0.00     0.046 C
HETATM   22  N2  UNL     1      79.154   6.208  26.412  1.00  0.00    -0.059 N
HETATM   23  C15 UNL     1      79.876   7.153  27.206  1.00  0.00     0.121 C
ATOM     24  H22 UNL     1      79.097   6.527  25.444  1.00  0.00     0.279 HD
ATOM     25  H21 UNL     1      78.164   6.220  26.658  1.00  0.00     0.279 HD
HETATM   26  C16 UNL     1      78.902   8.240  27.626  1.00  0.00     0.046 C
HETATM   27  C17 UNL     1      80.915   7.847  26.313  1.00  0.00     0.046 C
HETATM   28  C18 UNL     1      80.511   6.589  28.426  1.00  0.00     0.063 C
ENDBRANCH   3  17
TORSDOF 7
ENDMDL