MODEL 1
REMARK VINA RESULT: -6.605191976      0.000      0.000
REMARK  8 active torsions:
REMARK  status: ('A' for Active; 'I' for Inactive)
REMARK    1  A    between atoms: C2_2  and  C3_3
REMARK    2  A    between atoms: C3_3  and  C4_4
REMARK    3  A    between atoms: C4_4  and  N1_6
REMARK    4  A    between atoms: N1_6  and  C6_8
REMARK    5  A    between atoms: C9_15  and  N4_16
REMARK    6  A    between atoms: N4_16  and  C10_18
REMARK    7  A    between atoms: C15_26  and  O1_27
REMARK    8  A    between atoms: O1_27  and  C16_28
ROOT
HETATM    1  C6  UNL     1      80.406   5.157  31.487  1.00  0.00     0.132 A
HETATM    2  N2  UNL     1      79.113   5.487  31.495  1.00  0.00    -0.337 N
ATOM      3  H2  UNL     1      78.573   5.400  32.356  1.00  0.00     0.168 HD
HETATM    4  C7  UNL     1      78.518   5.935  30.376  1.00  0.00     0.182 A
HETATM    5  N3  UNL     1      79.164   6.077  29.211  1.00  0.00    -0.349 N
ATOM      6  H3  UNL     1      78.672   6.421  28.386  1.00  0.00     0.167 HD
HETATM    7  C8  UNL     1      80.466   5.760  29.143  1.00  0.00     0.090 A
HETATM    8  C9  UNL     1      81.191   5.884  27.966  1.00  0.00     0.062 A
HETATM    9  C14 UNL     1      82.550   5.520  28.022  1.00  0.00     0.087 A
HETATM   10  C15 UNL     1      83.169   5.065  29.146  1.00  0.00     0.144 A
HETATM   11  N6  UNL     1      82.399   4.970  30.255  1.00  0.00    -0.332 N
ATOM     12  H6  UNL     1      82.834   4.632  31.114  1.00  0.00     0.168 HD
HETATM   13  C18 UNL     1      81.097   5.295  30.293  1.00  0.00     0.107 A
ENDROOT
BRANCH   8  14
HETATM   14  N4  UNL     1      80.705   6.294  26.890  1.00  0.00    -0.382 N
ATOM     15  H4  UNL     1      80.814   7.302  26.781  1.00  0.00     0.160 HD
BRANCH  14  16
HETATM   16  C10 UNL     1      80.050   5.718  25.800  1.00  0.00     0.109 C
HETATM   17  C11 UNL     1      79.919   4.185  25.952  1.00  0.00     0.054 C
HETATM   18  C12 UNL     1      78.621   3.957  25.207  1.00  0.00     0.234 C
HETATM   19  N5  UNL     1      77.783   4.965  25.879  1.00  0.00    -0.073 N
HETATM   20  C13 UNL     1      78.590   6.162  25.669  1.00  0.00     0.257 C
ATOM     21  H52 UNL     1      76.816   5.022  25.558  1.00  0.00     0.277 HD
ATOM     22  H51 UNL     1      77.538   4.762  26.848  1.00  0.00     0.277 HD
ENDBRANCH  14  16
ENDBRANCH   8  14
BRANCH  10  23
HETATM   23  O1  UNL     1      84.496   4.704  29.225  1.00  0.00    -0.336 OA
BRANCH  23  24
HETATM   24  C16 UNL     1      85.459   5.408  29.930  1.00  0.00     0.173 C
HETATM   25  C17 UNL     1      86.055   6.565  29.195  1.00  0.00     0.034 C
ENDBRANCH  23  24
ENDBRANCH  10  23
BRANCH   1  26
HETATM   26  N1  UNL     1      81.051   4.725  32.500  1.00  0.00    -0.370 N
ATOM     27  H1  UNL     1      81.711   3.966  32.327  1.00  0.00     0.161 HD
BRANCH  26  28
HETATM   28  C4  UNL     1      80.954   5.181  33.841  1.00  0.00     0.079 C
HETATM   29  C5  UNL     1      81.447   6.631  33.862  1.00  0.00     0.032 C
BRANCH  28  30
HETATM   30  C3  UNL     1      81.829   4.429  34.817  1.00  0.00     0.024 C
BRANCH  30  31
HETATM   31  C2  UNL     1      83.073   4.007  34.021  1.00  0.00    -0.003 C
HETATM   32  C1  UNL     1      84.196   3.632  34.964  1.00  0.00     0.005 C
ENDBRANCH  30  31
ENDBRANCH  28  30
ENDBRANCH  26  28
ENDBRANCH   1  26
TORSDOF 8
ENDMDL