MODEL 4
REMARK VINA RESULT: -6.884329152      3.778      8.581
REMARK  18 active torsions:
REMARK  status: ('A' for Active; 'I' for Inactive)
REMARK    1  A    between atoms: N1_1  and  C1_5
REMARK    2  A    between atoms: C2_6  and  O1_7
REMARK    3  A    between atoms: C3_9  and  C4_10
REMARK    4  A    between atoms: C4_10  and  O2_11
REMARK    5  A    between atoms: C5_14  and  O4_15
REMARK    6  A    between atoms: O4_15  and  C6_16
REMARK    7  A    between atoms: C7_17  and  S1_18
REMARK    8  A    between atoms: S1_18  and  S2_19
REMARK    9  A    between atoms: S2_19  and  C8_20
REMARK   10  A    between atoms: C9_21  and  O5_22
REMARK   11  A    between atoms: C11_25  and  O6_26
REMARK   12  A    between atoms: C12_28  and  C13_29
REMARK   13  A    between atoms: C13_29  and  O7_30
REMARK   14  A    between atoms: C14_32  and  O8_33
REMARK   15  A    between atoms: C15_36  and  O10_37
REMARK   16  A    between atoms: C16_39  and  O11_40
REMARK   17  A    between atoms: C17_42  and  O12_43
REMARK   18  A    between atoms: C18_45  and  O13_46
ROOT
HETATM    1  C6  UNL     1      61.385   2.663  49.619  1.00  0.00     0.196 C
HETATM    2  C7  UNL     1      60.951   1.360  49.052  1.00  0.00     0.228 C
HETATM    3  O9  UNL     1      61.974   0.465  48.780  1.00  0.00    -0.340 OA
HETATM    4  C15 UNL     1      62.878   1.006  47.842  1.00  0.00     0.289 C
HETATM    5  C16 UNL     1      63.633   2.074  48.615  1.00  0.00     0.204 C
HETATM    6  C17 UNL     1      62.719   3.138  49.112  1.00  0.00     0.184 C
ENDROOT
BRANCH   1   7
HETATM    7  O4  UNL     1      61.260   2.648  50.981  1.00  0.00    -0.347 OA
BRANCH   7   8
HETATM    8  C5  UNL     1      60.078   3.021  51.522  1.00  0.00     0.291 C
HETATM    9  O3  UNL     1      60.233   4.383  51.918  1.00  0.00    -0.349 OA
HETATM   10  C3  UNL     1      59.023   4.913  52.280  1.00  0.00     0.179 C
HETATM   11  C2  UNL     1      57.986   3.902  52.644  1.00  0.00     0.182 C
HETATM   12  C1  UNL     1      58.519   2.707  53.362  1.00  0.00     0.247 C
HETATM   13  C18 UNL     1      59.872   2.293  52.828  1.00  0.00     0.206 C
BRANCH  10  14
HETATM   14  C4  UNL     1      59.194   5.979  53.366  1.00  0.00     0.198 C
BRANCH  14  15
HETATM   15  O2  UNL     1      58.363   7.068  53.125  1.00  0.00    -0.398 OA
ATOM     16  H2  UNL     1      57.504   6.928  53.507  1.00  0.00     0.209 HD
ENDBRANCH  14  15
ENDBRANCH  10  14
BRANCH  11  17
HETATM   17  O1  UNL     1      57.083   4.543  53.526  1.00  0.00    -0.391 OA
ATOM     18  H1  UNL     1      57.595   4.862  54.261  1.00  0.00     0.210 HD
ENDBRANCH  11  17
BRANCH  12  19
HETATM   19  N1  UNL     1      57.589   1.599  53.103  1.00  0.00    -0.070 N
ATOM     20  H13 UNL     1      57.530   1.348  52.116  1.00  0.00     0.274 HD
ATOM     21  H12 UNL     1      57.930   0.701  53.444  1.00  0.00     0.274 HD
ATOM     22  H11 UNL     1      56.689   1.865  53.503  1.00  0.00     0.274 HD
ENDBRANCH  12  19
BRANCH  13  23
HETATM   23  O13 UNL     1      60.035   0.937  52.771  1.00  0.00    -0.388 OA
ATOM     24  H13 UNL     1      60.245   0.550  53.613  1.00  0.00     0.210 HD
ENDBRANCH  13  23
ENDBRANCH   7   8
ENDBRANCH   1   7
BRANCH   2  25
HETATM   25  S1  UNL     1      60.010   1.590  47.490  1.00  0.00    -0.062 SA
BRANCH  25  26
HETATM   26  S2  UNL     1      58.384   2.961  47.830  1.00  0.00    -0.085 SA
BRANCH  26  27
HETATM   27  C8  UNL     1      58.505   4.171  46.450  1.00  0.00     0.116 C
HETATM   28  C9  UNL     1      59.879   4.613  46.174  1.00  0.00     0.137 C
HETATM   29  C10 UNL     1      60.191   4.930  44.743  1.00  0.00     0.065 C
HETATM   30  C11 UNL     1      58.871   5.389  44.106  1.00  0.00     0.129 C
HETATM   31  C12 UNL     1      58.068   4.111  43.955  1.00  0.00     0.068 C
HETATM   32  C14 UNL     1      57.722   3.620  45.311  1.00  0.00     0.143 C
BRANCH  28  33
HETATM   33  O5  UNL     1      60.218   5.757  46.934  1.00  0.00    -0.394 OA
ATOM     34  H5  UNL     1      60.199   6.545  46.404  1.00  0.00     0.210 HD
ENDBRANCH  28  33
BRANCH  30  35
HETATM   35  O6  UNL     1      59.079   6.046  42.917  1.00  0.00    -0.395 OA
ATOM     36  H6  UNL     1      58.406   5.843  42.279  1.00  0.00     0.210 HD
ENDBRANCH  30  35
BRANCH  31  37
HETATM   37  C13 UNL     1      56.817   4.306  43.145  1.00  0.00     0.173 C
BRANCH  37  38
HETATM   38  O7  UNL     1      56.423   5.646  43.253  1.00  0.00    -0.400 OA
ATOM     39  H7  UNL     1      55.775   5.824  42.582  1.00  0.00     0.209 HD
ENDBRANCH  37  38
ENDBRANCH  31  37
BRANCH  32  40
HETATM   40  O8  UNL     1      56.355   3.820  45.521  1.00  0.00    -0.394 OA
ATOM     41  H8  UNL     1      56.198   4.693  45.864  1.00  0.00     0.210 HD
ENDBRANCH  32  40
ENDBRANCH  26  27
ENDBRANCH  25  26
ENDBRANCH   2  25
BRANCH   6  42
HETATM   42  O12 UNL     1      62.577   4.059  48.066  1.00  0.00    -0.390 OA
ATOM     43  H12 UNL     1      62.783   4.943  48.346  1.00  0.00     0.210 HD
ENDBRANCH   6  42
BRANCH   5  44
HETATM   44  O11 UNL     1      64.585   2.668  47.762  1.00  0.00    -0.388 OA
ATOM     45  H11 UNL     1      64.832   3.514  48.118  1.00  0.00     0.210 HD
ENDBRANCH   5  44
BRANCH   4  46
HETATM   46  O10 UNL     1      63.754  -0.007  47.498  1.00  0.00    -0.368 OA
ATOM     47  H10 UNL     1      63.643  -0.163  46.567  1.00  0.00     0.212 HD
ENDBRANCH   4  46
TORSDOF 18
ENDMDL