MODEL 2
REMARK VINA RESULT: -6.308237901      0.763      1.127
REMARK  18 active torsions:
REMARK  status: ('A' for Active; 'I' for Inactive)
REMARK    1  A    between atoms: C2_2  and  C3_3
REMARK    2  A    between atoms: C2_2  and  C17_45
REMARK    3  A    between atoms: C3_3  and  C4_8
REMARK    4  A    between atoms: N1_4  and  O1_6
REMARK    5  A    between atoms: C4_8  and  O2_9
REMARK    6  A    between atoms: C4_8  and  N2_11
REMARK    7  A    between atoms: N2_11  and  O3_12
REMARK    8  A    between atoms: N2_11  and  C5_14
REMARK    9  A    between atoms: C7_16  and  N3_17
REMARK   10  A    between atoms: N3_17  and  N4_18
REMARK   11  A    between atoms: C9_20  and  O4_21
REMARK   12  A    between atoms: C10_23  and  N5_24
REMARK   13  A    between atoms: C11_28  and  O5_29
REMARK   14  A    between atoms: C12_31  and  N6_32
REMARK       I    between atoms: N6_32  and  C13_34
REMARK   15  A    between atoms: C13_34  and  C14_36
REMARK   16  A    between atoms: N7_37  and  O7_39
REMARK   17  A    between atoms: C17_45  and  O9_46
REMARK   18  A    between atoms: C17_45  and  O10_48
ROOT
HETATM    1  C5  UNL     1      59.878   4.606  45.119  1.00  0.00     0.175 C
HETATM    2  C6  UNL     1      59.687   4.964  46.575  1.00  0.00     0.068 C
HETATM    3  C7  UNL     1      60.067   3.755  47.402  1.00  0.00     0.166 C
HETATM    4  C15 UNL     1      61.531   3.626  47.479  1.00  0.00     0.156 C
HETATM    5  O8  UNL     1      62.097   3.704  48.536  1.00  0.00    -0.295 OA
HETATM    6  C16 UNL     1      62.292   3.398  46.237  1.00  0.00     0.156 C
HETATM    7  S1  UNL     1      61.039   3.221  44.905  1.00  0.00    -0.134 SA
ENDROOT
BRANCH   3   8
HETATM    8  N3  UNL     1      59.511   3.775  48.713  1.00  0.00    -0.150 NA
BRANCH   8   9
HETATM    9  N4  UNL     1      59.313   2.513  49.280  1.00  0.00    -0.206 NA
HETATM   10  C8  UNL     1      58.007   2.070  48.913  1.00  0.00     0.146 C
HETATM   11  C9  UNL     1      57.468   0.936  49.709  1.00  0.00     0.165 C
HETATM   12  C10 UNL     1      57.731   1.036  51.176  1.00  0.00     0.245 C
HETATM   13  C11 UNL     1      59.143   1.406  51.482  1.00  0.00     0.189 C
HETATM   14  C12 UNL     1      59.580   2.605  50.677  1.00  0.00     0.207 C
BRANCH  11  15
HETATM   15  O4  UNL     1      56.065   0.926  49.537  1.00  0.00    -0.392 OA
ATOM     16  H4  UNL     1      55.789   1.822  49.387  1.00  0.00     0.210 HD
ENDBRANCH  11  15
BRANCH  12  17
HETATM   17  N5  UNL     1      56.746   1.877  51.817  1.00  0.00    -0.070 N
ATOM     18  H53 UNL     1      57.151   2.758  52.135  1.00  0.00     0.274 HD
ATOM     19  H52 UNL     1      56.075   2.250  51.145  1.00  0.00     0.274 HD
ATOM     20  H51 UNL     1      56.283   1.377  52.575  1.00  0.00     0.274 HD
ENDBRANCH  12  17
BRANCH  13  21
HETATM   21  O5  UNL     1      59.258   1.705  52.830  1.00  0.00    -0.390 OA
ATOM     22  H5  UNL     1      59.214   2.647  52.949  1.00  0.00     0.210 HD
ENDBRANCH  13  21
BRANCH  14  23
HETATM   23  N6  UNL     1      59.098   3.834  51.246  1.00  0.00    -0.336 N
HETATM   24  C13 UNL     1      59.805   4.563  52.230  1.00  0.00     0.260 C
HETATM   25  O6  UNL     1      60.922   4.083  52.611  1.00  0.00    -0.267 OA
ATOM     26  H6  UNL     1      58.201   4.197  50.925  1.00  0.00     0.164 HD
BRANCH  24  27
HETATM   27  C14 UNL     1      59.287   5.804  52.784  1.00  0.00     0.187 C
HETATM   28  N7  UNL     1      58.091   5.801  53.279  1.00  0.00    -0.275 N
ATOM     29  H7  UNL     1      57.713   6.664  53.670  1.00  0.00     0.193 HD
BRANCH  28  30
HETATM   30  O7  UNL     1      57.319   4.674  53.291  1.00  0.00    -0.290 OA
ATOM     31  H7  UNL     1      56.656   4.528  53.955  1.00  0.00     0.244 HD
ENDBRANCH  28  30
ENDBRANCH  24  27
ENDBRANCH  14  23
ENDBRANCH   8   9
ENDBRANCH   3   8
BRANCH   1  32
HETATM   32  N2  UNL     1      58.675   4.398  44.422  1.00  0.00    -0.247 N
BRANCH  32  33
HETATM   33  C4  UNL     1      58.600   4.542  43.037  1.00  0.00     0.291 C
BRANCH  33  34
HETATM   34  C3  UNL     1      57.300   4.937  42.444  1.00  0.00     0.068 C
HETATM   35  N1  UNL     1      56.738   6.071  42.692  1.00  0.00    -0.272 N
ATOM     36  H1  UNL     1      55.839   6.300  42.268  1.00  0.00     0.193 HD
BRANCH  34  37
HETATM   37  C2  UNL     1      56.561   4.029  41.529  1.00  0.00     0.088 C
HETATM   38  C1  UNL     1      55.126   3.887  41.995  1.00  0.00     0.021 C
BRANCH  37  39
HETATM   39  C17 UNL     1      56.505   4.555  40.112  1.00  0.00     0.263 C
BRANCH  39  40
HETATM   40  O9  UNL     1      55.405   5.420  39.953  1.00  0.00    -0.371 OA
ATOM     41  H9  UNL     1      55.062   5.359  39.069  1.00  0.00     0.212 HD
ENDBRANCH  39  40
BRANCH  39  42
HETATM   42  O10 UNL     1      57.627   5.393  39.935  1.00  0.00    -0.371 OA
ATOM     43  H10 UNL     1      57.399   6.029  39.267  1.00  0.00     0.212 HD
ENDBRANCH  39  42
ENDBRANCH  37  39
ENDBRANCH  34  37
BRANCH  35  44
HETATM   44  O1  UNL     1      57.350   6.957  43.522  1.00  0.00    -0.290 OA
ATOM     45  H1  UNL     1      57.005   7.839  43.604  1.00  0.00     0.244 HD
ENDBRANCH  35  44
ENDBRANCH  33  34
BRANCH  33  46
HETATM   46  O2  UNL     1      59.633   5.385  42.577  1.00  0.00    -0.369 OA
ATOM     47  H2  UNL     1      60.389   4.874  42.314  1.00  0.00     0.212 HD
ENDBRANCH  33  46
ENDBRANCH  32  33
BRANCH  32  48
HETATM   48  O3  UNL     1      57.551   4.493  45.118  1.00  0.00    -0.288 OA
ATOM     49  H3  UNL     1      57.155   5.352  45.210  1.00  0.00     0.244 HD
ENDBRANCH  32  48
ENDBRANCH   1  32
TORSDOF 18
ENDMDL