MODEL 2
REMARK VINA RESULT: -7.029716199      3.832      5.728
REMARK  17 active torsions:
REMARK  status: ('A' for Active; 'I' for Inactive)
REMARK    1  A    between atoms: N1_1  and  C1_5
REMARK    2  A    between atoms: C3_7  and  O1_8
REMARK    3  A    between atoms: N2_10  and  C4_11
REMARK    4  A    between atoms: C5_12  and  C6_13
REMARK    5  A    between atoms: C6_13  and  O2_14
REMARK    6  A    between atoms: C6_13  and  C7_16
REMARK    7  A    between atoms: C7_16  and  C8_17
REMARK    8  A    between atoms: C8_17  and  C9_18
REMARK    9  A    between atoms: C9_18  and  C10_19
REMARK   10  A    between atoms: C10_19  and  N3_20
REMARK   11  A    between atoms: N3_20  and  C11_22
REMARK   12  A    between atoms: C13_29  and  O3_30
REMARK   13  A    between atoms: C14_35  and  O5_36
REMARK   14  A    between atoms: C14_35  and  C15_38
REMARK   15  A    between atoms: C15_38  and  C16_39
REMARK   16  A    between atoms: N8_45  and  O6_47
REMARK   17  A    between atoms: C20_51  and  O8_52
ROOT
HETATM    1  C4  UNL     1      60.929   3.201  46.631  1.00  0.00     0.291 C
HETATM    2  C5  UNL     1      60.895   2.486  45.268  1.00  0.00     0.190 C
HETATM    3  O4  UNL     1      59.793   3.004  44.657  1.00  0.00    -0.343 OA
HETATM    4  C14 UNL     1      59.519   4.247  45.166  1.00  0.00     0.193 C
HETATM    5  C20 UNL     1      60.667   4.603  46.129  1.00  0.00     0.216 C
ENDROOT
BRANCH   2   6
HETATM    6  C6  UNL     1      60.782   0.988  45.565  1.00  0.00     0.149 C
BRANCH   6   7
HETATM    7  O2  UNL     1      59.527   0.710  46.072  1.00  0.00    -0.393 OA
ATOM      8  H2  UNL     1      59.604   0.098  46.794  1.00  0.00     0.210 HD
ENDBRANCH   6   7
BRANCH   6   9
HETATM    9  C7  UNL     1      61.158   0.244  44.330  1.00  0.00     0.034 C
BRANCH   9  10
HETATM   10  C8  UNL     1      60.232   0.361  43.170  1.00  0.00     0.004 C
BRANCH  10  11
HETATM   11  C9  UNL     1      59.369  -0.832  42.974  1.00  0.00     0.020 C
BRANCH  11  12
HETATM   12  C10 UNL     1      57.920  -0.303  42.916  1.00  0.00     0.138 C
BRANCH  12  13
HETATM   13  N3  UNL     1      57.894   1.088  43.267  1.00  0.00    -0.227 N
ATOM     14  H3  UNL     1      58.603   1.736  42.923  1.00  0.00     0.177 HD
BRANCH  13  15
HETATM   15  C11 UNL     1      56.829   1.532  44.122  1.00  0.00     0.674 C
HETATM   16  N4  UNL     1      56.897   1.388  45.402  1.00  0.00    -0.202 N
HETATM   17  C12 UNL     1      55.873   1.806  46.324  1.00  0.00     0.376 C
ATOM     18  H4  UNL     1      57.733   0.948  45.787  1.00  0.00     0.179 HD
HETATM   19  N5  UNL     1      54.627   2.147  45.701  1.00  0.00    -0.014 N
HETATM   20  C13 UNL     1      54.882   2.958  44.528  1.00  0.00     0.442 C
ATOM     21  H52 UNL     1      54.064   1.324  45.486  1.00  0.00     0.284 HD
ATOM     22  H51 UNL     1      53.982   2.599  46.350  1.00  0.00     0.284 HD
HETATM   23  N6  UNL     1      55.660   2.146  43.603  1.00  0.00    -0.175 N
ATOM     24  H6  UNL     1      55.378   2.025  42.630  1.00  0.00     0.182 HD
BRANCH  20  25
HETATM   25  O3  UNL     1      55.691   4.032  44.954  1.00  0.00    -0.354 OA
ATOM     26  H3  UNL     1      56.524   3.655  45.214  1.00  0.00     0.214 HD
ENDBRANCH  20  25
ENDBRANCH  13  15
ENDBRANCH  12  13
ENDBRANCH  11  12
ENDBRANCH  10  11
ENDBRANCH   9  10
ENDBRANCH   6   9
ENDBRANCH   2   6
BRANCH   1  27
HETATM   27  N2  UNL     1      62.100   2.994  47.341  1.00  0.00     0.129 N
HETATM   28  C3  UNL     1      63.264   3.729  47.064  1.00  0.00     0.359 C
HETATM   29  C2  UNL     1      63.751   4.311  48.396  1.00  0.00     0.098 C
HETATM   30  C1  UNL     1      63.184   3.325  49.406  1.00  0.00     0.216 C
HETATM   31  C21 UNL     1      61.869   2.945  48.759  1.00  0.00     0.309 C
BRANCH  28  32
HETATM   32  O1  UNL     1      64.270   2.842  46.650  1.00  0.00    -0.368 OA
ATOM     33  H1  UNL     1      63.925   1.972  46.810  1.00  0.00     0.212 HD
ENDBRANCH  28  32
BRANCH  30  34
HETATM   34  N1  UNL     1      63.994   2.123  49.471  1.00  0.00    -0.073 N
ATOM     35  H13 UNL     1      64.848   2.214  48.921  1.00  0.00     0.274 HD
ATOM     36  H12 UNL     1      64.416   2.002  50.393  1.00  0.00     0.274 HD
ATOM     37  H11 UNL     1      63.454   1.302  49.194  1.00  0.00     0.274 HD
ENDBRANCH  30  34
ENDBRANCH   1  27
BRANCH   5  38
HETATM   38  O8  UNL     1      60.255   5.479  47.096  1.00  0.00    -0.388 OA
ATOM     39  H8  UNL     1      59.759   6.220  46.767  1.00  0.00     0.210 HD
ENDBRANCH   5  38
BRANCH   4  40
HETATM   40  O5  UNL     1      58.386   4.157  45.972  1.00  0.00    -0.363 OA
ATOM     41  H5  UNL     1      57.625   4.374  45.448  1.00  0.00     0.213 HD
ENDBRANCH   4  40
BRANCH   4  42
HETATM   42  C15 UNL     1      59.377   5.307  44.099  1.00  0.00     0.112 C
BRANCH  42  43
HETATM   43  C16 UNL     1      58.021   5.178  43.489  1.00  0.00     0.267 C
HETATM   44  N7  UNL     1      57.322   6.437  43.315  1.00  0.00    -0.058 N
HETATM   45  C17 UNL     1      56.381   6.230  42.245  1.00  0.00     0.295 C
ATOM     46  H72 UNL     1      56.892   6.785  44.172  1.00  0.00     0.278 HD
ATOM     47  H71 UNL     1      57.946   7.229  43.158  1.00  0.00     0.278 HD
HETATM   48  C18 UNL     1      56.805   5.020  41.490  1.00  0.00     0.105 C
HETATM   49  N8  UNL     1      56.238   4.543  40.423  1.00  0.00    -0.268 N
HETATM   50  C19 UNL     1      57.970   4.496  42.193  1.00  0.00     0.206 C
ATOM     51  H8  UNL     1      56.600   3.705  39.969  1.00  0.00     0.194 HD
HETATM   52  O7  UNL     1      58.778   3.639  41.793  1.00  0.00    -0.289 OA
BRANCH  49  53
HETATM   53  O6  UNL     1      55.152   5.189  39.926  1.00  0.00    -0.290 OA
ATOM     54  H6  UNL     1      55.019   5.191  38.985  1.00  0.00     0.244 HD
ENDBRANCH  49  53
ENDBRANCH  42  43
ENDBRANCH   4  42
TORSDOF 17
ENDMDL