MODEL 4
REMARK VINA RESULT: -7.483852188      2.939      4.741
REMARK  14 active torsions:
REMARK  status: ('A' for Active; 'I' for Inactive)
REMARK    1  A    between atoms: C1_2  and  C2_7
REMARK    2  A    between atoms: N2_3  and  O1_5
REMARK    3  A    between atoms: C4_11  and  N4_12
REMARK    4  A    between atoms: C5_15  and  N6_16
REMARK    5  A    between atoms: N6_16  and  C6_18
REMARK    6  A    between atoms: C6_18  and  O2_19
REMARK    7  A    between atoms: C6_18  and  C7_21
REMARK    8  A    between atoms: C12_33  and  C13_34
REMARK       I    between atoms: C13_34  and  N10_36
REMARK    9  A    between atoms: N10_36  and  C14_38
REMARK   10  A    between atoms: C14_38  and  C15_39
REMARK   11  A    between atoms: C14_38  and  C16_42
REMARK   12  A    between atoms: C15_39  and  O6_40
REMARK   13  A    between atoms: C16_42  and  O7_43
REMARK   14  A    between atoms: C16_42  and  O8_45
ROOT
HETATM    1  N4  UNL     1      59.673   3.740  46.160  1.00  0.00    -0.232 N
HETATM    2  N5  UNL     1      60.851   4.222  46.563  1.00  0.00    -0.277 N
ATOM      3  H5  UNL     1      61.294   5.046  46.157  1.00  0.00     0.189 HD
HETATM    4  C5  UNL     1      61.384   3.511  47.553  1.00  0.00     0.120 A
HETATM    5  C11 UNL     1      60.487   2.503  47.801  1.00  0.00     0.087 A
HETATM    6  C12 UNL     1      59.420   2.671  46.910  1.00  0.00     0.129 A
ENDROOT
BRANCH   4   7
HETATM    7  N6  UNL     1      62.641   3.742  48.228  1.00  0.00    -0.345 N
ATOM      8  H6  UNL     1      62.800   3.395  49.175  1.00  0.00     0.164 HD
BRANCH   7   9
HETATM    9  C6  UNL     1      63.659   4.470  47.531  1.00  0.00     0.262 C
BRANCH   9  10
HETATM   10  O2  UNL     1      63.737   3.948  46.240  1.00  0.00    -0.372 OA
ATOM     11  H2  UNL     1      63.649   3.005  46.308  1.00  0.00     0.212 HD
ENDBRANCH   9  10
BRANCH   9  12
HETATM   12  C7  UNL     1      64.935   4.484  48.253  1.00  0.00     0.099 A
HETATM   13  C8  UNL     1      65.460   5.648  48.724  1.00  0.00     0.136 A
HETATM   14  N7  UNL     1      64.827   6.926  48.521  1.00  0.00    -0.082 NA
HETATM   15  N8  UNL     1      66.617   5.651  49.395  1.00  0.00    -0.296 N
HETATM   16  C9  UNL     1      67.240   4.478  49.588  1.00  0.00     0.328 A
ATOM     17  H8  UNL     1      67.014   6.521  49.751  1.00  0.00     0.171 HD
HETATM   18  O3  UNL     1      68.334   4.501  50.226  1.00  0.00    -0.247 OA
HETATM   19  N9  UNL     1      66.750   3.321  49.138  1.00  0.00    -0.275 N
HETATM   20  C10 UNL     1      65.591   3.297  48.463  1.00  0.00     0.263 A
ATOM     21  H9  UNL     1      67.258   2.453  49.308  1.00  0.00     0.173 HD
HETATM   22  O4  UNL     1      65.140   2.195  48.044  1.00  0.00    -0.267 OA
ENDBRANCH   9  12
ENDBRANCH   7   9
ENDBRANCH   4   7
BRANCH   1  23
HETATM   23  C4  UNL     1      58.897   4.340  45.097  1.00  0.00     0.144 A
HETATM   24  C3  UNL     1      59.370   5.418  44.373  1.00  0.00     0.139 A
HETATM   25  N3  UNL     1      58.579   5.880  43.388  1.00  0.00    -0.357 N
HETATM   26  C2  UNL     1      57.380   5.343  43.093  1.00  0.00     0.117 A
ATOM     27  H3  UNL     1      58.904   6.675  42.838  1.00  0.00     0.165 HD
HETATM   28  C17 UNL     1      56.908   4.253  43.831  1.00  0.00     0.148 A
HETATM   29  N11 UNL     1      57.700   3.793  44.816  1.00  0.00    -0.326 N
HETATM   30  N12 UNL     1      55.647   3.694  43.517  1.00  0.00    -0.080 NA
ATOM     31  H11 UNL     1      57.381   2.999  45.370  1.00  0.00     0.168 HD
BRANCH  26  32
HETATM   32  C1  UNL     1      56.536   5.853  42.026  1.00  0.00     0.166 C
HETATM   33  N1  UNL     1      55.743   7.012  42.193  1.00  0.00    -0.078 NA
HETATM   34  N2  UNL     1      56.521   5.225  40.906  1.00  0.00    -0.253 N
ATOM     35  H2  UNL     1      57.108   4.395  40.829  1.00  0.00     0.195 HD
BRANCH  34  36
HETATM   36  O1  UNL     1      55.791   5.571  39.817  1.00  0.00    -0.288 OA
ATOM     37  H1  UNL     1      54.843   5.615  39.777  1.00  0.00     0.244 HD
ENDBRANCH  34  36
ENDBRANCH  26  32
ENDBRANCH   1  23
BRANCH   6  38
HETATM   38  C13 UNL     1      58.283   1.771  46.898  1.00  0.00     0.271 C
HETATM   39  O5  UNL     1      58.223   0.908  45.947  1.00  0.00    -0.266 OA
HETATM   40  N10 UNL     1      57.214   1.718  47.807  1.00  0.00    -0.344 N
ATOM     41  H10 UNL     1      57.168   2.361  48.597  1.00  0.00     0.163 HD
BRANCH  40  42
HETATM   42  C14 UNL     1      56.155   0.705  47.591  1.00  0.00     0.163 C
BRANCH  42  43
HETATM   43  C15 UNL     1      55.836   0.093  48.951  1.00  0.00     0.194 C
BRANCH  43  44
HETATM   44  O6  UNL     1      55.409   1.148  49.762  1.00  0.00    -0.399 OA
ATOM     45  H6  UNL     1      55.169   0.760  50.596  1.00  0.00     0.209 HD
ENDBRANCH  43  44
ENDBRANCH  42  43
BRANCH  42  46
HETATM   46  C16 UNL     1      54.972   1.449  47.038  1.00  0.00     0.278 C
BRANCH  46  47
HETATM   47  O7  UNL     1      55.156   1.755  45.699  1.00  0.00    -0.369 OA
ATOM     48  H7  UNL     1      55.190   2.694  45.564  1.00  0.00     0.212 HD
ENDBRANCH  46  47
BRANCH  46  49
HETATM   49  O8  UNL     1      53.861   0.604  47.166  1.00  0.00    -0.369 OA
ATOM     50  H8  UNL     1      53.641   0.303  46.293  1.00  0.00     0.212 HD
ENDBRANCH  46  49
ENDBRANCH  42  46
ENDBRANCH  40  42
ENDBRANCH   6  38
TORSDOF 14
ENDMDL