MODEL 4
REMARK VINA RESULT: -7.247271735      3.320      4.803
REMARK  15 active torsions:
REMARK  status: ('A' for Active; 'I' for Inactive)
REMARK    1  A    between atoms: C2_2  and  C3_4
REMARK    2  A    between atoms: C3_4  and  O2_5
REMARK    3  A    between atoms: C3_4  and  C4_7
REMARK    4  A    between atoms: C4_7  and  O3_8
REMARK    5  A    between atoms: C4_7  and  C5_10
REMARK    6  A    between atoms: C5_10  and  O4_11
REMARK    7  A    between atoms: C5_10  and  N1_13
REMARK    8  A    between atoms: N1_13  and  C6_15
REMARK    9  A    between atoms: C8_18  and  C9_19
REMARK   10  A    between atoms: C9_19  and  N2_20
REMARK   11  A    between atoms: C10_21  and  N3_22
REMARK   12  A    between atoms: N3_22  and  C11_24
REMARK   13  A    between atoms: C13_28  and  O6_29
REMARK   14  A    between atoms: C16_43  and  N10_44
REMARK   15  A    between atoms: C18_50  and  O7_51
ROOT
HETATM    1  N2  UNL     1      58.613   1.751  50.180  1.00  0.00    -0.003 N
HETATM    2  C10 UNL     1      58.518   2.101  51.461  1.00  0.00     0.730 A
HETATM    3  N6  UNL     1      59.617   1.559  52.073  1.00  0.00    -0.095 N
ATOM      4  H6  UNL     1      59.841   1.648  53.064  1.00  0.00     0.207 HD
HETATM    5  N7  UNL     1      60.340   0.905  51.190  1.00  0.00     0.106 N
HETATM    6  C15 UNL     1      61.508   0.202  51.300  1.00  0.00     0.727 A
HETATM    7  N8  UNL     1      62.095   0.099  52.452  1.00  0.00    -0.232 N
ATOM      8  H81 UNL     1      62.966  -0.425  52.535  1.00  0.00     0.174 HD
ATOM      9  H82 UNL     1      61.714   0.532  53.293  1.00  0.00     0.174 HD
HETATM   10  N9  UNL     1      62.006  -0.363  50.202  1.00  0.00    -0.020 N
ATOM     11  H9  UNL     1      62.876  -0.890  50.277  1.00  0.00     0.203 HD
HETATM   12  C16 UNL     1      61.409  -0.267  48.993  1.00  0.00     0.705 A
HETATM   13  N11 UNL     1      60.265   0.421  48.882  1.00  0.00    -0.019 N
ATOM     14  H11 UNL     1      59.792   0.510  47.983  1.00  0.00     0.203 HD
HETATM   15  C17 UNL     1      59.759   0.992  49.991  1.00  0.00     0.750 A
ENDROOT
BRANCH   1  16
HETATM   16  C9  UNL     1      57.760   2.097  49.080  1.00  0.00     0.235 C
BRANCH  16  17
HETATM   17  C8  UNL     1      58.458   2.802  47.982  1.00  0.00     0.109 A
HETATM   18  O5  UNL     1      58.693   2.124  46.840  1.00  0.00    -0.320 OA
HETATM   19  C7  UNL     1      59.298   2.628  45.809  1.00  0.00     0.175 A
HETATM   20  C6  UNL     1      59.763   3.921  45.782  1.00  0.00     0.106 A
HETATM   21  C19 UNL     1      59.552   4.663  46.919  1.00  0.00     0.235 A
HETATM   22  C18 UNL     1      58.893   4.098  48.027  1.00  0.00     0.150 A
HETATM   23  O8  UNL     1      59.960   5.846  46.937  1.00  0.00    -0.283 OA
BRANCH  20  24
HETATM   24  N1  UNL     1      60.463   4.454  44.656  1.00  0.00    -0.357 N
ATOM     25  H1  UNL     1      61.480   4.499  44.727  1.00  0.00     0.162 HD
BRANCH  24  26
HETATM   26  C5  UNL     1      59.884   4.927  43.445  1.00  0.00     0.250 C
BRANCH  26  27
HETATM   27  C4  UNL     1      58.468   5.356  43.634  1.00  0.00     0.202 C
BRANCH  27  28
HETATM   28  C3  UNL     1      57.463   4.497  42.910  1.00  0.00     0.220 C
BRANCH  28  29
HETATM   29  C2  UNL     1      56.751   5.116  41.798  1.00  0.00     0.154 C
HETATM   30  C1  UNL     1      56.974   4.887  40.349  1.00  0.00     0.093 C
HETATM   31  O1  UNL     1      55.847   5.938  42.047  1.00  0.00    -0.295 OA
ENDBRANCH  28  29
BRANCH  28  32
HETATM   32  O2  UNL     1      58.098   3.335  42.416  1.00  0.00    -0.385 OA
ATOM     33  H2  UNL     1      58.273   2.768  43.157  1.00  0.00     0.210 HD
ENDBRANCH  28  32
ENDBRANCH  27  28
BRANCH  27  34
HETATM   34  O3  UNL     1      58.214   6.690  43.526  1.00  0.00    -0.388 OA
ATOM     35  H3  UNL     1      58.976   7.198  43.274  1.00  0.00     0.210 HD
ENDBRANCH  27  34
ENDBRANCH  26  27
BRANCH  26  36
HETATM   36  O4  UNL     1      60.687   5.945  42.928  1.00  0.00    -0.374 OA
ATOM     37  H4  UNL     1      61.583   5.896  43.240  1.00  0.00     0.212 HD
ENDBRANCH  26  36
ENDBRANCH  24  26
ENDBRANCH  20  24
BRANCH  22  38
HETATM   38  O7  UNL     1      58.711   4.908  49.137  1.00  0.00    -0.355 OA
ATOM     39  H7  UNL     1      58.263   5.744  49.092  1.00  0.00     0.218 HD
ENDBRANCH  22  38
ENDBRANCH  16  17
ENDBRANCH   1  16
BRANCH   2  40
HETATM   40  N3  UNL     1      57.500   2.827  52.144  1.00  0.00    -0.021 N
ATOM     41  H3  UNL     1      56.562   2.434  52.219  1.00  0.00     0.203 HD
BRANCH  40  42
HETATM   42  C11 UNL     1      57.784   4.093  52.721  1.00  0.00     0.688 C
HETATM   43  N4  UNL     1      57.105   4.606  53.692  1.00  0.00    -0.223 N
HETATM   44  C12 UNL     1      57.379   5.894  54.293  1.00  0.00     0.171 C
ATOM     45  H4  UNL     1      56.322   4.067  54.061  1.00  0.00     0.177 HD
HETATM   46  C13 UNL     1      58.867   6.157  54.235  1.00  0.00     0.154 C
HETATM   47  C14 UNL     1      59.264   6.141  52.777  1.00  0.00     0.171 C
HETATM   48  N5  UNL     1      58.878   4.881  52.226  1.00  0.00    -0.223 N
ATOM     49  H5  UNL     1      59.411   4.520  51.435  1.00  0.00     0.177 HD
BRANCH  46  50
HETATM   50  O6  UNL     1      59.206   7.357  54.853  1.00  0.00    -0.392 OA
ATOM     51  H6  UNL     1      59.803   7.871  54.323  1.00  0.00     0.210 HD
ENDBRANCH  46  50
ENDBRANCH  40  42
ENDBRANCH   2  40
BRANCH  12  52
HETATM   52  N10 UNL     1      61.922  -0.830  47.937  1.00  0.00    -0.234 N
ATOM     53 2H10 UNL     1      61.415  -1.583  47.474  1.00  0.00     0.174 HD
ATOM     54 1H10 UNL     1      62.823  -0.533  47.562  1.00  0.00     0.174 HD
ENDBRANCH  12  52
TORSDOF 15
ENDMDL