MODEL 1
REMARK VINA RESULT: -6.696146294      0.000      0.000
REMARK  15 active torsions:
REMARK  status: ('A' for Active; 'I' for Inactive)
REMARK    1  A    between atoms: N1_1  and  C1_4
REMARK    2  A    between atoms: C2_7  and  C3_8
REMARK    3  A    between atoms: N4_13  and  C4_14
REMARK    4  A    between atoms: C5_16  and  C6_17
REMARK    5  A    between atoms: C6_17  and  O4_18
REMARK    6  A    between atoms: O4_18  and  C7_19
REMARK    7  A    between atoms: C8_23  and  O5_24
REMARK    8  A    between atoms: O5_24  and  C9_25
REMARK    9  A    between atoms: C10_26  and  N6_27
REMARK   10  A    between atoms: C12_32  and  N7_33
REMARK   11  A    between atoms: C13_37  and  O6_38
REMARK   12  A    between atoms: C14_40  and  N8_41
REMARK   13  A    between atoms: C15_45  and  N9_46
REMARK   14  A    between atoms: C17_51  and  N10_52
REMARK   15  A    between atoms: C18_57  and  O8_58
ROOT
HETATM    1  C7  UNL     1      59.266   1.876  47.674  1.00  0.00     0.354 C
HETATM    2  N5  UNL     1      59.455   1.829  46.261  1.00  0.00    -0.018 N
ATOM      3  H51 UNL     1      59.316   0.895  45.876  1.00  0.00     0.283 HD
ATOM      4  H52 UNL     1      60.432   1.945  45.991  1.00  0.00     0.283 HD
HETATM    5  C8  UNL     1      58.577   2.830  45.649  1.00  0.00     0.355 C
HETATM    6  C15 UNL     1      59.355   4.109  45.860  1.00  0.00     0.241 C
HETATM    7  C16 UNL     1      59.358   4.375  47.349  1.00  0.00     0.074 C
HETATM    8  C17 UNL     1      58.936   3.244  48.202  1.00  0.00     0.241 C
ENDROOT
BRANCH   1   9
HETATM    9  O4  UNL     1      60.304   1.284  48.388  1.00  0.00    -0.353 OA
BRANCH   9  10
HETATM   10  C6  UNL     1      61.269   0.773  47.562  1.00  0.00     0.231 C
BRANCH  10  11
HETATM   11  C5  UNL     1      62.636   1.288  47.856  1.00  0.00     0.289 C
HETATM   12  O3  UNL     1      62.693   2.292  48.803  1.00  0.00    -0.327 OA
HETATM   13  C4  UNL     1      62.821   3.484  48.170  1.00  0.00     0.320 C
HETATM   14  C18 UNL     1      62.869   3.144  46.710  1.00  0.00     0.311 C
HETATM   15  O7  UNL     1      63.176   1.810  46.684  1.00  0.00    -0.325 OA
BRANCH  13  16
HETATM   16  N4  UNL     1      64.036   4.225  48.482  1.00  0.00    -0.087 N
HETATM   17  C1  UNL     1      65.286   3.842  48.680  1.00  0.00     0.697 A
HETATM   18  N2  UNL     1      66.008   4.975  48.939  1.00  0.00    -0.167 N
HETATM   19  C2  UNL     1      65.204   6.050  48.900  1.00  0.00     0.213 A
ATOM     20  H2  UNL     1      67.010   4.999  49.134  1.00  0.00     0.186 HD
HETATM   21  N3  UNL     1      63.988   5.557  48.615  1.00  0.00    -0.260 N
ATOM     22  H3  UNL     1      63.143   6.120  48.514  1.00  0.00     0.189 HD
BRANCH  17  23
HETATM   23  N1  UNL     1      65.740   2.649  48.641  1.00  0.00    -0.233 N
ATOM     24  H12 UNL     1      66.470   2.250  49.232  1.00  0.00     0.174 HD
ATOM     25  H11 UNL     1      65.439   1.909  48.006  1.00  0.00     0.174 HD
ENDBRANCH  17  23
BRANCH  19  26
HETATM   26  C3  UNL     1      65.570   7.443  49.118  1.00  0.00     0.247 C
HETATM   27  O1  UNL     1      64.738   8.359  48.954  1.00  0.00    -0.642 OA
HETATM   28  O2  UNL     1      66.851   7.763  49.511  1.00  0.00    -0.642 OA
ENDBRANCH  19  26
ENDBRANCH  13  16
BRANCH  14  29
HETATM   29  O8  UNL     1      63.922   3.812  46.057  1.00  0.00    -0.367 OA
ATOM     30  H8  UNL     1      63.599   4.487  45.472  1.00  0.00     0.212 HD
ENDBRANCH  14  29
ENDBRANCH  10  11
ENDBRANCH   9  10
ENDBRANCH   1   9
BRANCH   8  31
HETATM   31  N10 UNL     1      59.640   3.376  49.488  1.00  0.00    -0.071 N
ATOM     32 3H10 UNL     1      60.043   2.500  49.820  1.00  0.00     0.274 HD
ATOM     33 2H10 UNL     1      60.513   3.899  49.419  1.00  0.00     0.274 HD
ATOM     34 1H10 UNL     1      58.974   3.787  50.142  1.00  0.00     0.274 HD
ENDBRANCH   8  31
BRANCH   5  35
HETATM   35  O5  UNL     1      58.327   2.615  44.339  1.00  0.00    -0.348 OA
BRANCH  35  36
HETATM   36  C9  UNL     1      57.219   1.876  43.994  1.00  0.00     0.187 C
HETATM   37  C10 UNL     1      57.564   1.298  42.593  1.00  0.00     0.216 C
HETATM   38  C11 UNL     1      58.120   2.467  41.855  1.00  0.00     0.070 C
HETATM   39  C12 UNL     1      57.260   3.666  41.777  1.00  0.00     0.216 C
HETATM   40  C13 UNL     1      56.216   3.853  42.824  1.00  0.00     0.181 C
HETATM   41  C14 UNL     1      55.977   2.665  43.700  1.00  0.00     0.244 C
BRANCH  37  42
HETATM   42  N6  UNL     1      58.455   0.200  42.646  1.00  0.00    -0.072 N
ATOM     43  H63 UNL     1      58.866   0.112  43.576  1.00  0.00     0.274 HD
ATOM     44  H62 UNL     1      57.945  -0.682  42.602  1.00  0.00     0.274 HD
ATOM     45  H61 UNL     1      59.180   0.236  41.930  1.00  0.00     0.274 HD
ENDBRANCH  37  42
BRANCH  39  46
HETATM   46  N7  UNL     1      56.678   3.718  40.425  1.00  0.00    -0.072 N
ATOM     47  H73 UNL     1      55.871   4.339  40.366  1.00  0.00     0.274 HD
ATOM     48  H72 UNL     1      57.274   4.204  39.756  1.00  0.00     0.274 HD
ATOM     49  H71 UNL     1      56.463   2.762  40.139  1.00  0.00     0.274 HD
ENDBRANCH  39  46
BRANCH  40  50
HETATM   50  O6  UNL     1      56.463   4.962  43.632  1.00  0.00    -0.391 OA
ATOM     51  H6  UNL     1      55.979   4.932  44.450  1.00  0.00     0.210 HD
ENDBRANCH  40  50
BRANCH  41  52
HETATM   52  N8  UNL     1      55.170   3.004  44.838  1.00  0.00    -0.070 N
ATOM     53  H83 UNL     1      54.183   2.886  44.611  1.00  0.00     0.274 HD
ATOM     54  H82 UNL     1      55.276   2.295  45.563  1.00  0.00     0.274 HD
ATOM     55  H81 UNL     1      55.328   3.931  45.231  1.00  0.00     0.274 HD
ENDBRANCH  41  52
ENDBRANCH  35  36
ENDBRANCH   5  35
BRANCH   6  56
HETATM   56  N9  UNL     1      58.953   5.219  45.084  1.00  0.00    -0.071 N
ATOM     57  H93 UNL     1      59.567   6.012  45.270  1.00  0.00     0.274 HD
ATOM     58  H92 UNL     1      59.166   5.048  44.101  1.00  0.00     0.274 HD
ATOM     59  H91 UNL     1      57.979   5.507  45.181  1.00  0.00     0.274 HD
ENDBRANCH   6  56
TORSDOF 15
ENDMDL