MODEL 4
REMARK VINA RESULT: -6.966688338      3.667     10.929
REMARK  16 active torsions:
REMARK  status: ('A' for Active; 'I' for Inactive)
REMARK    1  A    between atoms: C1_2  and  C2_4
REMARK    2  A    between atoms: N4_9  and  C3_10
REMARK    3  A    between atoms: C4_11  and  O2_12
REMARK    4  A    between atoms: C6_15  and  C7_16
REMARK    5  A    between atoms: C7_16  and  O3_17
REMARK    6  A    between atoms: C7_16  and  N5_19
REMARK    7  A    between atoms: N5_19  and  C8_22
REMARK    8  A    between atoms: C8_22  and  C9_23
REMARK    9  A    between atoms: C8_22  and  C14_41
REMARK   10  A    between atoms: C9_23  and  C10_24
REMARK   11  A    between atoms: C10_24  and  N6_25
REMARK   12  A    between atoms: N6_25  and  O4_26
REMARK       I    between atoms: N6_25  and  C11_28
REMARK       I    between atoms: C11_28  and  N7_30
REMARK   13  A    between atoms: C12_31  and  N8_32
REMARK   14  A    between atoms: C13_36  and  N9_37
REMARK   15  A    between atoms: C17_48  and  O8_49
REMARK   16  A    between atoms: C18_51  and  O9_52
ROOT
HETATM    1  C7  UNL     1      65.347   3.556  49.726  1.00  0.00     0.358 C
ENDROOT
BRANCH   1   2
HETATM    2  C6  UNL     1      63.952   3.556  49.290  1.00  0.00     0.052 C
HETATM    3  C5  UNL     1      63.753   4.009  48.002  1.00  0.00     0.054 C
HETATM    4  C4  UNL     1      62.729   3.707  47.100  1.00  0.00     0.098 C
HETATM    5  C3  UNL     1      61.471   3.270  47.478  1.00  0.00     0.128 C
HETATM    6  C17 UNL     1      61.001   2.778  48.695  1.00  0.00     0.126 C
HETATM    7  C16 UNL     1      61.739   2.603  49.836  1.00  0.00     0.132 C
HETATM    8  C15 UNL     1      62.984   3.116  50.165  1.00  0.00     0.209 C
HETATM    9  N11 UNL     1      61.155   1.774  50.845  1.00  0.00    -0.095 NA
HETATM   10  O7  UNL     1      63.274   3.194  51.408  1.00  0.00    -0.286 OA
BRANCH   4  11
HETATM   11  O2  UNL     1      62.987   3.851  45.745  1.00  0.00    -0.358 OA
ATOM     12  H2  UNL     1      63.691   4.434  45.485  1.00  0.00     0.217 HD
ENDBRANCH   4  11
BRANCH   5  13
HETATM   13  N4  UNL     1      60.473   3.328  46.460  1.00  0.00    -0.212 N
HETATM   14  N3  UNL     1      60.038   2.351  45.690  1.00  0.00    -0.233 N
HETATM   15  N2  UNL     1      59.106   2.770  44.856  1.00  0.00    -0.277 N
ATOM     16  H3  UNL     1      60.380   1.391  45.734  1.00  0.00     0.209 HD
HETATM   17  C2  UNL     1      58.917   4.082  45.086  1.00  0.00     0.167 A
ATOM     18  H2  UNL     1      58.617   2.203  44.164  1.00  0.00     0.189 HD
HETATM   19  C18 UNL     1      59.794   4.429  46.110  1.00  0.00     0.197 A
BRANCH  17  20
HETATM   20  C1  UNL     1      57.978   4.965  44.397  1.00  0.00     0.287 C
HETATM   21  N1  UNL     1      56.656   4.593  44.074  1.00  0.00    -0.056 NA
HETATM   22  O1  UNL     1      58.374   6.111  44.081  1.00  0.00    -0.269 OA
ENDBRANCH  17  20
BRANCH  19  23
HETATM   23  O9  UNL     1      59.867   5.724  46.606  1.00  0.00    -0.343 OA
ATOM     24  H9  UNL     1      60.551   6.326  46.338  1.00  0.00     0.219 HD
ENDBRANCH  19  23
ENDBRANCH   5  13
BRANCH   6  25
HETATM   25  O8  UNL     1      59.659   2.434  48.746  1.00  0.00    -0.356 OA
ATOM     26  H8  UNL     1      59.215   2.583  49.573  1.00  0.00     0.218 HD
ENDBRANCH   6  25
ENDBRANCH   1   2
BRANCH   1  27
HETATM   27  O3  UNL     1      65.845   2.298  50.059  1.00  0.00    -0.366 OA
ATOM     28  H3  UNL     1      66.638   2.316  50.581  1.00  0.00     0.212 HD
ENDBRANCH   1  27
BRANCH   1  29
HETATM   29  N5  UNL     1      66.260   4.289  48.892  1.00  0.00    -0.032 N
ATOM     30  H52 UNL     1      66.951   3.694  48.435  1.00  0.00     0.281 HD
ATOM     31  H51 UNL     1      65.823   4.656  48.047  1.00  0.00     0.281 HD
BRANCH  29  32
HETATM   32  C8  UNL     1      66.863   5.335  49.730  1.00  0.00     0.279 C
BRANCH  32  33
HETATM   33  C9  UNL     1      68.372   5.227  49.764  1.00  0.00     0.065 C
BRANCH  33  34
HETATM   34  C10 UNL     1      68.820   3.822  50.108  1.00  0.00     0.163 C
BRANCH  34  35
HETATM   35  N6  UNL     1      69.697   3.303  49.084  1.00  0.00    -0.210 N
HETATM   36  C11 UNL     1      69.289   2.385  48.095  1.00  0.00     0.347 C
HETATM   37  O5  UNL     1      68.102   1.981  48.086  1.00  0.00    -0.245 OA
HETATM   38  N7  UNL     1      70.168   1.890  47.096  1.00  0.00    -0.268 N
HETATM   39  C12 UNL     1      71.550   1.905  46.528  1.00  0.00     0.340 A
HETATM   40  C13 UNL     1      70.453   1.056  45.917  1.00  0.00     0.340 A
BRANCH  35  41
HETATM   41  O4  UNL     1      70.992   3.733  49.087  1.00  0.00    -0.283 OA
ATOM     42  H4  UNL     1      71.447   3.759  48.253  1.00  0.00     0.245 HD
ENDBRANCH  35  41
BRANCH  39  43
HETATM   43  N8  UNL     1      71.930   3.116  45.811  1.00  0.00    -0.054 N
ATOM     44  H83 UNL     1      72.893   3.039  45.485  1.00  0.00     0.276 HD
ATOM     45  H82 UNL     1      71.438   3.160  44.920  1.00  0.00     0.276 HD
ATOM     46  H81 UNL     1      71.805   3.991  46.320  1.00  0.00     0.276 HD
ENDBRANCH  39  43
BRANCH  40  47
HETATM   47  N9  UNL     1      70.636  -0.372  46.130  1.00  0.00    -0.054 N
ATOM     48  H93 UNL     1      71.573  -0.640  45.828  1.00  0.00     0.276 HD
ATOM     49  H92 UNL     1      70.698  -0.558  47.131  1.00  0.00     0.276 HD
ATOM     50  H91 UNL     1      69.954  -1.004  45.711  1.00  0.00     0.276 HD
ENDBRANCH  40  47
ENDBRANCH  34  35
ENDBRANCH  33  34
ENDBRANCH  32  33
BRANCH  32  51
HETATM   51  C14 UNL     1      66.457   6.693  49.227  1.00  0.00     0.262 C
HETATM   52  N10 UNL     1      67.196   7.837  49.617  1.00  0.00    -0.060 NA
HETATM   53  O6  UNL     1      65.476   6.868  48.463  1.00  0.00    -0.275 OA
ENDBRANCH  32  51
ENDBRANCH  29  32
ENDBRANCH   1  29
TORSDOF 16
ENDMDL