MODEL 3
REMARK VINA RESULT: -6.214336328      2.070      3.018
REMARK  18 active torsions:
REMARK  status: ('A' for Active; 'I' for Inactive)
REMARK    1  A    between atoms: C2_2  and  S1_6
REMARK    2  A    between atoms: S1_6  and  C3_7
REMARK    3  A    between atoms: C3_7  and  C4_8
REMARK    4  A    between atoms: C5_10  and  C6_11
REMARK    5  A    between atoms: C6_11  and  O2_12
REMARK    6  A    between atoms: C7_14  and  O3_15
REMARK    7  A    between atoms: C8_17  and  O4_18
REMARK    8  A    between atoms: O4_18  and  C9_19
REMARK    9  A    between atoms: C10_21  and  N2_22
REMARK   10  A    between atoms: N2_22  and  O6_23
REMARK   11  A    between atoms: C11_28  and  N4_29
REMARK   12  A    between atoms: N4_29  and  C12_31
REMARK   13  A    between atoms: C14_33  and  N5_34
REMARK   14  A    between atoms: C15_38  and  O7_39
REMARK   15  A    between atoms: C16_41  and  O8_42
REMARK   16  A    between atoms: C17_44  and  C18_45
REMARK   17  A    between atoms: C18_45  and  O9_46
REMARK   18  A    between atoms: C19_48  and  O10_49
ROOT
HETATM    1  C9  UNL     1      58.619   4.185  44.906  1.00  0.00     0.314 C
HETATM    2  O5  UNL     1      59.109   5.466  44.877  1.00  0.00    -0.311 OA
HETATM    3  C10 UNL     1      58.683   5.996  43.679  1.00  0.00     0.449 C
HETATM    4  N3  UNL     1      57.363   5.464  43.497  1.00  0.00    -0.007 N
ATOM      5  H31 UNL     1      56.965   5.611  42.569  1.00  0.00     0.284 HD
ATOM      6  H32 UNL     1      56.626   5.959  43.999  1.00  0.00     0.284 HD
HETATM    7  C11 UNL     1      57.540   4.025  43.890  1.00  0.00     0.340 C
ENDROOT
BRANCH   1   8
HETATM    8  O4  UNL     1      59.683   3.303  44.512  1.00  0.00    -0.347 OA
BRANCH   8   9
HETATM    9  C8  UNL     1      60.125   2.442  45.474  1.00  0.00     0.187 C
HETATM   10  C7  UNL     1      61.614   2.733  45.656  1.00  0.00     0.180 C
HETATM   11  C5  UNL     1      61.908   2.818  47.134  1.00  0.00     0.176 C
HETATM   12  O1  UNL     1      61.114   3.855  47.597  1.00  0.00    -0.372 OA
HETATM   13  C4  UNL     1      59.833   3.405  47.809  1.00  0.00     0.163 C
HETATM   14  C19 UNL     1      59.375   2.437  46.740  1.00  0.00     0.179 C
BRANCH  10  15
HETATM   15  O3  UNL     1      61.894   4.038  45.181  1.00  0.00    -0.390 OA
ATOM     16  H3  UNL     1      61.168   4.227  44.598  1.00  0.00     0.210 HD
ENDBRANCH  10  15
BRANCH  11  17
HETATM   17  C6  UNL     1      63.356   3.284  47.351  1.00  0.00     0.198 C
BRANCH  17  18
HETATM   18  O2  UNL     1      64.107   2.733  46.290  1.00  0.00    -0.398 OA
ATOM     19  H2  UNL     1      64.918   2.423  46.675  1.00  0.00     0.209 HD
ENDBRANCH  17  18
ENDBRANCH  11  17
BRANCH  13  20
HETATM   20  C3  UNL     1      59.846   2.788  49.201  1.00  0.00     0.115 C
BRANCH  20  21
HETATM   21  S1  UNL     1      58.467   3.230  50.229  1.00  0.00    -0.115 SA
BRANCH  21  22
HETATM   22  C2  UNL     1      57.291   1.851  50.235  1.00  0.00     0.036 C
HETATM   23  C1  UNL     1      56.896   1.170  51.479  1.00  0.00     0.076 C
HETATM   24  N1  UNL     1      56.824   1.546  49.085  1.00  0.00    -0.397 N
ATOM     25  H12 UNL     1      56.162   0.770  49.088  1.00  0.00     0.156 HD
ATOM     26  H11 UNL     1      57.098   2.018  48.223  1.00  0.00     0.156 HD
ENDBRANCH  21  22
ENDBRANCH  20  21
ENDBRANCH  13  20
BRANCH  14  27
HETATM   27  O10 UNL     1      59.306   1.166  47.327  1.00  0.00    -0.390 OA
ATOM     28  H10 UNL     1      58.489   1.121  47.812  1.00  0.00     0.210 HD
ENDBRANCH  14  27
ENDBRANCH   8   9
ENDBRANCH   1   8
BRANCH   7  29
HETATM   29  N4  UNL     1      56.265   3.539  44.251  1.00  0.00    -0.387 N
ATOM     30  H4  UNL     1      55.855   3.748  45.161  1.00  0.00     0.155 HD
BRANCH  29  31
HETATM   31  C12 UNL     1      55.565   2.731  43.277  1.00  0.00     0.089 C
HETATM   32  C13 UNL     1      54.137   3.004  43.023  1.00  0.00     0.060 C
HETATM   33  C14 UNL     1      53.563   2.029  42.014  1.00  0.00     0.216 C
HETATM   34  C15 UNL     1      54.290   0.717  41.936  1.00  0.00     0.177 C
HETATM   35  C16 UNL     1      54.836   0.295  43.285  1.00  0.00     0.157 C
HETATM   36  C17 UNL     1      55.676   1.315  43.913  1.00  0.00     0.063 C
BRANCH  33  37
HETATM   37  N5  UNL     1      52.151   1.799  42.264  1.00  0.00    -0.072 N
ATOM     38  H53 UNL     1      51.926   0.804  42.277  1.00  0.00     0.274 HD
ATOM     39  H52 UNL     1      51.896   2.027  43.226  1.00  0.00     0.274 HD
ATOM     40  H51 UNL     1      51.577   2.307  41.591  1.00  0.00     0.274 HD
ENDBRANCH  33  37
BRANCH  34  41
HETATM   41  O7  UNL     1      55.253   0.656  40.945  1.00  0.00    -0.391 OA
ATOM     42  H7  UNL     1      54.910   0.486  40.076  1.00  0.00     0.210 HD
ENDBRANCH  34  41
BRANCH  35  43
HETATM   43  O8  UNL     1      53.745  -0.100  44.091  1.00  0.00    -0.392 OA
ATOM     44  H8  UNL     1      53.960  -0.938  44.483  1.00  0.00     0.210 HD
ENDBRANCH  35  43
BRANCH  36  45
HETATM   45  C18 UNL     1      55.309   1.478  45.389  1.00  0.00     0.173 C
BRANCH  45  46
HETATM   46  O9  UNL     1      56.387   1.119  46.157  1.00  0.00    -0.400 OA
ATOM     47  H9  UNL     1      56.541   1.795  46.807  1.00  0.00     0.209 HD
ENDBRANCH  45  46
ENDBRANCH  36  45
ENDBRANCH  29  31
ENDBRANCH   7  29
BRANCH   3  48
HETATM   48  N2  UNL     1      59.519   5.463  42.607  1.00  0.00    -0.041 NA
BRANCH  48  49
HETATM   49  O6  UNL     1      60.828   5.836  42.830  1.00  0.00    -0.292 OA
ATOM     50  H6  UNL     1      61.390   5.081  42.708  1.00  0.00     0.238 HD
ENDBRANCH  48  49
ENDBRANCH   3  48
TORSDOF 18
ENDMDL