MODEL 5
REMARK VINA RESULT: -6.026927172      0.715      1.208
REMARK  17 active torsions:
REMARK  status: ('A' for Active; 'I' for Inactive)
REMARK    1  A    between atoms: N1_1  and  C1_5
REMARK    2  A    between atoms: C2_8  and  N4_9
REMARK    3  A    between atoms: C5_14  and  N6_15
REMARK       I    between atoms: N6_15  and  C6_17
REMARK    4  A    between atoms: C6_17  and  C7_19
REMARK    5  A    between atoms: C7_19  and  N7_20
REMARK    6  A    between atoms: C7_19  and  C8_24
REMARK    7  A    between atoms: C8_24  and  N8_25
REMARK    8  A    between atoms: C8_24  and  N9_29
REMARK       I    between atoms: N9_29  and  C9_31
REMARK    9  A    between atoms: C9_31  and  O3_33
REMARK   10  A    between atoms: O3_33  and  C10_34
REMARK   11  A    between atoms: C10_34  and  C11_35
REMARK   12  A    between atoms: C10_34  and  C12_38
REMARK   13  A    between atoms: C12_38  and  O6_39
REMARK   14  A    between atoms: C12_38  and  C13_41
REMARK   15  A    between atoms: C13_41  and  O7_42
REMARK   16  A    between atoms: C13_41  and  C14_44
REMARK   17  A    between atoms: C14_44  and  O8_45
ROOT
HETATM    1  C7  UNL     1      57.893  -0.117  45.940  1.00  0.00     0.324 C
ENDROOT
BRANCH   1   2
HETATM    2  C6  UNL     1      56.822   0.787  46.386  1.00  0.00     0.257 C
HETATM    3  N6  UNL     1      56.721   1.146  47.765  1.00  0.00    -0.309 N
ATOM      4  H6  UNL     1      56.085   0.642  48.383  1.00  0.00     0.170 HD
HETATM    5  O1  UNL     1      55.983   1.264  45.604  1.00  0.00    -0.271 OA
BRANCH   3   6
HETATM    6  C5  UNL     1      57.445   2.114  48.221  1.00  0.00     0.140 A
HETATM    7  C4  UNL     1      57.649   2.246  49.575  1.00  0.00     0.122 A
HETATM    8  N5  UNL     1      57.228   1.533  50.626  1.00  0.00    -0.346 N
HETATM    9  C16 UNL     1      58.418   3.267  50.122  1.00  0.00     0.142 A
HETATM   10  C3  UNL     1      57.711   2.082  51.757  1.00  0.00     0.188 A
ATOM     11  H5  UNL     1      56.635   0.704  50.579  1.00  0.00     0.167 HD
HETATM   12  N4  UNL     1      58.448   3.157  51.450  1.00  0.00    -0.298 N
HETATM   13  N11 UNL     1      58.960   4.132  49.246  1.00  0.00    -0.336 N
HETATM   14  C15 UNL     1      58.767   4.010  47.919  1.00  0.00     0.183 A
ATOM     15  H11 UNL     1      59.532   4.900  49.595  1.00  0.00     0.168 HD
HETATM   16  N10 UNL     1      58.022   3.022  47.394  1.00  0.00    -0.337 N
ATOM     17  H10 UNL     1      57.892   2.955  46.384  1.00  0.00     0.168 HD
BRANCH  12  18
HETATM   18  C2  UNL     1      59.122   3.998  52.387  1.00  0.00     0.267 C
HETATM   19  N3  UNL     1      59.170   5.374  51.857  1.00  0.00    -0.108 NA
HETATM   20  N2  UNL     1      59.380   6.219  52.927  1.00  0.00    -0.101 NA
HETATM   21  C1  UNL     1      58.176   6.150  53.774  1.00  0.00     0.356 C
HETATM   22  S1  UNL     1      58.024   4.314  53.833  1.00  0.00    -0.075 SA
BRANCH  21  23
HETATM   23  N1  UNL     1      58.459   6.687  55.067  1.00  0.00    -0.051 N
ATOM     24  H13 UNL     1      59.353   6.357  55.431  1.00  0.00     0.277 HD
ATOM     25  H12 UNL     1      58.672   7.684  55.030  1.00  0.00     0.277 HD
ATOM     26  H11 UNL     1      57.689   6.483  55.705  1.00  0.00     0.277 HD
ENDBRANCH  21  23
ENDBRANCH  12  18
ENDBRANCH   3   6
ENDBRANCH   1   2
BRANCH   1  27
HETATM   27  N7  UNL     1      57.418  -1.492  45.993  1.00  0.00    -0.063 N
ATOM     28  H73 UNL     1      57.835  -2.015  46.764  1.00  0.00     0.275 HD
ATOM     29  H72 UNL     1      56.443  -1.552  46.287  1.00  0.00     0.275 HD
ATOM     30  H71 UNL     1      57.578  -1.941  45.092  1.00  0.00     0.275 HD
ENDBRANCH   1  27
BRANCH   1  31
HETATM   31  C8  UNL     1      58.333   0.195  44.519  1.00  0.00     0.325 C
BRANCH  31  32
HETATM   32  N8  UNL     1      57.468  -0.464  43.581  1.00  0.00    -0.056 N
ATOM     33  H83 UNL     1      57.513  -0.037  42.655  1.00  0.00     0.276 HD
ATOM     34  H82 UNL     1      57.808  -1.393  43.333  1.00  0.00     0.276 HD
ATOM     35  H81 UNL     1      56.515  -0.490  43.943  1.00  0.00     0.276 HD
ENDBRANCH  31  32
BRANCH  31  36
HETATM   36  N9  UNL     1      58.410   1.596  44.244  1.00  0.00    -0.307 N
HETATM   37  C9  UNL     1      59.069   2.085  43.051  1.00  0.00     0.363 C
HETATM   38  O2  UNL     1      59.576   1.279  42.250  1.00  0.00    -0.238 OA
ATOM     39  H9  UNL     1      57.995   2.261  44.898  1.00  0.00     0.167 HD
BRANCH  37  40
HETATM   40  O3  UNL     1      59.137   3.429  42.800  1.00  0.00    -0.285 OA
BRANCH  40  41
HETATM   41  C10 UNL     1      58.697   4.370  43.766  1.00  0.00     0.265 C
BRANCH  41  42
HETATM   42  C11 UNL     1      59.754   5.385  43.979  1.00  0.00     0.206 C
HETATM   43  O4  UNL     1      59.888   5.928  45.130  1.00  0.00    -0.646 OA
HETATM   44  O5  UNL     1      60.576   5.726  42.931  1.00  0.00    -0.646 OA
ENDBRANCH  41  42
BRANCH  41  45
HETATM   45  C12 UNL     1      57.402   4.960  43.309  1.00  0.00     0.189 C
BRANCH  45  46
HETATM   46  O6  UNL     1      56.361   4.606  44.142  1.00  0.00    -0.390 OA
ATOM     47  H6  UNL     1      55.522   4.869  43.783  1.00  0.00     0.210 HD
ENDBRANCH  45  46
BRANCH  45  48
HETATM   48  C13 UNL     1      57.086   4.715  41.863  1.00  0.00     0.173 C
BRANCH  48  49
HETATM   49  O7  UNL     1      58.099   5.202  41.035  1.00  0.00    -0.391 OA
ATOM     50  H7  UNL     1      58.824   4.590  40.982  1.00  0.00     0.210 HD
ENDBRANCH  48  49
BRANCH  48  51
HETATM   51  C14 UNL     1      55.831   5.500  41.459  1.00  0.00     0.198 C
BRANCH  51  52
HETATM   52  O8  UNL     1      55.759   6.699  42.127  1.00  0.00    -0.398 OA
ATOM     53  H8  UNL     1      54.975   7.179  41.887  1.00  0.00     0.209 HD
ENDBRANCH  51  52
ENDBRANCH  48  51
ENDBRANCH  45  48
ENDBRANCH  41  45
ENDBRANCH  40  41
ENDBRANCH  37  40
ENDBRANCH  31  36
ENDBRANCH   1  31
TORSDOF 17
ENDMDL