MODEL 3
REMARK VINA RESULT: -7.197049736      4.824      5.863
REMARK  20 active torsions:
REMARK  status: ('A' for Active; 'I' for Inactive)
REMARK    1  A    between atoms: C1_2  and  O2_4
REMARK    2  A    between atoms: O2_4  and  C2_5
REMARK    3  A    between atoms: C2_5  and  C3_7
REMARK    4  A    between atoms: C3_7  and  O4_8
REMARK    5  A    between atoms: C3_7  and  O5_10
REMARK    6  A    between atoms: C3_7  and  C4_12
REMARK    7  A    between atoms: C6_14  and  O6_15
REMARK    8  A    between atoms: C8_18  and  O7_19
REMARK    9  A    between atoms: C11_23  and  O8_24
REMARK   10  A    between atoms: C13_27  and  O9_28
REMARK   11  A    between atoms: C14_31  and  C15_32
REMARK   12  A    between atoms: C15_32  and  O11_33
REMARK   13  A    between atoms: C15_32  and  C16_35
REMARK   14  A    between atoms: C16_35  and  O12_36
REMARK   15  A    between atoms: C16_35  and  C17_38
REMARK   16  A    between atoms: C17_38  and  O13_39
REMARK   17  A    between atoms: C17_38  and  C18_41
REMARK   18  A    between atoms: C18_41  and  O14_42
REMARK   19  A    between atoms: C18_41  and  C19_44
REMARK   20  A    between atoms: C19_44  and  O15_45
ROOT
HETATM    1  C4  UNL     1      58.006   3.643  44.106  1.00  0.00     0.051 A
HETATM    2  C5  UNL     1      57.477   2.411  43.998  1.00  0.00     0.053 A
HETATM    3  C6  UNL     1      57.319   1.615  45.161  1.00  0.00     0.080 A
HETATM    4  C7  UNL     1      57.728   2.167  46.360  1.00  0.00     0.047 A
HETATM    5  C8  UNL     1      57.590   1.412  47.546  1.00  0.00     0.099 A
HETATM    6  C9  UNL     1      57.991   1.940  48.750  1.00  0.00     0.109 A
HETATM    7  C10 UNL     1      58.525   3.198  48.819  1.00  0.00     0.125 A
HETATM    8  C11 UNL     1      58.679   3.975  47.680  1.00  0.00     0.114 A
HETATM    9  C12 UNL     1      58.276   3.439  46.474  1.00  0.00     0.050 A
HETATM   10  C13 UNL     1      58.428   4.215  45.328  1.00  0.00     0.092 A
HETATM   11  O10 UNL     1      58.926   3.717  50.049  1.00  0.00    -0.313 OA
HETATM   12  C14 UNL     1      59.385   2.750  51.020  1.00  0.00     0.307 C
HETATM   13  O16 UNL     1      58.305   1.868  51.163  1.00  0.00    -0.282 OA
HETATM   14  C20 UNL     1      57.866   1.215  49.994  1.00  0.00     0.301 C
HETATM   15  O17 UNL     1      57.392   0.068  50.024  1.00  0.00    -0.259 OA
ENDROOT
BRANCH  12  16
HETATM   16  C15 UNL     1      59.782   3.465  52.286  1.00  0.00     0.205 C
BRANCH  16  17
HETATM   17  O11 UNL     1      59.842   2.363  53.248  1.00  0.00    -0.388 OA
ATOM     18  H11 UNL     1      60.643   2.559  53.719  1.00  0.00     0.210 HD
ENDBRANCH  16  17
BRANCH  16  19
HETATM   19  C16 UNL     1      58.739   4.362  52.842  1.00  0.00     0.183 C
BRANCH  19  20
HETATM   20  O12 UNL     1      57.424   3.966  52.565  1.00  0.00    -0.390 OA
ATOM     21  H12 UNL     1      57.106   4.224  51.708  1.00  0.00     0.210 HD
ENDBRANCH  19  20
BRANCH  19  22
HETATM   22  C17 UNL     1      58.934   4.956  54.172  1.00  0.00     0.180 C
BRANCH  22  23
HETATM   23  O13 UNL     1      60.408   4.961  54.318  1.00  0.00    -0.390 OA
ATOM     24  H13 UNL     1      60.527   5.029  55.258  1.00  0.00     0.210 HD
ENDBRANCH  22  23
BRANCH  22  25
HETATM   25  C18 UNL     1      58.607   6.450  54.251  1.00  0.00     0.173 C
BRANCH  25  26
HETATM   26  O14 UNL     1      57.187   6.466  53.913  1.00  0.00    -0.391 OA
ATOM     27  H14 UNL     1      57.032   7.391  53.760  1.00  0.00     0.210 HD
ENDBRANCH  25  26
BRANCH  25  28
HETATM   28  C19 UNL     1      59.218   7.300  53.187  1.00  0.00     0.198 C
BRANCH  28  29
HETATM   29  O15 UNL     1      59.680   8.535  53.573  1.00  0.00    -0.398 OA
ATOM     30  H15 UNL     1      59.174   9.288  53.289  1.00  0.00     0.209 HD
ENDBRANCH  28  29
ENDBRANCH  25  28
ENDBRANCH  22  25
ENDBRANCH  19  22
ENDBRANCH  16  19
ENDBRANCH  12  16
BRANCH   8  31
HETATM   31  O8  UNL     1      59.232   5.257  47.807  1.00  0.00    -0.357 OA
ATOM     32  H8  UNL     1      60.168   5.340  47.948  1.00  0.00     0.217 HD
ENDBRANCH   8  31
BRANCH   5  33
HETATM   33  O7  UNL     1      57.060   0.173  47.446  1.00  0.00    -0.359 OA
ATOM     34  H7  UNL     1      56.168   0.097  47.127  1.00  0.00     0.217 HD
ENDBRANCH   5  33
BRANCH  10  35
HETATM   35  O9  UNL     1      58.941   5.445  45.341  1.00  0.00    -0.359 OA
ATOM     36  H9  UNL     1      58.388   6.185  45.563  1.00  0.00     0.217 HD
ENDBRANCH  10  35
BRANCH   3  37
HETATM   37  O6  UNL     1      56.787   0.389  45.014  1.00  0.00    -0.360 OA
ATOM     38  H6  UNL     1      57.102  -0.301  45.585  1.00  0.00     0.217 HD
ENDBRANCH   3  37
BRANCH   1  39
HETATM   39  C3  UNL     1      58.207   4.528  42.924  1.00  0.00     0.284 C
BRANCH  39  40
HETATM   40  C2  UNL     1      57.289   5.675  42.891  1.00  0.00     0.335 C
HETATM   41  O3  UNL     1      57.624   6.836  43.285  1.00  0.00    -0.258 OA
BRANCH  40  42
HETATM   42  O2  UNL     1      55.987   5.480  42.405  1.00  0.00    -0.225 OA
BRANCH  42  43
HETATM   43  C1  UNL     1      55.570   6.116  41.259  1.00  0.00     0.380 C
HETATM   44  N1  UNL     1      56.094   5.863  39.973  1.00  0.00    -0.032 NA
HETATM   45  O1  UNL     1      54.655   6.990  41.357  1.00  0.00    -0.242 OA
ENDBRANCH  42  43
ENDBRANCH  40  42
ENDBRANCH  39  40
BRANCH  39  46
HETATM   46  O4  UNL     1      58.036   3.777  41.761  1.00  0.00    -0.354 OA
ATOM     47  H4  UNL     1      58.840   3.307  41.578  1.00  0.00     0.214 HD
ENDBRANCH  39  46
BRANCH  39  48
HETATM   48  O5  UNL     1      59.554   4.944  42.890  1.00  0.00    -0.354 OA
ATOM     49  H5  UNL     1      60.110   4.361  43.390  1.00  0.00     0.214 HD
ENDBRANCH  39  48
ENDBRANCH   1  39
TORSDOF 20
ENDMDL