MODEL 1
REMARK VINA RESULT: -7.282924113      0.000      0.000
REMARK  10 active torsions:
REMARK  status: ('A' for Active; 'I' for Inactive)
REMARK    1  A    between atoms: C2_7  and  N4_8
REMARK       I    between atoms: N4_8  and  C3_10
REMARK       I    between atoms: C3_10  and  N9_18
REMARK    2  A    between atoms: N5_11  and  N6_13
REMARK    3  A    between atoms: N9_18  and  C5_20
REMARK    4  A    between atoms: C5_20  and  C6_21
REMARK    5  A    between atoms: C5_20  and  C9_30
REMARK    6  A    between atoms: C8_24  and  N10_25
REMARK    7  A    between atoms: C10_34  and  C11_35
REMARK    8  A    between atoms: C11_35  and  O2_36
REMARK    9  A    between atoms: C11_35  and  O3_38
REMARK   10  A    between atoms: C12_42  and  N14_43
ROOT
HETATM    1  C5  UNL     1     -37.334  -1.228  47.862  1.00  0.00     0.206 C
ENDROOT
BRANCH   1   2
HETATM    2  N9  UNL     1     -38.168  -0.632  48.871  1.00  0.00    -0.209 N
HETATM    3  C3  UNL     1     -39.457  -1.154  49.112  1.00  0.00     0.708 C
HETATM    4  N4  UNL     1     -39.991  -2.289  48.474  1.00  0.00    -0.018 N
HETATM    5  N5  UNL     1     -40.220  -0.557  49.982  1.00  0.00    -0.130 N
ATOM      6  H4  UNL     1     -39.675  -3.204  48.793  1.00  0.00     0.203 HD
ATOM      7  H5  UNL     1     -41.151  -0.938  50.151  1.00  0.00     0.205 HD
ATOM      8  H9  UNL     1     -37.830   0.165  49.409  1.00  0.00     0.179 HD
BRANCH   4   9
HETATM    9  C2  UNL     1     -40.846  -2.255  47.520  1.00  0.00     0.728 A
HETATM   10  N3  UNL     1     -40.775  -1.359  46.508  1.00  0.00    -0.114 N
HETATM   11  N2  UNL     1     -41.774  -1.551  45.672  1.00  0.00    -0.211 N
ATOM     12  H3  UNL     1     -40.056  -0.642  46.409  1.00  0.00     0.207 HD
HETATM   13  N1  UNL     1     -42.463  -2.567  46.168  1.00  0.00    -0.209 N
ATOM     14  H2  UNL     1     -41.974  -1.027  44.820  1.00  0.00     0.210 HD
HETATM   15  C1  UNL     1     -43.658  -3.079  45.514  1.00  0.00     0.202 C
HETATM   16  N15 UNL     1     -41.921  -3.010  47.284  1.00  0.00    -0.113 N
ATOM     17  H15 UNL     1     -42.260  -3.781  47.859  1.00  0.00     0.207 HD
ENDBRANCH   4   9
BRANCH   5  18
HETATM   18  N6  UNL     1     -39.837   0.561  50.685  1.00  0.00    -0.262 N
HETATM   19  C4  UNL     1     -39.661   0.489  51.950  1.00  0.00     0.216 C
HETATM   20  N7  UNL     1     -39.264   1.682  52.625  1.00  0.00    -0.065 NA
HETATM   21  N8  UNL     1     -39.857  -0.731  52.632  1.00  0.00    -0.065 NA
ATOM     22  H6  UNL     1     -39.694   1.446  50.198  1.00  0.00     0.190 HD
ENDBRANCH   5  18
ENDBRANCH   1   2
BRANCH   1  23
HETATM   23  C6  UNL     1     -35.965  -1.559  48.426  1.00  0.00     0.047 A
HETATM   24  C7  UNL     1     -35.704  -2.776  48.981  1.00  0.00     0.080 A
HETATM   25  S1  UNL     1     -34.069  -2.621  49.461  1.00  0.00    -0.064 SA
HETATM   26  C8  UNL     1     -33.816  -1.026  48.929  1.00  0.00     0.142 A
HETATM   27  N11 UNL     1     -34.985  -0.677  48.409  1.00  0.00    -0.338 N
ATOM     28  H11 UNL     1     -35.122   0.250  48.006  1.00  0.00     0.168 HD
BRANCH  26  29
HETATM   29  N10 UNL     1     -32.713  -0.315  49.018  1.00  0.00    -0.380 N
ATOM     30 2H10 UNL     1     -31.930  -0.273  48.366  1.00  0.00     0.158 HD
ATOM     31 1H10 UNL     1     -32.445   0.327  49.764  1.00  0.00     0.158 HD
ENDBRANCH  26  29
ENDBRANCH   1  23
BRANCH   1  32
HETATM   32  C9  UNL     1     -37.303  -0.559  46.568  1.00  0.00     0.105 A
HETATM   33  N12 UNL     1     -37.411   0.806  46.464  1.00  0.00    -0.257 N
HETATM   34  O1  UNL     1     -37.401   1.467  45.382  1.00  0.00    -0.219 OA
ATOM     35  H12 UNL     1     -37.508   1.333  47.332  1.00  0.00     0.195 HD
HETATM   36  C10 UNL     1     -37.279   0.849  44.235  1.00  0.00     0.203 A
HETATM   37  N13 UNL     1     -37.166  -0.483  44.217  1.00  0.00    -0.319 N
HETATM   38  C12 UNL     1     -37.175  -1.210  45.362  1.00  0.00     0.128 A
ATOM     39  H13 UNL     1     -37.071  -0.963  43.322  1.00  0.00     0.169 HD
BRANCH  36  40
HETATM   40  C11 UNL     1     -37.263   1.592  42.947  1.00  0.00     0.333 C
BRANCH  40  41
HETATM   41  O2  UNL     1     -37.858   0.852  41.916  1.00  0.00    -0.364 OA
ATOM     42  H2  UNL     1     -37.513   1.097  41.065  1.00  0.00     0.213 HD
ENDBRANCH  40  41
BRANCH  40  43
HETATM   43  O3  UNL     1     -35.963   1.952  42.626  1.00  0.00    -0.364 OA
ATOM     44  H3  UNL     1     -35.784   1.744  41.716  1.00  0.00     0.213 HD
ENDBRANCH  40  43
ENDBRANCH  36  40
BRANCH  38  45
HETATM   45  N14 UNL     1     -37.058  -2.472  45.296  1.00  0.00    -0.384 N
ATOM     46 2H14 UNL     1     -37.889  -3.055  45.392  1.00  0.00     0.157 HD
ATOM     47 1H14 UNL     1     -36.154  -2.918  45.143  1.00  0.00     0.157 HD
ENDBRANCH  38  45
ENDBRANCH   1  32
TORSDOF 10
ENDMDL