MODEL 4
REMARK VINA RESULT: -6.732746433      5.111      8.004
REMARK  9 active torsions:
REMARK  status: ('A' for Active; 'I' for Inactive)
REMARK       I    between atoms: C1_4  and  N3_6
REMARK    1  A    between atoms: C4_15  and  C5_16
REMARK    2  A    between atoms: C4_15  and  C12_30
REMARK    3  A    between atoms: C6_19  and  C7_20
REMARK    4  A    between atoms: C12_30  and  N11_31
REMARK    5  A    between atoms: C12_30  and  C13_35
REMARK    6  A    between atoms: C13_35  and  O2_36
REMARK    7  A    between atoms: C13_35  and  C14_38
REMARK    8  A    between atoms: C14_38  and  O3_39
REMARK    9  A    between atoms: C15_41  and  O4_42
ROOT
HETATM    1  N1  UNL     1     -39.415  -3.033  46.629  1.00  0.00    -0.373 N
ATOM      2  H11 UNL     1     -38.693  -3.566  46.144  1.00  0.00     0.158 HD
ATOM      3  H12 UNL     1     -39.975  -3.562  47.298  1.00  0.00     0.158 HD
HETATM    4  C1  UNL     1     -39.539  -1.788  46.339  1.00  0.00     0.193 C
HETATM    5  N2  UNL     1     -40.544  -1.047  47.014  1.00  0.00    -0.063 NA
HETATM    6  N3  UNL     1     -38.759  -1.052  45.406  1.00  0.00    -0.257 N
HETATM    7  C2  UNL     1     -37.824  -0.163  46.080  1.00  0.00     0.202 A
HETATM    8  N4  UNL     1     -37.675  -0.163  47.502  1.00  0.00    -0.063 NA
HETATM    9  N5  UNL     1     -37.084   0.670  45.452  1.00  0.00    -0.304 N
ATOM     10  H5  UNL     1     -36.449   1.283  45.965  1.00  0.00     0.171 HD
HETATM   11  C3  UNL     1     -37.152   0.737  44.034  1.00  0.00     0.193 A
HETATM   12  N6  UNL     1     -36.343   1.622  43.290  1.00  0.00    -0.063 NA
HETATM   13  N7  UNL     1     -37.931  -0.043  43.445  1.00  0.00    -0.329 N
ATOM     14  H7  UNL     1     -37.959   0.050  42.429  1.00  0.00     0.165 HD
HETATM   15  C4  UNL     1     -38.807  -1.069  44.006  1.00  0.00     0.217 A
ENDROOT
BRANCH  15  16
HETATM   16  C5  UNL     1     -37.941  -2.299  43.577  1.00  0.00     0.201 A
HETATM   17  N8  UNL     1     -37.676  -2.593  42.329  1.00  0.00    -0.319 N
HETATM   18  C6  UNL     1     -36.907  -3.674  42.292  1.00  0.00     0.138 A
ATOM     19  H8  UNL     1     -38.006  -2.074  41.516  1.00  0.00     0.169 HD
HETATM   20  N10 UNL     1     -36.717  -4.033  43.598  1.00  0.00    -0.242 N
HETATM   21  O1  UNL     1     -37.370  -3.158  44.347  1.00  0.00    -0.218 OA
ATOM     22  H10 UNL     1     -36.172  -4.827  43.933  1.00  0.00     0.196 HD
BRANCH  18  23
HETATM   23  C7  UNL     1     -36.358  -4.349  41.119  1.00  0.00     0.012 A
HETATM   24  C8  UNL     1     -37.230  -4.741  40.085  1.00  0.00     0.032 A
HETATM   25  C9  UNL     1     -36.725  -5.363  38.971  1.00  0.00     0.088 A
HETATM   26  N9  UNL     1     -35.405  -5.619  38.812  1.00  0.00    -0.375 N
HETATM   27  C10 UNL     1     -34.529  -5.253  39.794  1.00  0.00     0.088 A
ATOM     28  H9  UNL     1     -35.069  -6.080  37.967  1.00  0.00     0.164 HD
HETATM   29  C11 UNL     1     -35.032  -4.621  40.937  1.00  0.00     0.032 A
ENDBRANCH  18  23
ENDBRANCH  15  16
BRANCH  15  30
HETATM   30  C12 UNL     1     -40.056  -1.242  43.274  1.00  0.00     0.273 C
BRANCH  30  31
HETATM   31  N11 UNL     1     -40.757  -2.486  43.522  1.00  0.00    -0.068 N
ATOM     32 3H11 UNL     1     -40.742  -2.703  44.519  1.00  0.00     0.275 HD
ATOM     33 2H11 UNL     1     -41.759  -2.356  43.382  1.00  0.00     0.275 HD
ATOM     34 1H11 UNL     1     -40.430  -3.289  42.985  1.00  0.00     0.275 HD
ENDBRANCH  30  31
BRANCH  30  35
HETATM   35  C13 UNL     1     -41.026  -0.084  43.260  1.00  0.00     0.192 C
BRANCH  35  36
HETATM   36  O2  UNL     1     -40.523   1.086  43.829  1.00  0.00    -0.390 OA
ATOM     37  H2  UNL     1     -40.618   1.130  44.774  1.00  0.00     0.210 HD
ENDBRANCH  35  36
BRANCH  35  38
HETATM   38  C14 UNL     1     -41.480   0.299  41.826  1.00  0.00     0.144 C
HETATM   39  C15 UNL     1     -40.796   1.683  41.464  1.00  0.00     0.190 C
HETATM   40  C16 UNL     1     -41.046   1.151  40.072  1.00  0.00     0.251 A
HETATM   41  N12 UNL     1     -40.507   0.025  39.431  1.00  0.00    -0.057 N
HETATM   42  C17 UNL     1     -40.487  -0.116  40.805  1.00  0.00     0.259 A
ATOM     43 2H12 UNL     1     -40.906  -0.578  38.711  1.00  0.00     0.278 HD
ATOM     44 1H12 UNL     1     -39.753  -0.049  38.749  1.00  0.00     0.278 HD
BRANCH  38  45
HETATM   45  O3  UNL     1     -42.807   0.369  41.577  1.00  0.00    -0.382 OA
ATOM     46  H3  UNL     1     -43.321   1.004  42.062  1.00  0.00     0.210 HD
ENDBRANCH  38  45
BRANCH  39  47
HETATM   47  O4  UNL     1     -41.588   2.759  41.734  1.00  0.00    -0.390 OA
ATOM     48  H4  UNL     1     -41.106   3.577  41.773  1.00  0.00     0.210 HD
ENDBRANCH  39  47
ENDBRANCH  35  38
ENDBRANCH  30  35
ENDBRANCH  15  30
TORSDOF 9
ENDMDL