MODEL 5
REMARK VINA RESULT: -6.801359620      3.183      6.419
REMARK  11 active torsions:
REMARK  status: ('A' for Active; 'I' for Inactive)
REMARK    1  A    between atoms: C2_2  and  O1_4
REMARK    2  A    between atoms: C2_2  and  N1_6
REMARK       I    between atoms: N1_6  and  C4_8
REMARK    3  A    between atoms: C4_8  and  C5_10
REMARK    4  A    between atoms: C7_14  and  C8_15
REMARK    5  A    between atoms: C8_15  and  N3_16
REMARK       I    between atoms: N3_16  and  C9_18
REMARK       I    between atoms: C9_18  and  N4_20
REMARK    6  A    between atoms: C11_22  and  C12_23
REMARK    7  A    between atoms: C12_23  and  N7_29
REMARK    8  A    between atoms: N5_24  and  N6_26
REMARK    9  A    between atoms: N7_29  and  N8_31
REMARK   10  A    between atoms: N11_38  and  N12_39
REMARK   11  A    between atoms: N12_39  and  C13_41
ROOT
HETATM    1  C5  UNL     1     -38.228  -1.508  46.179  1.00  0.00     0.141 A
HETATM    2  C6  UNL     1     -39.338  -2.381  46.053  1.00  0.00     0.127 A
HETATM    3  N2  UNL     1     -39.476  -3.001  47.205  1.00  0.00    -0.350 N
ATOM      4  H2  UNL     1     -40.188  -3.695  47.431  1.00  0.00     0.166 HD
HETATM    5  C7  UNL     1     -38.533  -2.566  48.014  1.00  0.00     0.122 A
HETATM    6  N11 UNL     1     -37.725  -1.625  47.416  1.00  0.00    -0.233 N
ENDROOT
BRANCH   5   7
HETATM    7  C8  UNL     1     -38.364  -3.035  49.410  1.00  0.00     0.203 C
BRANCH   7   8
HETATM    8  N3  UNL     1     -39.088  -2.148  50.304  1.00  0.00    -0.334 N
HETATM    9  C9  UNL     1     -38.382  -1.240  51.125  1.00  0.00     0.342 C
HETATM   10  O3  UNL     1     -37.124  -1.208  51.072  1.00  0.00    -0.245 OA
HETATM   11  N4  UNL     1     -39.112  -0.385  51.990  1.00  0.00    -0.200 N
HETATM   12  C10 UNL     1     -38.554   0.516  52.814  1.00  0.00     0.158 A
HETATM   13  N10 UNL     1     -40.419  -0.301  52.155  1.00  0.00    -0.232 N
HETATM   14  C11 UNL     1     -39.563   1.164  53.499  1.00  0.00     0.113 A
HETATM   15  N9  UNL     1     -40.705   0.634  53.067  1.00  0.00    -0.281 N
ATOM     16  H9  UNL     1     -41.640   0.897  53.378  1.00  0.00     0.188 HD
ATOM     17  H10 UNL     1     -41.109  -0.867  51.661  1.00  0.00     0.209 HD
ATOM     18  H3  UNL     1     -40.107  -2.182  50.340  1.00  0.00     0.164 HD
BRANCH  14  19
HETATM   19  C12 UNL     1     -39.331   2.210  54.483  1.00  0.00     0.164 C
HETATM   20  N5  UNL     1     -38.666   3.268  54.140  1.00  0.00    -0.289 N
ATOM     21  H5  UNL     1     -38.313   3.356  53.188  1.00  0.00     0.188 HD
BRANCH  20  22
HETATM   22  N6  UNL     1     -38.430   4.285  55.058  1.00  0.00    -0.344 N
ATOM     23  H62 UNL     1     -39.004   5.127  55.015  1.00  0.00     0.176 HD
ATOM     24  H61 UNL     1     -37.697   4.192  55.761  1.00  0.00     0.176 HD
ENDBRANCH  20  22
BRANCH  19  25
HETATM   25  N7  UNL     1     -39.838   2.052  55.796  1.00  0.00    -0.289 N
ATOM     26  H7  UNL     1     -39.175   1.912  56.558  1.00  0.00     0.188 HD
BRANCH  25  27
HETATM   27  N8  UNL     1     -41.183   2.078  56.096  1.00  0.00    -0.344 N
ATOM     28  H82 UNL     1     -41.748   1.289  55.782  1.00  0.00     0.176 HD
ATOM     29  H81 UNL     1     -41.628   2.840  56.609  1.00  0.00     0.176 HD
ENDBRANCH  25  27
ENDBRANCH  19  25
ENDBRANCH  14  19
ENDBRANCH   7   8
ENDBRANCH   5   7
BRANCH   6  30
HETATM   30  N12 UNL     1     -36.745  -0.984  48.075  1.00  0.00    -0.262 N
ATOM     31  H12 UNL     1     -37.111  -0.433  48.852  1.00  0.00     0.190 HD
BRANCH  30  32
HETATM   32  C13 UNL     1     -35.346  -0.874  47.972  1.00  0.00     0.207 C
HETATM   33  N13 UNL     1     -34.532  -0.565  48.930  1.00  0.00    -0.345 N
HETATM   34  C14 UNL     1     -33.156  -0.539  48.480  1.00  0.00     0.259 C
ATOM     35  H13 UNL     1     -34.825  -0.365  49.886  1.00  0.00     0.164 HD
HETATM   36  N14 UNL     1     -33.244  -0.562  47.010  1.00  0.00    -0.119 NA
HETATM   37  N15 UNL     1     -34.506  -1.138  46.834  1.00  0.00    -0.272 N
ATOM     38  H15 UNL     1     -34.792  -1.671  46.013  1.00  0.00     0.185 HD
ENDBRANCH  30  32
ENDBRANCH   6  30
BRANCH   1  39
HETATM   39  C4  UNL     1     -37.798  -0.754  45.038  1.00  0.00     0.274 C
HETATM   40  N1  UNL     1     -38.577   0.334  44.532  1.00  0.00    -0.324 N
ATOM     41  H1  UNL     1     -39.457   0.593  44.978  1.00  0.00     0.165 HD
HETATM   42  O2  UNL     1     -36.743  -0.994  44.429  1.00  0.00    -0.266 OA
BRANCH  40  43
HETATM   43  C2  UNL     1     -38.098   1.057  43.383  1.00  0.00     0.126 C
HETATM   44  C1  UNL     1     -38.336   0.199  42.178  1.00  0.00     0.070 C
HETATM   45  C3  UNL     1     -38.870   2.357  43.216  1.00  0.00     0.070 C
BRANCH  43  46
HETATM   46  O1  UNL     1     -36.758   1.400  43.541  1.00  0.00    -0.372 OA
ATOM     47  H1  UNL     1     -36.453   1.280  44.433  1.00  0.00     0.212 HD
ENDBRANCH  43  46
ENDBRANCH  40  43
ENDBRANCH   1  39
TORSDOF 11
ENDMDL