MODEL 3
REMARK VINA RESULT: -6.368120126      2.397      3.847
REMARK  13 active torsions:
REMARK  status: ('A' for Active; 'I' for Inactive)
REMARK    1  A    between atoms: C2_2  and  C3_3
REMARK    2  A    between atoms: C2_2  and  C13_36
REMARK    3  A    between atoms: C3_3  and  C4_5
REMARK    4  A    between atoms: C4_5  and  C5_10
REMARK    5  A    between atoms: N1_6  and  O2_8
REMARK    6  A    between atoms: C9_16  and  N3_17
REMARK    7  A    between atoms: C11_24  and  N5_25
REMARK    8  A    between atoms: N5_25  and  N6_27
REMARK    9  A    between atoms: C12_30  and  O4_31
REMARK   10  A    between atoms: C13_36  and  O6_37
REMARK   11  A    between atoms: C13_36  and  C14_39
REMARK   12  A    between atoms: C14_39  and  C15_41
REMARK   13  A    between atoms: C15_41  and  N8_42
ROOT
HETATM    1  C15 UNL     1     -38.111   1.809  41.557  1.00  0.00     0.360 C
HETATM    2  C16 UNL     1     -37.047   1.708  42.548  1.00  0.00     0.100 C
HETATM    3  N9  UNL     1     -36.223   1.624  43.341  1.00  0.00    -0.195 NA
ENDROOT
BRANCH   1   4
HETATM    4  C14 UNL     1     -39.443   2.059  42.173  1.00  0.00     0.200 C
HETATM    5  O7  UNL     1     -39.434   2.752  43.204  1.00  0.00    -0.292 OA
BRANCH   4   6
HETATM    6  C13 UNL     1     -40.708   1.573  41.679  1.00  0.00     0.202 C
BRANCH   6   7
HETATM    7  C2  UNL     1     -41.346   0.388  42.400  1.00  0.00     0.094 C
HETATM    8  C1  UNL     1     -42.795   0.417  41.824  1.00  0.00     0.021 C
BRANCH   7   9
HETATM    9  C3  UNL     1     -40.781  -0.913  42.055  1.00  0.00     0.186 C
HETATM   10  O1  UNL     1     -41.344  -1.644  41.218  1.00  0.00    -0.290 OA
BRANCH   9  11
HETATM   11  C4  UNL     1     -39.527  -1.384  42.688  1.00  0.00     0.129 C
HETATM   12  N1  UNL     1     -38.639  -1.883  41.941  1.00  0.00    -0.263 N
ATOM     13  H1  UNL     1     -38.886  -1.910  40.952  1.00  0.00     0.194 HD
BRANCH  12  14
HETATM   14  O2  UNL     1     -37.429  -2.383  42.224  1.00  0.00    -0.289 OA
ATOM     15  H2  UNL     1     -36.579  -2.223  41.830  1.00  0.00     0.244 HD
ENDBRANCH  12  14
BRANCH  11  16
HETATM   16  C5  UNL     1     -39.374  -1.251  44.132  1.00  0.00     0.089 A
HETATM   17  C6  UNL     1     -39.949  -1.953  45.164  1.00  0.00     0.075 A
HETATM   18  C7  UNL     1     -39.492  -1.458  46.352  1.00  0.00     0.131 A
HETATM   19  C8  UNL     1     -39.806  -1.871  47.693  1.00  0.00     0.120 C
HETATM   20  O5  UNL     1     -38.677  -0.499  46.049  1.00  0.00    -0.235 OA
HETATM   21  N2  UNL     1     -39.326  -1.087  48.716  1.00  0.00    -0.186 N
HETATM   22  C12 UNL     1     -40.546  -2.998  47.920  1.00  0.00     0.130 C
HETATM   23  C9  UNL     1     -39.789  -0.937  49.976  1.00  0.00     0.679 C
ATOM     24  H2  UNL     1     -38.498  -0.537  48.489  1.00  0.00     0.184 HD
HETATM   25  N4  UNL     1     -40.935  -1.424  50.502  1.00  0.00    -0.154 N
HETATM   26  C10 UNL     1     -41.714  -2.415  50.019  1.00  0.00     0.290 C
ATOM     27  H4  UNL     1     -41.249  -0.988  51.369  1.00  0.00     0.187 HD
HETATM   28  O3  UNL     1     -42.689  -2.671  50.771  1.00  0.00    -0.265 OA
HETATM   29  C11 UNL     1     -41.570  -3.140  48.855  1.00  0.00     0.152 C
HETATM   30  N7  UNL     1     -38.579  -0.345  44.761  1.00  0.00    -0.258 N
ATOM     31  H7  UNL     1     -37.995   0.349  44.294  1.00  0.00     0.195 HD
BRANCH  23  32
HETATM   32  N3  UNL     1     -39.037  -0.250  50.736  1.00  0.00    -0.234 N
ATOM     33  H32 UNL     1     -38.532   0.532  50.319  1.00  0.00     0.174 HD
ATOM     34  H31 UNL     1     -39.017  -0.562  51.707  1.00  0.00     0.174 HD
ENDBRANCH  23  32
BRANCH  29  35
HETATM   35  N5  UNL     1     -42.455  -4.014  48.636  1.00  0.00    -0.300 N
ATOM     36  H5  UNL     1     -43.264  -3.731  48.082  1.00  0.00     0.186 HD
BRANCH  35  37
HETATM   37  N6  UNL     1     -42.420  -5.323  49.082  1.00  0.00    -0.344 N
ATOM     38  H62 UNL     1     -43.174  -5.605  49.708  1.00  0.00     0.176 HD
ATOM     39  H61 UNL     1     -41.711  -6.015  48.837  1.00  0.00     0.176 HD
ENDBRANCH  35  37
ENDBRANCH  29  35
BRANCH  22  40
HETATM   40  O4  UNL     1     -40.251  -4.095  47.160  1.00  0.00    -0.356 OA
ATOM     41  H4  UNL     1     -39.681  -4.748  47.549  1.00  0.00     0.218 HD
ENDBRANCH  22  40
ENDBRANCH  11  16
ENDBRANCH   9  11
ENDBRANCH   7   9
ENDBRANCH   6   7
BRANCH   6  42
HETATM   42  O6  UNL     1     -41.708   2.580  41.551  1.00  0.00    -0.387 OA
ATOM     43  H6  UNL     1     -41.289   3.417  41.713  1.00  0.00     0.210 HD
ENDBRANCH   6  42
ENDBRANCH   4   6
ENDBRANCH   1   4
BRANCH   1  44
HETATM   44  N8  UNL     1     -37.753   2.884  40.655  1.00  0.00    -0.056 N
ATOM     45  H83 UNL     1     -37.640   2.552  39.697  1.00  0.00     0.276 HD
ATOM     46  H82 UNL     1     -38.532   3.525  40.503  1.00  0.00     0.276 HD
ATOM     47  H81 UNL     1     -36.921   3.372  40.986  1.00  0.00     0.276 HD
ENDBRANCH   1  44
TORSDOF 13
ENDMDL