MODEL 3
REMARK VINA RESULT: -6.455388160      2.251      8.439
REMARK  12 active torsions:
REMARK  status: ('A' for Active; 'I' for Inactive)
REMARK    1  A    between atoms: N1_1  and  C1_5
REMARK    2  A    between atoms: C1_5  and  N2_6
REMARK    3  A    between atoms: C1_5  and  O1_10
REMARK    4  A    between atoms: O1_10  and  C2_11
REMARK    5  A    between atoms: C2_11  and  C3_13
REMARK    6  A    between atoms: C3_13  and  C4_14
REMARK    7  A    between atoms: C4_14  and  N3_15
REMARK    8  A    between atoms: N3_15  and  C5_17
REMARK    9  A    between atoms: C7_19  and  O3_20
REMARK   10  A    between atoms: C10_24  and  O4_25
REMARK   11  A    between atoms: C13_34  and  N6_35
REMARK   12  A    between atoms: C14_39  and  C15_40
ROOT
HETATM    1  C5  UNL     1     -39.653  -0.518  43.664  1.00  0.00     0.066 A
HETATM    2  C6  UNL     1     -38.794   0.438  44.137  1.00  0.00     0.069 A
HETATM    3  C7  UNL     1     -38.220   0.285  45.387  1.00  0.00     0.084 A
HETATM    4  C8  UNL     1     -38.487  -0.808  46.181  1.00  0.00     0.077 A
HETATM    5  C9  UNL     1     -39.350  -1.783  45.723  1.00  0.00     0.083 A
HETATM    6  C10 UNL     1     -39.909  -1.611  44.479  1.00  0.00     0.119 A
HETATM    7  N4  UNL     1     -39.462  -2.810  46.727  1.00  0.00    -0.348 N
ATOM      8  H4  UNL     1     -39.837  -3.745  46.569  1.00  0.00     0.163 HD
HETATM    9  C11 UNL     1     -38.964  -2.315  47.997  1.00  0.00     0.237 C
HETATM   10  N5  UNL     1     -38.264  -3.304  48.751  1.00  0.00    -0.320 N
ATOM     11  H5  UNL     1     -37.763  -4.048  48.264  1.00  0.00     0.165 HD
HETATM   12  C12 UNL     1     -38.256  -3.264  50.168  1.00  0.00     0.252 C
HETATM   13  O5  UNL     1     -37.241  -3.629  50.817  1.00  0.00    -0.271 OA
HETATM   14  C13 UNL     1     -39.437  -2.794  50.927  1.00  0.00     0.296 C
HETATM   15  C14 UNL     1     -40.054  -1.570  50.274  1.00  0.00     0.201 C
HETATM   16  C16 UNL     1     -40.048  -1.686  48.798  1.00  0.00     0.200 C
HETATM   17  O8  UNL     1     -41.003  -1.234  48.189  1.00  0.00    -0.292 OA
HETATM   18  C17 UNL     1     -38.051  -1.227  47.506  1.00  0.00     0.221 C
HETATM   19  O9  UNL     1     -37.076  -0.762  48.142  1.00  0.00    -0.287 OA
ENDROOT
BRANCH   1  20
HETATM   20  N3  UNL     1     -40.289  -0.388  42.394  1.00  0.00    -0.387 N
ATOM     21  H3  UNL     1     -41.307  -0.319  42.394  1.00  0.00     0.159 HD
BRANCH  20  22
HETATM   22  C4  UNL     1     -39.645  -0.344  41.129  1.00  0.00     0.130 C
BRANCH  22  23
HETATM   23  C3  UNL     1     -40.492   0.290  40.046  1.00  0.00     0.131 C
BRANCH  23  24
HETATM   24  C2  UNL     1     -40.526   1.758  40.154  1.00  0.00     0.263 C
HETATM   25  O2  UNL     1     -40.797   2.331  41.267  1.00  0.00    -0.265 OA
BRANCH  24  26
HETATM   26  O1  UNL     1     -40.266   2.555  39.068  1.00  0.00    -0.265 OA
BRANCH  26  27
HETATM   27  C1  UNL     1     -38.970   2.826  38.614  1.00  0.00     0.526 C
BRANCH  27  28
HETATM   28  N1  UNL     1     -38.936   4.112  37.921  1.00  0.00    -0.027 N
ATOM     29  H13 UNL     1     -38.272   4.753  38.356  1.00  0.00     0.279 HD
ATOM     30  H12 UNL     1     -38.499   4.030  37.003  1.00  0.00     0.279 HD
ATOM     31  H11 UNL     1     -39.866   4.524  37.857  1.00  0.00     0.279 HD
ENDBRANCH  27  28
BRANCH  27  32
HETATM   32  N2  UNL     1     -38.038   2.796  39.707  1.00  0.00    -0.027 N
ATOM     33  H23 UNL     1     -38.210   3.555  40.366  1.00  0.00     0.279 HD
ATOM     34  H22 UNL     1     -38.214   2.006  40.327  1.00  0.00     0.279 HD
ATOM     35  H21 UNL     1     -37.074   2.802  39.372  1.00  0.00     0.279 HD
ENDBRANCH  27  32
ENDBRANCH  26  27
ENDBRANCH  24  26
ENDBRANCH  23  24
ENDBRANCH  22  23
ENDBRANCH  20  22
ENDBRANCH   1  20
BRANCH   6  36
HETATM   36  O4  UNL     1     -40.771  -2.561  43.995  1.00  0.00    -0.356 OA
ATOM     37  H4  UNL     1     -40.412  -3.205  43.395  1.00  0.00     0.218 HD
ENDBRANCH   6  36
BRANCH   3  38
HETATM   38  O3  UNL     1     -37.356   1.285  45.819  1.00  0.00    -0.360 OA
ATOM     39  H3  UNL     1     -36.781   1.080  46.548  1.00  0.00     0.217 HD
ENDBRANCH   3  38
BRANCH  15  40
HETATM   40  C15 UNL     1     -39.263  -0.366  50.613  1.00  0.00     0.187 C
HETATM   41  O6  UNL     1     -38.225  -0.445  51.307  1.00  0.00    -0.647 OA
HETATM   42  O7  UNL     1     -39.664   0.879  50.164  1.00  0.00    -0.647 OA
ENDBRANCH  15  40
BRANCH  14  43
HETATM   43  N6  UNL     1     -39.118  -2.606  52.307  1.00  0.00    -0.065 N
ATOM     44  H63 UNL     1     -38.338  -1.961  52.428  1.00  0.00     0.275 HD
ATOM     45  H62 UNL     1     -39.839  -2.069  52.789  1.00  0.00     0.275 HD
ATOM     46  H61 UNL     1     -38.942  -3.499  52.768  1.00  0.00     0.275 HD
ENDBRANCH  14  43
TORSDOF 12
ENDMDL