MODEL 3
REMARK VINA RESULT: -6.841937040      4.267      9.583
REMARK  14 active torsions:
REMARK  status: ('A' for Active; 'I' for Inactive)
REMARK    1  A    between atoms: C2_5  and  C3_6
REMARK    2  A    between atoms: C9_21  and  N8_22
REMARK    3  A    between atoms: N9_25  and  N10_26
REMARK    4  A    between atoms: C11_30  and  N11_31
REMARK    5  A    between atoms: N11_31  and  C12_33
REMARK    6  A    between atoms: C12_33  and  O1_34
REMARK    7  A    between atoms: C12_33  and  C13_36
REMARK    8  A    between atoms: C13_36  and  O2_37
REMARK    9  A    between atoms: C13_36  and  C14_39
REMARK   10  A    between atoms: C14_39  and  O3_40
REMARK   11  A    between atoms: C14_39  and  C15_42
REMARK   12  A    between atoms: C15_42  and  O4_43
REMARK   13  A    between atoms: C15_42  and  C16_45
REMARK   14  A    between atoms: C16_45  and  O5_46
ROOT
HETATM    1  C3  UNL     1     -38.917  -1.024  45.217  1.00  0.00     0.157 A
HETATM    2  N3  UNL     1     -38.728  -0.109  44.216  1.00  0.00    -0.334 N
ATOM      3  H3  UNL     1     -37.810   0.317  44.090  1.00  0.00     0.168 HD
HETATM    4  C4  UNL     1     -39.720   0.227  43.412  1.00  0.00     0.110 A
HETATM    5  C5  UNL     1     -39.482   1.146  42.425  1.00  0.00     0.144 A
HETATM    6  N4  UNL     1     -38.437   1.758  42.133  1.00  0.00    -0.277 N
ATOM      7  H4  UNL     1     -38.571   2.385  41.339  1.00  0.00     0.179 HD
HETATM    8  C6  UNL     1     -37.179   1.801  42.599  1.00  0.00     0.183 C
HETATM    9  N5  UNL     1     -36.095   1.860  42.974  1.00  0.00    -0.172 NA
HETATM   10  N6  UNL     1     -40.563   1.454  41.618  1.00  0.00    -0.336 N
ATOM     11  H6  UNL     1     -40.449   2.132  40.864  1.00  0.00     0.168 HD
HETATM   12  C7  UNL     1     -41.755   0.878  41.809  1.00  0.00     0.182 A
HETATM   13  N7  UNL     1     -41.967  -0.019  42.780  1.00  0.00    -0.347 N
ATOM     14  H7  UNL     1     -42.890  -0.438  42.896  1.00  0.00     0.167 HD
HETATM   15  C8  UNL     1     -40.951  -0.372  43.613  1.00  0.00     0.110 A
HETATM   16  C9  UNL     1     -41.146  -1.289  44.614  1.00  0.00     0.151 A
HETATM   17  N9  UNL     1     -40.092  -1.609  45.425  1.00  0.00    -0.226 N
ENDROOT
BRANCH   1  18
HETATM   18  C2  UNL     1     -37.737  -1.326  46.059  1.00  0.00     0.098 A
HETATM   19  N2  UNL     1     -37.146  -2.543  46.145  1.00  0.00    -0.294 N
HETATM   20  N1  UNL     1     -36.104  -2.500  46.986  1.00  0.00    -0.281 N
ATOM     21  H2  UNL     1     -37.452  -3.375  45.640  1.00  0.00     0.187 HD
HETATM   22  C1  UNL     1     -35.291  -3.669  47.265  1.00  0.00     0.179 C
HETATM   23  C11 UNL     1     -35.962  -1.275  47.483  1.00  0.00     0.121 A
HETATM   24  C10 UNL     1     -37.019  -0.521  46.881  1.00  0.00     0.084 A
BRANCH  23  25
HETATM   25  N11 UNL     1     -35.153  -0.738  48.295  1.00  0.00    -0.347 N
ATOM     26  H11 UNL     1     -35.477  -0.732  49.262  1.00  0.00     0.163 HD
BRANCH  25  27
HETATM   27  C12 UNL     1     -33.911  -0.160  48.113  1.00  0.00     0.250 C
BRANCH  27  28
HETATM   28  O1  UNL     1     -32.950  -1.030  47.583  1.00  0.00    -0.374 OA
ATOM     29  H1  UNL     1     -32.169  -1.115  48.118  1.00  0.00     0.212 HD
ENDBRANCH  27  28
BRANCH  27  30
HETATM   30  C13 UNL     1     -33.357   0.464  49.410  1.00  0.00     0.198 C
BRANCH  30  31
HETATM   31  O2  UNL     1     -33.181  -0.508  50.362  1.00  0.00    -0.389 OA
ATOM     32  H2  UNL     1     -33.517  -0.209  51.199  1.00  0.00     0.210 HD
ENDBRANCH  30  31
BRANCH  30  33
HETATM   33  C14 UNL     1     -32.075   1.187  49.150  1.00  0.00     0.181 C
BRANCH  33  34
HETATM   34  O3  UNL     1     -31.995   1.771  47.912  1.00  0.00    -0.390 OA
ATOM     35  H3  UNL     1     -31.119   1.792  47.545  1.00  0.00     0.210 HD
ENDBRANCH  33  34
BRANCH  33  36
HETATM   36  C15 UNL     1     -31.810   2.148  50.280  1.00  0.00     0.173 C
BRANCH  36  37
HETATM   37  O4  UNL     1     -32.386   3.393  50.065  1.00  0.00    -0.391 OA
ATOM     38  H4  UNL     1     -33.197   3.338  49.575  1.00  0.00     0.210 HD
ENDBRANCH  36  37
BRANCH  36  39
HETATM   39  C16 UNL     1     -30.306   2.393  50.450  1.00  0.00     0.198 C
BRANCH  39  40
HETATM   40  O5  UNL     1     -30.085   3.725  50.797  1.00  0.00    -0.398 OA
ATOM     41  H5  UNL     1     -30.454   4.295  50.132  1.00  0.00     0.209 HD
ENDBRANCH  39  40
ENDBRANCH  36  39
ENDBRANCH  33  36
ENDBRANCH  30  33
ENDBRANCH  27  30
ENDBRANCH  25  27
ENDBRANCH  23  25
ENDBRANCH   1  18
BRANCH  16  42
HETATM   42  N8  UNL     1     -42.279  -1.845  44.805  1.00  0.00    -0.382 N
ATOM     43  H82 UNL     1     -42.918  -1.459  45.499  1.00  0.00     0.157 HD
ATOM     44  H81 UNL     1     -42.566  -2.672  44.281  1.00  0.00     0.157 HD
ENDBRANCH  16  42
BRANCH  17  45
HETATM   45  N10 UNL     1     -40.318  -2.556  46.449  1.00  0.00    -0.335 N
ATOM     46 2H10 UNL     1     -40.044  -2.300  47.397  1.00  0.00     0.177 HD
ATOM     47 1H10 UNL     1     -40.739  -3.471  46.285  1.00  0.00     0.177 HD
ENDBRANCH  17  45
TORSDOF 14
ENDMDL