MODEL 2
REMARK VINA RESULT: -5.975606338      2.143      5.710
REMARK  9 active torsions:
REMARK  status: ('A' for Active; 'I' for Inactive)
REMARK    1  A    between atoms: N1_2  and  C2_4
REMARK    2  A    between atoms: C5_9  and  O3_10
REMARK    3  A    between atoms: O3_10  and  C6_11
REMARK    4  A    between atoms: C6_11  and  C7_13
REMARK    5  A    between atoms: C7_13  and  C8_14
REMARK    6  A    between atoms: C11_19  and  O6_20
REMARK       I    between atoms: N3_22  and  C12_23
REMARK       I    between atoms: C12_23  and  N4_24
REMARK       I    between atoms: C12_23  and  N5_28
REMARK    7  A    between atoms: C13_32  and  O7_33
REMARK    8  A    between atoms: C15_36  and  N6_37
REMARK       I    between atoms: N6_37  and  C16_39
REMARK    9  A    between atoms: N8_41  and  O8_43
ROOT
HETATM    1  C2  UNL     1     -40.152   1.507  40.728  1.00  0.00     0.243 C
HETATM    2  O1  UNL     1     -40.561   2.046  41.940  1.00  0.00    -0.334 OA
HETATM    3  C3  UNL     1     -40.017   1.228  42.956  1.00  0.00     0.281 C
HETATM    4  O2  UNL     1     -38.659   1.653  43.032  1.00  0.00    -0.350 OA
HETATM    5  C4  UNL     1     -38.275   0.380  42.685  1.00  0.00     0.179 C
HETATM    6  C5  UNL     1     -37.835  -0.326  43.963  1.00  0.00     0.200 C
HETATM    7  C9  UNL     1     -38.783  -1.446  44.048  1.00  0.00     0.037 A
HETATM    8  C10 UNL     1     -39.829  -1.323  43.145  1.00  0.00     0.025 A
HETATM    9  C11 UNL     1     -40.583  -2.463  43.362  1.00  0.00     0.155 A
HETATM   10  N3  UNL     1     -40.007  -3.193  44.330  1.00  0.00    -0.255 N
HETATM   11  C12 UNL     1     -40.504  -4.471  44.846  1.00  0.00     0.490 C
HETATM   12  N4  UNL     1     -39.418  -5.413  45.028  1.00  0.00    -0.032 N
ATOM     13  H41 UNL     1     -39.764  -6.302  45.387  1.00  0.00     0.279 HD
ATOM     14  H42 UNL     1     -38.681  -5.029  45.619  1.00  0.00     0.279 HD
ATOM     15  H43 UNL     1     -38.879  -5.537  44.171  1.00  0.00     0.279 HD
HETATM   16  N5  UNL     1     -41.192  -4.324  46.091  1.00  0.00    -0.032 N
ATOM     17  H51 UNL     1     -41.539  -5.214  46.450  1.00  0.00     0.279 HD
ATOM     18  H52 UNL     1     -41.944  -3.640  46.017  1.00  0.00     0.279 HD
ATOM     19  H53 UNL     1     -40.608  -3.852  46.781  1.00  0.00     0.279 HD
HETATM   20  C13 UNL     1     -38.909  -2.613  44.777  1.00  0.00     0.157 A
HETATM   21  C14 UNL     1     -39.674  -0.084  42.389  1.00  0.00     0.095 C
HETATM   22  C15 UNL     1     -40.174  -0.016  41.002  1.00  0.00     0.153 C
ENDROOT
BRANCH   9  23
HETATM   23  O6  UNL     1     -41.754  -2.915  42.762  1.00  0.00    -0.345 OA
ATOM     24  H6  UNL     1     -42.279  -2.549  42.059  1.00  0.00     0.219 HD
ENDBRANCH   9  23
BRANCH  20  25
HETATM   25  O7  UNL     1     -38.067  -3.107  45.788  1.00  0.00    -0.345 OA
ATOM     26  H7  UNL     1     -37.622  -3.946  45.828  1.00  0.00     0.219 HD
ENDBRANCH  20  25
BRANCH   6  27
HETATM   27  O3  UNL     1     -37.985   0.484  45.111  1.00  0.00    -0.308 OA
BRANCH  27  28
HETATM   28  C6  UNL     1     -37.149   0.482  46.194  1.00  0.00     0.268 C
HETATM   29  O4  UNL     1     -37.422   1.286  47.141  1.00  0.00    -0.265 OA
BRANCH  28  30
HETATM   30  C7  UNL     1     -35.980  -0.432  46.232  1.00  0.00     0.210 C
BRANCH  30  31
HETATM   31  C8  UNL     1     -35.773  -0.979  47.578  1.00  0.00     0.240 C
HETATM   32  N2  UNL     1     -34.772  -0.452  48.418  1.00  0.00    -0.062 NA
HETATM   33  O5  UNL     1     -36.484  -1.927  48.005  1.00  0.00    -0.276 OA
ENDBRANCH  30  31
ENDBRANCH  28  30
ENDBRANCH  27  28
ENDBRANCH   6  27
BRANCH  22  34
HETATM   34  N6  UNL     1     -41.614  -0.277  40.966  1.00  0.00    -0.353 N
HETATM   35  C16 UNL     1     -42.170  -1.146  40.000  1.00  0.00     0.208 C
HETATM   36  N7  UNL     1     -41.770  -2.505  39.857  1.00  0.00    -0.062 NA
HETATM   37  N8  UNL     1     -43.098  -0.717  39.182  1.00  0.00    -0.241 N
ATOM     38  H8  UNL     1     -43.405   0.252  39.260  1.00  0.00     0.197 HD
ATOM     39  H6  UNL     1     -42.224   0.175  41.647  1.00  0.00     0.162 HD
BRANCH  37  40
HETATM   40  O8  UNL     1     -43.666  -1.502  38.238  1.00  0.00    -0.287 OA
ATOM     41  H8  UNL     1     -43.793  -1.221  37.340  1.00  0.00     0.244 HD
ENDBRANCH  37  40
ENDBRANCH  22  34
BRANCH   1  42
HETATM   42  N1  UNL     1     -39.016   2.011  40.121  1.00  0.00    -0.399 N
HETATM   43  C1  UNL     1     -39.167   2.670  38.861  1.00  0.00     0.142 C
ATOM     44  H1  UNL     1     -38.099   1.916  40.558  1.00  0.00     0.155 HD
ENDBRANCH   1  42
TORSDOF 9
ENDMDL