MODEL 4
REMARK VINA RESULT: -6.796487955      5.139      6.353
REMARK  11 active torsions:
REMARK  status: ('A' for Active; 'I' for Inactive)
REMARK       I    between atoms: N1_1  and  C1_5
REMARK       I    between atoms: C1_5  and  N2_6
REMARK       I    between atoms: C1_5  and  N3_10
REMARK    1  A    between atoms: N3_10  and  C2_12
REMARK    2  A    between atoms: C3_17  and  N6_18
REMARK    3  A    between atoms: N6_18  and  C4_20
REMARK    4  A    between atoms: C4_20  and  C5_21
REMARK    5  A    between atoms: C4_20  and  C10_43
REMARK    6  A    between atoms: C6_24  and  C7_25
REMARK    7  A    between atoms: C8_30  and  S1_31
REMARK    8  A    between atoms: S1_31  and  N10_32
REMARK    9  A    between atoms: C9_38  and  O3_39
REMARK   10  A    between atoms: C10_43  and  N12_44
REMARK   11  A    between atoms: C10_43  and  O4_48
ROOT
HETATM    1  C4  UNL     1     -34.017  -1.214  49.562  1.00  0.00     0.223 C
ENDROOT
BRANCH   1   2
HETATM    2  N6  UNL     1     -33.665   0.149  49.776  1.00  0.00    -0.208 N
ATOM      3  H6  UNL     1     -34.409   0.846  49.735  1.00  0.00     0.178 HD
BRANCH   2   4
HETATM    4  C3  UNL     1     -32.460   0.563  50.019  1.00  0.00     0.708 A
HETATM    5  N5  UNL     1     -32.008   1.815  49.834  1.00  0.00    -0.117 N
HETATM    6  N4  UNL     1     -30.717   1.874  50.191  1.00  0.00    -0.117 N
ATOM      7  H5  UNL     1     -32.559   2.596  49.480  1.00  0.00     0.206 HD
HETATM    8  C2  UNL     1     -30.328   0.657  50.608  1.00  0.00     0.710 A
ATOM      9  H4  UNL     1     -30.127   2.706  50.151  1.00  0.00     0.206 HD
HETATM   10  N13 UNL     1     -31.410  -0.131  50.495  1.00  0.00    -0.020 N
ATOM     11  H13 UNL     1     -31.433  -1.122  50.737  1.00  0.00     0.203 HD
BRANCH   8  12
HETATM   12  N3  UNL     1     -29.132   0.412  51.015  1.00  0.00    -0.172 N
HETATM   13  C1  UNL     1     -28.445  -0.832  50.804  1.00  0.00     0.494 C
HETATM   14  N1  UNL     1     -28.335  -1.478  52.121  1.00  0.00    -0.032 N
HETATM   15  N2  UNL     1     -27.166  -0.683  50.176  1.00  0.00    -0.032 N
ATOM     16  H13 UNL     1     -27.845  -2.371  52.056  1.00  0.00     0.278 HD
ATOM     17  H12 UNL     1     -27.679  -0.981  52.725  1.00  0.00     0.278 HD
ATOM     18  H11 UNL     1     -29.245  -1.585  52.568  1.00  0.00     0.278 HD
ATOM     19  H23 UNL     1     -26.510  -0.186  50.780  1.00  0.00     0.278 HD
ATOM     20  H22 UNL     1     -26.676  -1.576  50.111  1.00  0.00     0.278 HD
ATOM     21  H21 UNL     1     -27.242  -0.235  49.263  1.00  0.00     0.278 HD
ATOM     22  H3  UNL     1     -28.640   1.149  51.520  1.00  0.00     0.181 HD
ENDBRANCH   8  12
ENDBRANCH   2   4
ENDBRANCH   1   2
BRANCH   1  23
HETATM   23  C5  UNL     1     -34.802  -1.304  48.306  1.00  0.00     0.112 A
HETATM   24  N7  UNL     1     -35.754  -0.475  47.823  1.00  0.00    -0.338 N
HETATM   25  C6  UNL     1     -36.212  -0.914  46.662  1.00  0.00     0.120 A
ATOM     26  H7  UNL     1     -36.076   0.373  48.291  1.00  0.00     0.167 HD
HETATM   27  C9  UNL     1     -35.541  -2.068  46.370  1.00  0.00     0.171 A
HETATM   28  N11 UNL     1     -34.674  -2.287  47.402  1.00  0.00    -0.323 N
ATOM     29  H11 UNL     1     -34.030  -3.075  47.475  1.00  0.00     0.169 HD
BRANCH  25  30
HETATM   30  C7  UNL     1     -37.247  -0.319  45.799  1.00  0.00     0.123 A
HETATM   31  N8  UNL     1     -38.563  -0.464  45.887  1.00  0.00    -0.290 N
HETATM   32  N9  UNL     1     -39.316   0.120  45.061  1.00  0.00    -0.282 N
ATOM     33  H8  UNL     1     -38.966  -1.046  46.621  1.00  0.00     0.187 HD
HETATM   34  C8  UNL     1     -38.794   0.879  44.103  1.00  0.00     0.207 A
ATOM     35  H9  UNL     1     -40.327   0.009  45.128  1.00  0.00     0.188 HD
HETATM   36  S2  UNL     1     -37.115   0.715  44.449  1.00  0.00    -0.036 SA
BRANCH  34  37
HETATM   37  S1  UNL     1     -39.615   1.790  42.841  1.00  0.00     0.280 S
HETATM   38  O1  UNL     1     -40.959   1.125  42.601  1.00  0.00    -0.199 OA
HETATM   39  O2  UNL     1     -39.870   3.166  43.377  1.00  0.00    -0.199 OA
BRANCH  37  40
HETATM   40  N10 UNL     1     -38.669   1.814  41.423  1.00  0.00    -0.323 N
ATOM     41 2H10 UNL     1     -38.150   1.010  41.068  1.00  0.00     0.169 HD
ATOM     42 1H10 UNL     1     -38.702   2.739  40.994  1.00  0.00     0.169 HD
ENDBRANCH  37  40
ENDBRANCH  34  37
ENDBRANCH  25  30
BRANCH  27  43
HETATM   43  O3  UNL     1     -35.715  -2.856  45.239  1.00  0.00    -0.344 OA
ATOM     44  H3  UNL     1     -35.601  -3.798  45.187  1.00  0.00     0.219 HD
ENDBRANCH  27  43
ENDBRANCH   1  23
BRANCH   1  45
HETATM   45  C10 UNL     1     -34.864  -1.809  50.661  1.00  0.00     0.347 C
BRANCH  45  46
HETATM   46  N12 UNL     1     -35.238  -0.696  51.543  1.00  0.00    -0.051 N
ATOM     47 3H12 UNL     1     -34.440  -0.142  51.856  1.00  0.00     0.277 HD
ATOM     48 2H12 UNL     1     -35.731   0.055  51.061  1.00  0.00     0.277 HD
ATOM     49 1H12 UNL     1     -35.771  -1.105  52.310  1.00  0.00     0.277 HD
ENDBRANCH  45  46
BRANCH  45  50
HETATM   50  O4  UNL     1     -36.025  -2.388  50.215  1.00  0.00    -0.368 OA
ATOM     51  H4  UNL     1     -36.747  -2.324  50.829  1.00  0.00     0.212 HD
ENDBRANCH  45  50
ENDBRANCH   1  45
TORSDOF 11
ENDMDL