MODEL 3
REMARK VINA RESULT: -7.116526258      4.691     11.571
REMARK  8 active torsions:
REMARK  status: ('A' for Active; 'I' for Inactive)
REMARK    1  A    between atoms: N2_5  and  C3_6
REMARK    2  A    between atoms: C3_6  and  C4_7
REMARK    3  A    between atoms: C5_13  and  N5_14
REMARK    4  A    between atoms: N6_17  and  N7_18
REMARK    5  A    between atoms: N8_21  and  C6_22
REMARK    6  A    between atoms: C6_22  and  C7_23
REMARK    7  A    between atoms: C7_23  and  N9_24
REMARK    8  A    between atoms: C13_42  and  N15_43
ROOT
HETATM    1  N9  UNL     1     -29.530  -1.798  49.810  1.00  0.00    -0.312 N
HETATM    2  C8  UNL     1     -29.085  -0.752  50.471  1.00  0.00     0.156 A
HETATM    3  C9  UNL     1     -29.584   0.591  50.668  1.00  0.00     0.169 A
HETATM    4  N10 UNL     1     -30.751   1.094  50.089  1.00  0.00    -0.289 N
ATOM      5  H10 UNL     1     -31.424   0.582  49.519  1.00  0.00     0.172 HD
HETATM    6  C10 UNL     1     -30.807   2.425  50.447  1.00  0.00     0.340 A
HETATM    7  O2  UNL     1     -31.713   3.200  50.118  1.00  0.00    -0.245 OA
HETATM    8  N11 UNL     1     -29.747   2.730  51.203  1.00  0.00    -0.250 N
ATOM      9  H11 UNL     1     -29.516   3.636  51.611  1.00  0.00     0.192 HD
HETATM   10  N12 UNL     1     -29.072   1.619  51.305  1.00  0.00    -0.278 N
ATOM     11  H12 UNL     1     -28.207   1.553  51.842  1.00  0.00     0.189 HD
HETATM   12  N13 UNL     1     -27.825  -1.047  51.032  1.00  0.00    -0.332 N
ATOM     13  H13 UNL     1     -27.241  -0.437  51.602  1.00  0.00     0.168 HD
HETATM   14  C11 UNL     1     -27.568  -2.285  50.659  1.00  0.00     0.148 A
HETATM   15  C12 UNL     1     -26.458  -3.085  50.908  1.00  0.00     0.290 A
HETATM   16  O3  UNL     1     -25.495  -2.651  51.612  1.00  0.00    -0.265 OA
HETATM   17  N14 UNL     1     -26.395  -4.323  50.415  1.00  0.00    -0.154 N
ATOM     18  H14 UNL     1     -25.585  -4.914  50.601  1.00  0.00     0.187 HD
HETATM   19  C13 UNL     1     -27.418  -4.780  49.670  1.00  0.00     0.680 A
HETATM   20  N16 UNL     1     -28.515  -4.017  49.412  1.00  0.00    -0.174 N
ATOM     21  H16 UNL     1     -29.280  -4.379  48.842  1.00  0.00     0.186 HD
HETATM   22  C14 UNL     1     -28.569  -2.788  49.919  1.00  0.00     0.157 A
ENDROOT
BRANCH   1  23
HETATM   23  C7  UNL     1     -30.805  -2.060  49.252  1.00  0.00     0.154 C
BRANCH  23  24
HETATM   24  C6  UNL     1     -31.962  -2.396  50.089  1.00  0.00     0.174 C
BRANCH  24  25
HETATM   25  N8  UNL     1     -33.167  -1.973  49.364  1.00  0.00    -0.241 N
HETATM   26  C2  UNL     1     -33.960  -0.857  49.770  1.00  0.00     0.113 C
HETATM   27  C1  UNL     1     -33.901  -0.231  51.113  1.00  0.00     0.092 C
HETATM   28  N1  UNL     1     -34.756  -0.521  48.793  1.00  0.00    -0.268 N
HETATM   29  N2  UNL     1     -34.470  -1.388  47.693  1.00  0.00    -0.191 N
ATOM     30  H1  UNL     1     -35.454   0.223  48.811  1.00  0.00     0.190 HD
HETATM   31  N6  UNL     1     -33.701  -2.378  48.197  1.00  0.00    -0.117 N
BRANCH  29  32
HETATM   32  C3  UNL     1     -34.990  -1.079  46.414  1.00  0.00     0.236 C
BRANCH  32  33
HETATM   33  C4  UNL     1     -36.446  -1.138  46.246  1.00  0.00     0.101 A
HETATM   34  N3  UNL     1     -37.102  -2.207  45.676  1.00  0.00    -0.240 N
HETATM   35  O1  UNL     1     -38.360  -1.924  45.554  1.00  0.00    -0.155 OA
ATOM     36  H3  UNL     1     -36.665  -3.085  45.394  1.00  0.00     0.196 HD
HETATM   37  N4  UNL     1     -38.612  -0.738  46.001  1.00  0.00    -0.224 N
HETATM   38  C5  UNL     1     -37.450  -0.219  46.444  1.00  0.00     0.147 A
ATOM     39  H4  UNL     1     -39.523  -0.280  46.017  1.00  0.00     0.198 HD
BRANCH  38  40
HETATM   40  N5  UNL     1     -37.288   0.910  46.985  1.00  0.00    -0.382 N
ATOM     41  H52 UNL     1     -36.507   1.549  46.837  1.00  0.00     0.157 HD
ATOM     42  H51 UNL     1     -37.950   1.341  47.630  1.00  0.00     0.157 HD
ENDBRANCH  38  40
ENDBRANCH  32  33
ENDBRANCH  29  32
BRANCH  31  43
HETATM   43  N7  UNL     1     -33.816  -3.650  47.827  1.00  0.00    -0.307 N
ATOM     44  H72 UNL     1     -33.090  -4.355  47.957  1.00  0.00     0.180 HD
ATOM     45  H71 UNL     1     -34.714  -4.116  47.695  1.00  0.00     0.180 HD
ENDBRANCH  31  43
ENDBRANCH  24  25
ENDBRANCH  23  24
ENDBRANCH   1  23
BRANCH  19  46
HETATM   46  N15 UNL     1     -27.324  -5.966  49.191  1.00  0.00    -0.234 N
ATOM     47 2H15 UNL     1     -26.581  -6.592  49.502  1.00  0.00     0.174 HD
ATOM     48 1H15 UNL     1     -28.019  -6.256  48.504  1.00  0.00     0.174 HD
ENDBRANCH  19  46
TORSDOF 8
ENDMDL