MODEL 2
REMARK VINA RESULT: -7.198414147      5.648      9.612
REMARK  10 active torsions:
REMARK  status: ('A' for Active; 'I' for Inactive)
REMARK    1  A    between atoms: S1_2  and  C2_3
REMARK    2  A    between atoms: C3_8  and  C4_9
REMARK    3  A    between atoms: C5_10  and  C6_11
REMARK    4  A    between atoms: N3_12  and  N4_14
REMARK       I    between atoms: C7_16  and  N6_18
REMARK    5  A    between atoms: N6_18  and  C8_20
REMARK    6  A    between atoms: C9_25  and  C10_26
REMARK       I    between atoms: C10_26  and  N9_28
REMARK    7  A    between atoms: N9_28  and  N10_30
REMARK    8  A    between atoms: C11_33  and  N11_34
REMARK    9  A    between atoms: N11_34  and  O2_36
REMARK   10  A    between atoms: C12_43  and  N14_44
ROOT
HETATM    1  N4  UNL     1     -38.230  -0.435  45.154  1.00  0.00    -0.273 N
ATOM      2  H4  UNL     1     -37.645  -1.198  45.496  1.00  0.00     0.189 HD
HETATM    3  C7  UNL     1     -37.666   0.566  44.579  1.00  0.00     0.221 C
HETATM    4  N5  UNL     1     -36.254   0.561  44.447  1.00  0.00    -0.061 NA
HETATM    5  N6  UNL     1     -38.391   1.668  44.075  1.00  0.00    -0.161 N
ATOM      6  H6  UNL     1     -38.813   2.316  44.740  1.00  0.00     0.187 HD
ENDROOT
BRANCH   1   7
HETATM    7  N3  UNL     1     -39.613  -0.518  45.328  1.00  0.00    -0.307 N
HETATM    8  C6  UNL     1     -40.088  -1.492  46.027  1.00  0.00     0.147 C
ATOM      9  H3  UNL     1     -40.234   0.176  44.913  1.00  0.00     0.186 HD
BRANCH   8  10
HETATM   10  C5  UNL     1     -39.212  -2.490  46.624  1.00  0.00     0.134 A
HETATM   11  C4  UNL     1     -38.809  -2.576  47.933  1.00  0.00     0.099 A
HETATM   12  C12 UNL     1     -37.992  -3.685  47.983  1.00  0.00     0.137 A
HETATM   13  N13 UNL     1     -37.928  -4.219  46.745  1.00  0.00    -0.244 N
HETATM   14  O3  UNL     1     -38.657  -3.492  45.965  1.00  0.00    -0.234 OA
ATOM     15  H13 UNL     1     -37.398  -5.047  46.474  1.00  0.00     0.196 HD
BRANCH  11  16
HETATM   16  C3  UNL     1     -39.185  -1.674  49.002  1.00  0.00     0.182 A
HETATM   17  N2  UNL     1     -40.311  -0.944  48.984  1.00  0.00    -0.276 N
HETATM   18  N1  UNL     1     -40.346  -0.248  50.083  1.00  0.00    -0.272 N
ATOM     19  H2  UNL     1     -41.013  -0.936  48.243  1.00  0.00     0.189 HD
HETATM   20  C2  UNL     1     -39.247  -0.529  50.804  1.00  0.00     0.203 A
ATOM     21  H1  UNL     1     -41.084   0.403  50.352  1.00  0.00     0.189 HD
HETATM   22  O4  UNL     1     -38.570  -1.394  50.121  1.00  0.00    -0.267 OA
BRANCH  20  23
HETATM   23  S1  UNL     1     -38.915   0.222  52.389  1.00  0.00    -0.089 SA
HETATM   24  C1  UNL     1     -39.874   1.723  52.642  1.00  0.00     0.099 C
ENDBRANCH  20  23
ENDBRANCH  11  16
BRANCH  12  25
HETATM   25  N14 UNL     1     -37.417  -4.091  49.063  1.00  0.00    -0.383 N
ATOM     26 2H14 UNL     1     -36.764  -3.588  49.663  1.00  0.00     0.157 HD
ATOM     27 1H14 UNL     1     -37.562  -5.020  49.459  1.00  0.00     0.157 HD
ENDBRANCH  12  25
ENDBRANCH   8  10
ENDBRANCH   1   7
BRANCH   5  28
HETATM   28  C8  UNL     1     -38.546   1.895  42.810  1.00  0.00     0.701 A
HETATM   29  N7  UNL     1     -37.552   2.318  42.016  1.00  0.00    -0.131 N
HETATM   30  N8  UNL     1     -37.757   2.538  40.728  1.00  0.00    -0.278 N
ATOM     31  H7  UNL     1     -36.624   2.472  42.410  1.00  0.00     0.205 HD
HETATM   32  C9  UNL     1     -38.977   2.337  40.209  1.00  0.00     0.164 A
ATOM     33  H8  UNL     1     -36.992   2.859  40.134  1.00  0.00     0.188 HD
HETATM   34  C11 UNL     1     -40.000   1.903  41.023  1.00  0.00     0.174 A
HETATM   35  N12 UNL     1     -39.801   1.679  42.322  1.00  0.00    -0.171 N
ATOM     36  H12 UNL     1     -40.557   1.358  42.927  1.00  0.00     0.186 HD
BRANCH  32  37
HETATM   37  C10 UNL     1     -39.232   2.570  38.798  1.00  0.00     0.291 C
HETATM   38  O1  UNL     1     -39.658   1.632  38.065  1.00  0.00    -0.264 OA
HETATM   39  N9  UNL     1     -38.993   3.866  38.270  1.00  0.00    -0.271 N
ATOM     40  H9  UNL     1     -38.649   4.597  38.892  1.00  0.00     0.189 HD
BRANCH  39  41
HETATM   41  N10 UNL     1     -39.214   4.169  36.928  1.00  0.00    -0.342 N
ATOM     42 2H10 UNL     1     -39.622   3.446  36.336  1.00  0.00     0.176 HD
ATOM     43 1H10 UNL     1     -38.982   5.081  36.534  1.00  0.00     0.176 HD
ENDBRANCH  39  41
ENDBRANCH  32  37
BRANCH  34  44
HETATM   44  N11 UNL     1     -41.158   1.718  40.497  1.00  0.00    -0.250 N
ATOM     45  H11 UNL     1     -41.789   2.514  40.396  1.00  0.00     0.196 HD
BRANCH  44  46
HETATM   46  O2  UNL     1     -41.573   0.473  40.065  1.00  0.00    -0.288 OA
ATOM     47  H2  UNL     1     -41.332   0.133  39.212  1.00  0.00     0.244 HD
ENDBRANCH  44  46
ENDBRANCH  34  44
ENDBRANCH   5  28
TORSDOF 10
ENDMDL