MODEL 2
REMARK VINA RESULT: -4.329724872      1.866      2.424
REMARK  0 active torsions:
REMARK  status: ('A' for Active; 'I' for Inactive)
ROOT
HETATM    1  N1  UNL     1      86.582 -53.831 -26.822  1.00  0.00    -0.196 NA
HETATM    2  C1  UNL     1      85.972 -53.480 -25.911  1.00  0.00     0.080 C
HETATM    3  C2  UNL     1      85.229 -53.027 -24.775  1.00  0.00     0.150 C
HETATM    4  C3  UNL     1      84.282 -54.031 -24.137  1.00  0.00     0.308 C
HETATM    5  N2  UNL     1      84.583 -53.409 -22.864  1.00  0.00     0.110 N
HETATM    6  C4  UNL     1      83.919 -52.151 -22.652  1.00  0.00     0.395 C
HETATM    7  N3  UNL     1      83.812 -51.380 -23.888  1.00  0.00    -0.361 N
ATOM      8  H3  UNL     1      83.248 -50.532 -23.921  1.00  0.00     0.161 HD
HETATM    9  C5  UNL     1      84.435 -51.783 -24.927  1.00  0.00     0.081 C
HETATM   10  S1  UNL     1      84.391 -50.944 -26.487  1.00  0.00    -0.036 SA
HETATM   11  C6  UNL     1      85.903 -53.106 -23.428  1.00  0.00     0.308 C
ENDROOT
TORSDOF 0
ENDMDL