MODEL 2
REMARK VINA RESULT: -4.093373812      1.350      4.008
REMARK  0 active torsions:
REMARK  status: ('A' for Active; 'I' for Inactive)
ROOT
HETATM    1  C1  UNL     1      83.731 -50.681 -26.296  1.00  0.00     0.310 C
HETATM    2  N1  UNL     1      84.372 -51.974 -26.077  1.00  0.00     0.086 N
HETATM    3  C2  UNL     1      84.629 -52.198 -24.688  1.00  0.00     0.274 C
HETATM    4  C3  UNL     1      85.936 -52.950 -24.652  1.00  0.00     0.064 C
HETATM    5  C4  UNL     1      86.359 -53.112 -26.115  1.00  0.00     0.073 C
HETATM    6  C5  UNL     1      85.793 -54.348 -26.717  1.00  0.00     0.036 C
HETATM    7  C6  UNL     1      86.808 -55.236 -27.397  1.00  0.00     0.024 C
HETATM    8  C7  UNL     1      87.719 -54.258 -28.154  1.00  0.00     0.139 C
HETATM    9  N2  UNL     1      88.391 -53.505 -27.140  1.00  0.00    -0.340 N
ATOM     10  H2  UNL     1      89.404 -53.389 -27.174  1.00  0.00     0.179 HD
HETATM   11  N3  UNL     1      87.748 -53.004 -26.237  1.00  0.00    -0.329 N
ATOM     12  H3  UNL     1      88.252 -52.474 -25.526  1.00  0.00     0.180 HD
HETATM   13  C8  UNL     1      85.648 -51.925 -26.763  1.00  0.00     0.304 C
ENDROOT
TORSDOF 0
ENDMDL