MODEL 2
REMARK VINA RESULT: -2.712119911      2.400      3.331
REMARK  0 active torsions:
REMARK  status: ('A' for Active; 'I' for Inactive)
ROOT
HETATM    1  C1  UNL     1      92.556 -48.459 -27.211  1.00  0.00     0.056 C
HETATM    2  C2  UNL     1      94.032 -48.359 -27.112  1.00  0.00     0.276 C
HETATM    3  N1  UNL     1      94.722 -47.942 -28.271  1.00  0.00     0.106 N
HETATM    4  C3  UNL     1      94.884 -49.027 -29.210  1.00  0.00     0.348 C
HETATM    5  S1  UNL     1      93.203 -49.711 -29.492  1.00  0.00    -0.124 SA
HETATM    6  C4  UNL     1      92.098 -48.506 -28.657  1.00  0.00     0.113 C
HETATM    7  S2  UNL     1      92.571 -46.875 -29.360  1.00  0.00    -0.124 SA
HETATM    8  C5  UNL     1      94.328 -46.713 -28.849  1.00  0.00     0.348 C
ENDROOT
TORSDOF 0
ENDMDL