MODEL 4
REMARK VINA RESULT: -6.268968625      2.081      2.588
REMARK  4 active torsions:
REMARK  status: ('A' for Active; 'I' for Inactive)
REMARK    1  A    between atoms: C2_2  and  C3_3
REMARK    2  A    between atoms: C2_2  and  O1_12
REMARK    3  A    between atoms: C4_4  and  C5_5
REMARK    4  A    between atoms: O1_12  and  O2_13
ROOT
HETATM    1  C5  UNL     1      87.000 -53.985 -26.881  1.00  0.00     0.086 A
HETATM    2  C6  UNL     1      88.194 -53.433 -27.284  1.00  0.00     0.039 A
HETATM    3  C7  UNL     1      89.015 -54.094 -28.173  1.00  0.00     0.004 A
HETATM    4  C8  UNL     1      88.596 -55.331 -28.647  1.00  0.00     0.017 A
HETATM    5  C9  UNL     1      87.398 -55.872 -28.236  1.00  0.00     0.089 A
HETATM    6  N1  UNL     1      86.641 -55.186 -27.370  1.00  0.00    -0.359 N
ATOM      7  H1  UNL     1      85.754 -55.590 -27.070  1.00  0.00     0.166 HD
ENDROOT
BRANCH   1   8
HETATM    8  C4  UNL     1      86.107 -53.343 -25.959  1.00  0.00    -0.041 C
HETATM    9  C3  UNL     1      85.357 -52.787 -25.192  1.00  0.00    -0.033 C
BRANCH   9  10
HETATM   10  C2  UNL     1      84.477 -52.105 -24.286  1.00  0.00     0.150 C
HETATM   11  C1  UNL     1      84.324 -52.454 -23.029  1.00  0.00     0.064 C
BRANCH  10  12
HETATM   12  O1  UNL     1      83.768 -51.028 -24.796  1.00  0.00    -0.192 OA
BRANCH  12  13
HETATM   13  O2  UNL     1      83.930 -50.686 -26.083  1.00  0.00    -0.244 OA
ATOM     14  H2  UNL     1      84.156 -49.790 -26.301  1.00  0.00     0.254 HD
ENDBRANCH  12  13
ENDBRANCH  10  12
ENDBRANCH   9  10
ENDBRANCH   1   8
TORSDOF 4
ENDMDL