MODEL 4
REMARK VINA RESULT: -6.306263726      1.416      1.957
REMARK  0 active torsions:
REMARK  status: ('A' for Active; 'I' for Inactive)
ROOT
HETATM    1  N1  UNL     1      83.226 -57.545 -22.952  1.00  0.00    -0.197 NA
HETATM    2  C1  UNL     1      83.956 -56.730 -23.328  1.00  0.00     0.069 C
HETATM    3  C2  UNL     1      84.856 -55.704 -23.820  1.00  0.00     0.173 C
HETATM    4  C3  UNL     1      84.529 -54.307 -23.339  1.00  0.00     0.348 C
HETATM    5  C4  UNL     1      83.243 -54.157 -22.707  1.00  0.00     0.097 C
HETATM    6  N2  UNL     1      82.214 -54.028 -22.188  1.00  0.00    -0.195 NA
HETATM    7  N3  UNL     1      84.610 -53.799 -24.713  1.00  0.00     0.114 N
HETATM    8  C5  UNL     1      85.824 -53.131 -24.966  1.00  0.00     0.275 C
HETATM    9  C6  UNL     1      86.455 -53.335 -26.291  1.00  0.00     0.030 C
HETATM   10  C7  UNL     1      85.938 -54.472 -27.089  1.00  0.00     0.004 C
HETATM   11  C8  UNL     1      85.376 -55.577 -26.236  1.00  0.00     0.037 C
HETATM   12  C9  UNL     1      84.453 -55.115 -25.176  1.00  0.00     0.245 C
ENDROOT
TORSDOF 0
ENDMDL