MODEL 1
REMARK VINA RESULT: -3.899727360      0.000      0.000
REMARK  0 active torsions:
REMARK  status: ('A' for Active; 'I' for Inactive)
ROOT
HETATM    1  C1  UNL     1      84.045 -56.381 -23.668  1.00  0.00     0.138 C
HETATM    2  N1  UNL     1      83.800 -55.084 -24.249  1.00  0.00    -0.203 NA
HETATM    3  S1  UNL     1      84.772 -55.015 -25.743  1.00  0.00    -0.072 SA
HETATM    4  C2  UNL     1      85.661 -53.415 -25.683  1.00  0.00     0.093 C
HETATM    5  C3  UNL     1      84.579 -52.374 -25.436  1.00  0.00     0.023 C
HETATM    6  C4  UNL     1      84.458 -52.213 -23.940  1.00  0.00     0.093 C
HETATM    7  S2  UNL     1      84.226 -53.796 -23.146  1.00  0.00    -0.072 SA
ENDROOT
TORSDOF 0
ENDMDL