MODEL 3
REMARK VINA RESULT: -3.378832602      1.779      2.879
REMARK  0 active torsions:
REMARK  status: ('A' for Active; 'I' for Inactive)
ROOT
HETATM    1  C1  UNL     1      91.913 -48.317 -27.029  1.00  0.00     0.033 C
HETATM    2  C2  UNL     1      93.333 -48.575 -27.386  1.00  0.00     0.038 C
HETATM    3  C3  UNL     1      93.860 -47.994 -28.619  1.00  0.00     0.238 C
HETATM    4  C4  UNL     1      94.641 -49.132 -29.324  1.00  0.00     0.114 C
HETATM    5  S1  UNL     1      93.084 -50.037 -29.759  1.00  0.00    -0.101 SA
HETATM    6  C5  UNL     1      92.177 -48.544 -30.162  1.00  0.00     0.523 C
HETATM    7  N1  UNL     1      91.144 -48.080 -29.346  1.00  0.00     0.160 N
HETATM    8  C6  UNL     1      90.930 -48.680 -28.097  1.00  0.00     0.279 C
HETATM    9  C7  UNL     1      91.861 -46.797 -29.272  1.00  0.00     0.551 C
HETATM   10  N2  UNL     1      93.032 -47.516 -29.621  1.00  0.00     0.166 N
ENDROOT
TORSDOF 0
ENDMDL