MODEL 4
REMARK VINA RESULT: -4.204695140      1.084      1.136
REMARK  0 active torsions:
REMARK  status: ('A' for Active; 'I' for Inactive)
ROOT
HETATM    1  N1  UNL     1      86.887 -55.247 -27.964  1.00  0.00    -0.172 NA
HETATM    2  C1  UNL     1      86.326 -54.837 -27.038  1.00  0.00     0.184 C
HETATM    3  N2  UNL     1      85.628 -54.350 -25.889  1.00  0.00    -0.290 N
HETATM    4  C2  UNL     1      84.537 -55.171 -25.442  1.00  0.00     0.214 C
HETATM    5  S1  UNL     1      84.194 -54.971 -23.679  1.00  0.00    -0.143 SA
HETATM    6  C3  UNL     1      84.843 -53.399 -23.165  1.00  0.00     0.058 A
HETATM    7  C4  UNL     1      84.207 -52.213 -23.842  1.00  0.00     0.027 A
HETATM    8  C5  UNL     1      85.656 -52.648 -24.066  1.00  0.00     0.040 A
HETATM    9  C6  UNL     1      86.100 -53.136 -25.353  1.00  0.00     0.082 C
ENDROOT
TORSDOF 0
ENDMDL