MODEL 4
REMARK VINA RESULT: -4.265827916     10.229     11.284
REMARK  2 active torsions:
REMARK  status: ('A' for Active; 'I' for Inactive)
REMARK    1  A    between atoms: O1_1  and  N1_3
REMARK    2  A    between atoms: N1_3  and  N2_5
ROOT
HETATM    1  N2  UNL     1      93.707 -49.039 -29.285  1.00  0.00    -0.265 N
HETATM    2  C1  UNL     1      93.579 -48.284 -27.977  1.00  0.00     0.161 A
HETATM    3  C2  UNL     1      92.295 -48.580 -27.305  1.00  0.00     0.037 C
HETATM    4  C3  UNL     1      91.189 -47.607 -27.592  1.00  0.00     0.016 C
HETATM    5  C4  UNL     1      90.118 -48.278 -28.392  1.00  0.00     0.008 C
HETATM    6  C5  UNL     1      90.185 -48.080 -29.850  1.00  0.00     0.031 C
HETATM    7  C6  UNL     1      91.457 -47.574 -30.416  1.00  0.00     0.275 C
HETATM    8  N3  UNL     1      92.357 -46.950 -29.532  1.00  0.00     0.115 N
HETATM    9  C7  UNL     1      91.779 -46.418 -28.325  1.00  0.00     0.280 C
HETATM   10  C8  UNL     1      93.566 -47.623 -29.249  1.00  0.00     0.365 A
ENDROOT
BRANCH   1  11
HETATM   11  N1  UNL     1      93.854 -50.351 -29.733  1.00  0.00    -0.210 N
ATOM     12  H1  UNL     1      94.795 -50.726 -29.849  1.00  0.00     0.215 HD
BRANCH  11  13
HETATM   13  O1  UNL     1      92.875 -51.088 -29.999  1.00  0.00    -0.275 OA
ATOM     14  H1  UNL     1      92.933 -51.818 -30.605  1.00  0.00     0.246 HD
ENDBRANCH  11  13
ENDBRANCH   1  11
TORSDOF 2
ENDMDL