MODEL 4
REMARK VINA RESULT: -4.694189145      1.560      3.694
REMARK  1 active torsions:
REMARK  status: ('A' for Active; 'I' for Inactive)
REMARK    1  A    between atoms: O1_2  and  C2_3
ROOT
HETATM    1  C2  UNL     1      84.768 -53.124 -24.352  1.00  0.00     0.262 C
HETATM    2  C3  UNL     1      84.169 -54.039 -23.357  1.00  0.00     0.072 C
HETATM    3  C4  UNL     1      84.711 -55.423 -23.314  1.00  0.00     0.005 C
HETATM    4  C5  UNL     1      84.054 -56.385 -24.274  1.00  0.00     0.002 C
HETATM    5  C6  UNL     1      83.950 -55.876 -25.672  1.00  0.00     0.030 C
HETATM    6  C7  UNL     1      85.098 -54.938 -25.924  1.00  0.00     0.276 C
HETATM    7  N1  UNL     1      84.814 -53.577 -25.695  1.00  0.00     0.123 N
HETATM    8  C8  UNL     1      86.016 -52.774 -25.855  1.00  0.00     0.281 C
HETATM    9  C9  UNL     1      86.258 -52.976 -24.369  1.00  0.00     0.102 C
ENDROOT
BRANCH   1  10
HETATM   10  O1  UNL     1      84.168 -51.865 -24.310  1.00  0.00    -0.357 OA
HETATM   11  C1  UNL     1      83.958 -51.362 -23.065  1.00  0.00     0.204 C
ENDBRANCH   1  10
TORSDOF 1
ENDMDL