MODEL 2
REMARK VINA RESULT: -6.701820400      2.626      7.567
REMARK  10 active torsions:
REMARK  status: ('A' for Active; 'I' for Inactive)
REMARK    1  A    between atoms: C2_2  and  C3_3
REMARK    2  A    between atoms: C3_3  and  C4_4
REMARK    3  A    between atoms: C4_4  and  C6_6
REMARK    4  A    between atoms: C8_11  and  C9_12
REMARK    5  A    between atoms: C9_12  and  C10_13
REMARK    6  A    between atoms: C14_20  and  C15_21
REMARK    7  A    between atoms: C15_21  and  C16_22
REMARK    8  A    between atoms: C19_27  and  O3_28
REMARK    9  A    between atoms: C20_30  and  C22_32
REMARK   10  A    between atoms: C22_32  and  C23_33
ROOT
HETATM    1  C6  UNL     1      15.740  67.763  23.468  1.00  0.00     0.180 C
HETATM    2  N1  UNL     1      14.945  67.707  24.637  1.00  0.00    -0.346 N
ATOM      3  H1  UNL     1      15.111  68.463  25.301  1.00  0.00     0.163 HD
HETATM    4  C7  UNL     1      13.962  66.778  25.036  1.00  0.00     0.241 C
HETATM    5  O1  UNL     1      13.634  66.894  26.285  1.00  0.00    -0.271 OA
HETATM    6  C8  UNL     1      13.286  65.741  24.275  1.00  0.00     0.177 C
HETATM    7  N2  UNL     1      14.124  64.671  23.775  1.00  0.00    -0.346 N
ATOM      8  H2  UNL     1      14.555  64.825  22.863  1.00  0.00     0.163 HD
HETATM    9  C13 UNL     1      14.414  63.441  24.401  1.00  0.00     0.241 C
HETATM   10  O2  UNL     1      14.354  62.320  23.776  1.00  0.00    -0.271 OA
HETATM   11  C14 UNL     1      14.825  63.287  25.849  1.00  0.00     0.175 C
HETATM   12  N3  UNL     1      16.005  62.477  25.975  1.00  0.00    -0.359 N
ATOM     13  H3  UNL     1      15.780  61.486  26.056  1.00  0.00     0.162 HD
HETATM   14  C19 UNL     1      17.367  62.700  26.015  1.00  0.00     0.140 C
HETATM   15  C20 UNL     1      18.384  63.053  24.998  1.00  0.00     0.094 C
HETATM   16  C21 UNL     1      17.841  63.336  23.627  1.00  0.00     0.048 C
HETATM   17  N4  UNL     1      19.126  64.265  25.325  1.00  0.00    -0.343 N
ATOM     18  H4  UNL     1      20.058  64.316  24.914  1.00  0.00     0.163 HD
HETATM   19  C26 UNL     1      18.779  65.358  26.098  1.00  0.00     0.241 C
HETATM   20  O4  UNL     1      19.521  65.617  27.114  1.00  0.00    -0.271 OA
HETATM   21  C27 UNL     1      17.632  66.297  25.904  1.00  0.00     0.172 C
HETATM   22  C28 UNL     1      17.389  67.119  27.136  1.00  0.00     0.042 C
HETATM   23  N5  UNL     1      17.891  67.224  24.808  1.00  0.00    -0.346 N
ATOM     24  H5  UNL     1      18.716  67.816  24.913  1.00  0.00     0.163 HD
HETATM   25  C29 UNL     1      17.156  67.408  23.631  1.00  0.00     0.241 C
HETATM   26  O5  UNL     1      17.815  67.240  22.534  1.00  0.00    -0.271 OA
ENDROOT
BRANCH   1  27
HETATM   27  C4  UNL     1      15.579  69.110  22.750  1.00  0.00     0.013 C
HETATM   28  C5  UNL     1      15.280  70.218  23.737  1.00  0.00     0.012 C
BRANCH  27  29
HETATM   29  C3  UNL     1      14.471  69.058  21.748  1.00  0.00     0.006 C
BRANCH  29  30
HETATM   30  C2  UNL     1      14.610  67.886  20.795  1.00  0.00    -0.004 C
HETATM   31  C1  UNL     1      13.336  67.895  19.936  1.00  0.00     0.005 C
ENDBRANCH  29  30
ENDBRANCH  27  29
ENDBRANCH   1  27
BRANCH   6  32
HETATM   32  C9  UNL     1      12.390  66.169  23.162  1.00  0.00     0.038 C
BRANCH  32  33
HETATM   33  C10 UNL     1      11.269  67.062  23.440  1.00  0.00    -0.020 C
HETATM   34  C11 UNL     1      10.416  67.450  22.268  1.00  0.00     0.009 C
HETATM   35  C12 UNL     1      10.364  66.616  24.557  1.00  0.00     0.009 C
ENDBRANCH  32  33
ENDBRANCH   6  32
BRANCH  11  36
HETATM   36  C15 UNL     1      13.595  62.682  26.495  1.00  0.00     0.038 C
BRANCH  36  37
HETATM   37  C16 UNL     1      12.858  63.476  27.477  1.00  0.00    -0.020 C
HETATM   38  C17 UNL     1      11.554  64.072  27.102  1.00  0.00     0.009 C
HETATM   39  C18 UNL     1      12.757  62.782  28.850  1.00  0.00     0.009 C
ENDBRANCH  36  37
ENDBRANCH  11  36
BRANCH  15  40
HETATM   40  C22 UNL     1      19.453  61.973  24.967  1.00  0.00     0.043 C
BRANCH  40  41
HETATM   41  C23 UNL     1      19.092  60.570  24.880  1.00  0.00    -0.020 C
HETATM   42  C24 UNL     1      19.787  59.601  25.791  1.00  0.00     0.009 C
HETATM   43  C25 UNL     1      18.852  59.996  23.501  1.00  0.00     0.009 C
ENDBRANCH  40  41
ENDBRANCH  15  40
BRANCH  14  44
HETATM   44  O3  UNL     1      17.966  62.593  27.167  1.00  0.00    -0.348 OA
ATOM     45  H3  UNL     1      18.915  62.640  27.178  1.00  0.00     0.219 HD
ENDBRANCH  14  44
TORSDOF 10
ENDMDL