MODEL 4
REMARK VINA RESULT: -6.185217358      1.614      6.844
REMARK  11 active torsions:
REMARK  status: ('A' for Active; 'I' for Inactive)
REMARK    1  A    between atoms: C2_2  and  N1_3
REMARK    2  A    between atoms: C4_8  and  C5_9
REMARK    3  A    between atoms: C5_9  and  C6_10
REMARK    4  A    between atoms: C12_22  and  C13_23
REMARK    5  A    between atoms: C13_23  and  C14_24
REMARK    6  A    between atoms: C17_29  and  O4_30
REMARK    7  A    between atoms: C18_32  and  C19_33
REMARK    8  A    between atoms: C19_33  and  C20_34
REMARK    9  A    between atoms: C23_39  and  O5_40
REMARK   10  A    between atoms: C24_42  and  C25_43
REMARK   11  A    between atoms: C25_43  and  C26_44
ROOT
HETATM    1  N1  UNL     1      12.179  68.191  20.568  1.00  0.00    -0.217 NA
HETATM    2  N2  UNL     1      12.890  67.091  20.089  1.00  0.00    -0.287 N
ATOM      3  H2  UNL     1      12.518  66.173  20.333  1.00  0.00     0.184 HD
HETATM    4  C3  UNL     1      14.062  67.100  19.306  1.00  0.00     0.255 C
HETATM    5  O1  UNL     1      14.271  66.152  18.457  1.00  0.00    -0.270 OA
HETATM    6  C4  UNL     1      15.156  68.089  19.309  1.00  0.00     0.178 C
HETATM    7  N3  UNL     1      15.340  68.733  20.589  1.00  0.00    -0.346 N
ATOM      8  H3  UNL     1      14.523  69.171  21.014  1.00  0.00     0.163 HD
HETATM    9  C9  UNL     1      16.543  68.806  21.291  1.00  0.00     0.236 C
HETATM   10  O2  UNL     1      16.673  69.761  22.139  1.00  0.00    -0.272 OA
HETATM   11  C10 UNL     1      17.704  67.899  21.170  1.00  0.00     0.225 C
HETATM   12  N4  UNL     1      17.445  66.506  21.241  1.00  0.00    -0.351 N
ATOM     13  H4  UNL     1      17.938  65.960  20.535  1.00  0.00     0.163 HD
HETATM   14  C11 UNL     1      16.653  65.742  22.083  1.00  0.00     0.240 C
HETATM   15  O3  UNL     1      15.894  64.890  21.494  1.00  0.00    -0.271 OA
HETATM   16  C12 UNL     1      16.579  65.787  23.591  1.00  0.00     0.175 C
HETATM   17  N5  UNL     1      15.673  66.746  24.106  1.00  0.00    -0.359 N
ATOM     18  H5  UNL     1      16.063  67.688  24.123  1.00  0.00     0.162 HD
HETATM   19  C17 UNL     1      14.369  66.692  24.595  1.00  0.00     0.135 C
HETATM   20  C18 UNL     1      13.214  65.865  24.283  1.00  0.00     0.158 C
HETATM   21  N6  UNL     1      12.686  65.912  22.946  1.00  0.00    -0.361 N
ATOM     22  H6  UNL     1      13.208  65.301  22.318  1.00  0.00     0.162 HD
HETATM   23  C23 UNL     1      11.657  66.564  22.280  1.00  0.00     0.132 C
HETATM   24  C24 UNL     1      11.470  67.965  21.827  1.00  0.00     0.154 C
ENDROOT
BRANCH   6  25
HETATM   25  C5  UNL     1      14.839  69.134  18.261  1.00  0.00     0.038 C
BRANCH  25  26
HETATM   26  C6  UNL     1      16.014  69.621  17.487  1.00  0.00    -0.020 C
HETATM   27  C7  UNL     1      16.383  70.986  18.096  1.00  0.00     0.009 C
HETATM   28  C8  UNL     1      17.250  68.754  17.744  1.00  0.00     0.009 C
ENDBRANCH  25  26
ENDBRANCH   6  25
BRANCH   1  29
HETATM   29  C2  UNL     1      11.194  68.595  19.561  1.00  0.00     0.110 C
HETATM   30  C1  UNL     1      11.402  70.024  19.170  1.00  0.00     0.023 C
ENDBRANCH   1  29
BRANCH  24  31
HETATM   31  C25 UNL     1      11.876  69.041  22.758  1.00  0.00     0.034 C
BRANCH  31  32
HETATM   32  C26 UNL     1      10.841  70.020  23.186  1.00  0.00    -0.021 C
HETATM   33  C27 UNL     1       9.453  69.650  22.699  1.00  0.00     0.009 C
HETATM   34  C28 UNL     1      11.129  71.414  22.598  1.00  0.00     0.009 C
ENDBRANCH  31  32
ENDBRANCH  24  31
BRANCH  23  35
HETATM   35  O5  UNL     1      10.589  65.845  21.941  1.00  0.00    -0.348 OA
ATOM     36  H5  UNL     1       9.839  66.310  21.590  1.00  0.00     0.219 HD
ENDBRANCH  23  35
BRANCH  16  37
HETATM   37  C13 UNL     1      17.962  65.759  24.144  1.00  0.00     0.038 C
BRANCH  37  38
HETATM   38  C14 UNL     1      18.392  64.732  25.080  1.00  0.00    -0.020 C
HETATM   39  C15 UNL     1      18.530  63.372  24.344  1.00  0.00     0.009 C
HETATM   40  C16 UNL     1      19.773  64.934  25.674  1.00  0.00     0.009 C
ENDBRANCH  37  38
ENDBRANCH  16  37
BRANCH  20  41
HETATM   41  C19 UNL     1      13.257  64.409  24.696  1.00  0.00     0.037 C
BRANCH  41  42
HETATM   42  C20 UNL     1      13.972  64.030  25.915  1.00  0.00    -0.020 C
HETATM   43  C21 UNL     1      15.067  63.039  25.715  1.00  0.00     0.009 C
HETATM   44  C22 UNL     1      12.946  63.389  26.883  1.00  0.00     0.009 C
ENDBRANCH  41  42
ENDBRANCH  20  41
BRANCH  19  45
HETATM   45  O4  UNL     1      14.145  67.583  25.534  1.00  0.00    -0.348 OA
ATOM     46  H4  UNL     1      14.075  67.193  26.398  1.00  0.00     0.219 HD
ENDBRANCH  19  45
TORSDOF 11
ENDMDL