MODEL 4
REMARK VINA RESULT: -8.777515919      1.080      1.109
REMARK  12 active torsions:
REMARK  status: ('A' for Active; 'I' for Inactive)
REMARK       I    between atoms: N1_2  and  C2_4
REMARK       I    between atoms: C2_4  and  N3_11
REMARK    1  A    between atoms: N2_5  and  C3_7
REMARK    2  A    between atoms: C10_15  and  C11_16
REMARK    3  A    between atoms: C11_16  and  O1_17
REMARK    4  A    between atoms: C11_16  and  N4_19
REMARK    5  A    between atoms: N4_19  and  C12_21
REMARK    6  A    between atoms: C12_21  and  C13_22
REMARK    7  A    between atoms: C12_21  and  C16_27
REMARK    8  A    between atoms: C13_22  and  C14_23
REMARK    9  A    between atoms: C14_23  and  C15_24
REMARK       I    between atoms: C16_27  and  N5_29
REMARK   10  A    between atoms: N5_29  and  C17_31
REMARK   11  A    between atoms: C17_31  and  C18_32
REMARK       I    between atoms: C18_32  and  N6_34
REMARK   12  A    between atoms: N6_34  and  C19_36
ROOT
HETATM    1  C12 UNL     1      17.683  62.281  25.314  1.00  0.00     0.176 C
ENDROOT
BRANCH   1   2
HETATM    2  N4  UNL     1      16.717  62.077  24.161  1.00  0.00    -0.359 N
ATOM      3  H4  UNL     1      16.171  61.218  24.091  1.00  0.00     0.162 HD
BRANCH   2   4
HETATM    4  C11 UNL     1      16.585  63.072  23.204  1.00  0.00     0.136 C
BRANCH   4   5
HETATM    5  C10 UNL     1      15.872  64.290  23.253  1.00  0.00     0.176 C
HETATM    6  N3  UNL     1      15.667  65.233  22.254  1.00  0.00    -0.206 N
HETATM    7  C2  UNL     1      15.747  65.476  20.857  1.00  0.00     0.672 C
HETATM    8  C7  UNL     1      15.111  66.368  23.096  1.00  0.00     0.142 C
HETATM    9  N1  UNL     1      16.407  64.592  19.965  1.00  0.00    -0.231 N
HETATM   10  N2  UNL     1      15.206  66.501  20.346  1.00  0.00    -0.218 N
HETATM   11  C1  UNL     1      17.603  64.911  19.210  1.00  0.00     0.165 C
ATOM     12  H1  UNL     1      16.009  63.660  19.845  1.00  0.00     0.177 HD
ATOM     13  H2  UNL     1      14.781  67.030  21.108  1.00  0.00     0.178 HD
HETATM   14  C8  UNL     1      13.973  65.574  23.753  1.00  0.00     0.023 C
HETATM   15  C9  UNL     1      14.419  64.122  23.769  1.00  0.00     0.036 C
BRANCH  10  16
HETATM   16  C3  UNL     1      14.961  67.183  19.201  1.00  0.00     0.036 C
HETATM   17  C4  UNL     1      16.058  68.020  18.584  1.00  0.00     0.038 C
HETATM   18  C5  UNL     1      13.839  68.231  19.533  1.00  0.00     0.038 C
HETATM   19  C6  UNL     1      14.278  66.295  18.151  1.00  0.00     0.038 C
ENDBRANCH  10  16
ENDBRANCH   4   5
BRANCH   4  20
HETATM   20  O1  UNL     1      17.216  62.828  22.089  1.00  0.00    -0.348 OA
ATOM     21  H1  UNL     1      16.908  62.076  21.596  1.00  0.00     0.219 HD
ENDBRANCH   4  20
ENDBRANCH   2   4
ENDBRANCH   1   2
BRANCH   1  22
HETATM   22  C13 UNL     1      18.339  60.931  25.447  1.00  0.00     0.045 C
BRANCH  22  23
HETATM   23  C14 UNL     1      19.246  60.495  24.370  1.00  0.00     0.116 C
BRANCH  23  24
HETATM   24  C15 UNL     1      18.659  59.392  23.590  1.00  0.00     0.172 C
HETATM   25  O2  UNL     1      18.922  58.186  23.745  1.00  0.00    -0.648 OA
HETATM   26  O3  UNL     1      17.730  59.703  22.592  1.00  0.00    -0.648 OA
ENDBRANCH  23  24
ENDBRANCH  22  23
ENDBRANCH   1  22
BRANCH   1  27
HETATM   27  C16 UNL     1      16.865  62.658  26.481  1.00  0.00     0.240 C
HETATM   28  O4  UNL     1      15.892  61.931  26.805  1.00  0.00    -0.271 OA
HETATM   29  N5  UNL     1      17.080  63.800  27.289  1.00  0.00    -0.351 N
ATOM     30  H5  UNL     1      17.857  64.414  27.044  1.00  0.00     0.163 HD
BRANCH  29  31
HETATM   31  C17 UNL     1      16.288  64.154  28.422  1.00  0.00     0.225 C
BRANCH  31  32
HETATM   32  C18 UNL     1      14.824  64.036  28.218  1.00  0.00     0.235 C
HETATM   33  O5  UNL     1      14.171  64.746  27.432  1.00  0.00    -0.272 OA
HETATM   34  N6  UNL     1      14.146  63.039  28.980  1.00  0.00    -0.350 N
ATOM     35  H6  UNL     1      14.686  62.465  29.628  1.00  0.00     0.163 HD
BRANCH  34  36
HETATM   36  C19 UNL     1      12.732  62.815  28.867  1.00  0.00     0.034 C
HETATM   37  C20 UNL     1      11.917  64.040  29.094  1.00  0.00     0.035 C
HETATM   38  C21 UNL     1      10.439  63.687  29.063  1.00  0.00    -0.012 C
HETATM   39  C22 UNL     1      10.091  63.151  27.688  1.00  0.00     0.009 C
HETATM   40  C26 UNL     1      10.173  62.694  30.158  1.00  0.00     0.009 C
HETATM   41  C23 UNL     1      10.920  61.922  27.468  1.00  0.00    -0.012 C
HETATM   42  C24 UNL     1      10.579  60.882  28.513  1.00  0.00     0.009 C
HETATM   43  C28 UNL     1      12.390  62.201  27.528  1.00  0.00     0.035 C
HETATM   44  C25 UNL     1      10.945  61.413  29.864  1.00  0.00    -0.012 C
HETATM   45  C27 UNL     1      12.395  61.745  29.921  1.00  0.00     0.035 C
ENDBRANCH  34  36
ENDBRANCH  31  32
ENDBRANCH  29  31
ENDBRANCH   1  27
TORSDOF 12
ENDMDL