MODEL 4
REMARK VINA RESULT: -7.089967895      2.054      3.711
REMARK  13 active torsions:
REMARK  status: ('A' for Active; 'I' for Inactive)
REMARK    1  A    between atoms: C3_3  and  C4_4
REMARK    2  A    between atoms: C4_4  and  C5_5
REMARK    3  A    between atoms: C5_5  and  C6_6
REMARK    4  A    between atoms: C8_11  and  C9_12
REMARK    5  A    between atoms: C12_17  and  O2_18
REMARK    6  A    between atoms: C13_20  and  C14_21
REMARK    7  A    between atoms: C14_21  and  C15_22
REMARK    8  A    between atoms: C18_27  and  O3_28
REMARK    9  A    between atoms: C19_30  and  C20_31
REMARK   10  A    between atoms: C20_31  and  C21_32
REMARK   11  A    between atoms: C24_37  and  O4_38
REMARK   12  A    between atoms: C25_40  and  C26_41
REMARK   13  A    between atoms: C26_41  and  C27_42
ROOT
HETATM    1  C1  UNL     1      13.205  68.180  17.213  1.00  0.00     0.112 C
HETATM    2  C2  UNL     1      13.315  68.374  18.663  1.00  0.00    -0.111 C
HETATM    3  C3  UNL     1      13.421  68.526  19.854  1.00  0.00    -0.107 C
ENDROOT
BRANCH   3   4
HETATM    4  C4  UNL     1      13.574  68.701  21.322  1.00  0.00     0.096 C
BRANCH   4   5
HETATM    5  C5  UNL     1      14.960  68.410  21.716  1.00  0.00     0.047 C
BRANCH   5   6
HETATM    6  C6  UNL     1      15.209  66.964  22.198  1.00  0.00     0.177 C
HETATM    7  N1  UNL     1      14.130  66.497  23.007  1.00  0.00    -0.346 N
HETATM    8  C7  UNL     1      14.031  65.859  24.252  1.00  0.00     0.241 C
ATOM      9  H1  UNL     1      13.220  66.668  22.580  1.00  0.00     0.163 HD
HETATM   10  O1  UNL     1      13.511  64.715  24.212  1.00  0.00    -0.271 OA
HETATM   11  C8  UNL     1      14.436  66.330  25.585  1.00  0.00     0.179 C
HETATM   12  N2  UNL     1      14.810  65.443  26.608  1.00  0.00    -0.359 N
HETATM   13  C12 UNL     1      15.368  64.214  26.840  1.00  0.00     0.135 C
ATOM     14  H2  UNL     1      14.583  65.870  27.506  1.00  0.00     0.162 HD
HETATM   15  C13 UNL     1      15.164  62.810  26.473  1.00  0.00     0.158 C
HETATM   16  N3  UNL     1      16.434  62.099  26.191  1.00  0.00    -0.357 N
HETATM   17  C18 UNL     1      17.726  62.466  25.968  1.00  0.00     0.159 C
ATOM     18  H3  UNL     1      16.310  61.088  26.154  1.00  0.00     0.162 HD
HETATM   19  C19 UNL     1      18.436  63.106  24.831  1.00  0.00     0.062 C
HETATM   20  N4  UNL     1      17.867  62.769  23.545  1.00  0.00    -0.339 N
HETATM   21  C24 UNL     1      16.981  63.350  22.671  1.00  0.00     0.139 C
ATOM     22  H4  UNL     1      18.211  61.873  23.199  1.00  0.00     0.167 HD
HETATM   23  C25 UNL     1      17.028  64.450  21.706  1.00  0.00     0.159 C
HETATM   24  N5  UNL     1      17.459  65.732  22.177  1.00  0.00    -0.347 N
HETATM   25  C30 UNL     1      16.576  66.750  22.592  1.00  0.00     0.241 C
ATOM     26  H5  UNL     1      18.461  65.920  22.214  1.00  0.00     0.163 HD
HETATM   27  O5  UNL     1      17.098  67.581  23.431  1.00  0.00    -0.271 OA
BRANCH  11  28
HETATM   28  C9  UNL     1      13.286  67.248  26.115  1.00  0.00     0.009 C
HETATM   29  C10 UNL     1      13.759  68.586  26.535  1.00  0.00     0.012 C
HETATM   30  C11 UNL     1      12.491  66.582  27.180  1.00  0.00     0.012 C
ENDBRANCH  11  28
BRANCH  13  31
HETATM   31  O2  UNL     1      16.429  64.280  27.647  1.00  0.00    -0.348 OA
ATOM     32  H2  UNL     1      16.193  64.503  28.540  1.00  0.00     0.219 HD
ENDBRANCH  13  31
BRANCH  15  33
HETATM   33  C14 UNL     1      14.450  62.004  27.580  1.00  0.00     0.037 C
BRANCH  33  34
HETATM   34  C15 UNL     1      13.190  62.525  28.098  1.00  0.00    -0.020 C
HETATM   35  C16 UNL     1      13.019  62.508  29.599  1.00  0.00     0.009 C
HETATM   36  C17 UNL     1      11.925  62.079  27.456  1.00  0.00     0.009 C
ENDBRANCH  33  34
ENDBRANCH  15  33
BRANCH  17  37
HETATM   37  O3  UNL     1      18.534  62.202  26.954  1.00  0.00    -0.345 OA
ATOM     38  H3  UNL     1      18.865  61.312  26.960  1.00  0.00     0.219 HD
ENDBRANCH  17  37
BRANCH  19  39
HETATM   39  C20 UNL     1      18.822  64.525  24.994  1.00  0.00     0.065 C
BRANCH  39  40
HETATM   40  C21 UNL     1      19.749  64.782  26.202  1.00  0.00    -0.017 C
HETATM   41  C22 UNL     1      21.131  64.327  25.867  1.00  0.00     0.010 C
HETATM   42  C23 UNL     1      19.748  66.300  26.377  1.00  0.00     0.010 C
ENDBRANCH  39  40
ENDBRANCH  19  39
BRANCH  21  43
HETATM   43  O4  UNL     1      15.791  62.798  22.684  1.00  0.00    -0.348 OA
ATOM     44  H4  UNL     1      15.200  63.183  23.320  1.00  0.00     0.219 HD
ENDBRANCH  21  43
BRANCH  23  45
HETATM   45  C26 UNL     1      17.847  64.193  20.460  1.00  0.00     0.037 C
BRANCH  45  46
HETATM   46  C27 UNL     1      17.367  64.747  19.182  1.00  0.00    -0.020 C
HETATM   47  C28 UNL     1      15.816  64.856  19.360  1.00  0.00     0.009 C
HETATM   48  C29 UNL     1      17.754  66.193  18.900  1.00  0.00     0.009 C
ENDBRANCH  45  46
ENDBRANCH  23  45
ENDBRANCH   5   6
ENDBRANCH   4   5
ENDBRANCH   3   4
TORSDOF 13
ENDMDL