MODEL 4
REMARK VINA RESULT: -7.184648341      2.172      6.371
REMARK  11 active torsions:
REMARK  status: ('A' for Active; 'I' for Inactive)
REMARK    1  A    between atoms: C2_2  and  C4_4
REMARK    2  A    between atoms: C4_4  and  C5_5
REMARK    3  A    between atoms: C7_10  and  C8_11
REMARK    4  A    between atoms: C8_11  and  C9_12
REMARK    5  A    between atoms: C13_19  and  C14_20
REMARK    6  A    between atoms: C14_20  and  C15_21
REMARK    7  A    between atoms: C15_21  and  C16_22
REMARK    8  A    between atoms: C16_22  and  C17_23
REMARK    9  A    between atoms: C17_23  and  N3_24
REMARK   10  A    between atoms: C18_30  and  O3_31
REMARK   11  A    between atoms: C24_40  and  C25_41
ROOT
HETATM    1  C5  UNL     1      16.721  67.636  20.744  1.00  0.00     0.177 C
HETATM    2  N1  UNL     1      16.866  66.200  20.723  1.00  0.00    -0.346 N
ATOM      3  H1  UNL     1      17.153  65.804  19.828  1.00  0.00     0.163 HD
HETATM    4  C6  UNL     1      16.670  65.267  21.758  1.00  0.00     0.241 C
HETATM    5  O1  UNL     1      15.877  64.293  21.473  1.00  0.00    -0.271 OA
HETATM    6  C7  UNL     1      17.244  65.254  23.105  1.00  0.00     0.177 C
HETATM    7  N2  UNL     1      16.461  65.793  24.171  1.00  0.00    -0.346 N
ATOM      8  H2  UNL     1      16.982  65.950  25.034  1.00  0.00     0.163 HD
HETATM    9  C12 UNL     1      15.100  66.147  24.245  1.00  0.00     0.241 C
HETATM   10  O2  UNL     1      14.916  67.400  24.455  1.00  0.00    -0.271 OA
HETATM   11  C13 UNL     1      13.917  65.328  24.125  1.00  0.00     0.175 C
HETATM   12  N4  UNL     1      12.829  65.729  23.316  1.00  0.00    -0.359 N
ATOM     13  H4  UNL     1      11.980  65.211  23.545  1.00  0.00     0.162 HD
HETATM   14  C18 UNL     1      12.613  66.638  22.297  1.00  0.00     0.135 C
HETATM   15  C19 UNL     1      12.623  68.116  22.268  1.00  0.00     0.161 C
HETATM   16  C20 UNL     1      11.777  68.750  23.377  1.00  0.00     0.035 C
HETATM   17  C21 UNL     1      10.349  68.591  22.917  1.00  0.00     0.022 C
HETATM   18  C22 UNL     1      10.433  68.305  21.447  1.00  0.00     0.127 C
HETATM   19  N5  UNL     1      11.829  68.657  21.143  1.00  0.00    -0.340 N
HETATM   20  C23 UNL     1      12.367  69.369  20.060  1.00  0.00     0.226 C
HETATM   21  O4  UNL     1      11.812  70.488  19.762  1.00  0.00    -0.273 OA
HETATM   22  C24 UNL     1      13.516  68.968  19.216  1.00  0.00     0.099 C
HETATM   23  C28 UNL     1      14.694  69.833  19.517  1.00  0.00     0.137 C
HETATM   24  N6  UNL     1      15.957  69.362  19.018  1.00  0.00    -0.358 N
ATOM     25  H6  UNL     1      16.431  69.960  18.342  1.00  0.00     0.162 HD
HETATM   26  C29 UNL     1      16.598  68.184  19.358  1.00  0.00     0.240 C
HETATM   27  O5  UNL     1      17.149  67.462  18.451  1.00  0.00    -0.271 OA
ENDROOT
BRANCH  11  28
HETATM   28  C14 UNL     1      13.390  64.875  25.515  1.00  0.00     0.035 C
BRANCH  28  29
HETATM   29  C15 UNL     1      13.772  63.511  25.892  1.00  0.00     0.004 C
BRANCH  29  30
HETATM   30  C16 UNL     1      12.930  62.922  26.967  1.00  0.00     0.027 C
BRANCH  30  31
HETATM   31  C17 UNL     1      11.624  63.544  27.271  1.00  0.00     0.229 C
BRANCH  31  32
HETATM   32  N3  UNL     1      10.499  62.687  27.442  1.00  0.00    -0.079 N
ATOM     33  H33 UNL     1      10.672  61.808  26.954  1.00  0.00     0.274 HD
ATOM     34  H32 UNL     1      10.466  62.368  28.410  1.00  0.00     0.274 HD
ATOM     35  H31 UNL     1       9.581  63.043  27.176  1.00  0.00     0.274 HD
ENDBRANCH  31  32
ENDBRANCH  30  31
ENDBRANCH  29  30
ENDBRANCH  28  29
ENDBRANCH  11  28
BRANCH  14  36
HETATM   36  O3  UNL     1      12.347  66.126  21.126  1.00  0.00    -0.348 OA
ATOM     37  H3  UNL     1      12.225  66.750  20.420  1.00  0.00     0.219 HD
ENDBRANCH  14  36
BRANCH   6  38
HETATM   38  C8  UNL     1      17.797  63.935  23.567  1.00  0.00     0.038 C
BRANCH  38  39
HETATM   39  C9  UNL     1      17.066  63.207  24.621  1.00  0.00    -0.020 C
HETATM   40  C10 UNL     1      16.527  61.923  23.940  1.00  0.00     0.009 C
HETATM   41  C11 UNL     1      17.867  62.711  25.793  1.00  0.00     0.009 C
ENDBRANCH  38  39
ENDBRANCH   6  38
BRANCH   1  42
HETATM   42  C4  UNL     1      17.699  68.380  21.554  1.00  0.00     0.038 C
BRANCH  42  43
HETATM   43  C2  UNL     1      17.256  69.274  22.631  1.00  0.00    -0.020 C
HETATM   44  C1  UNL     1      17.516  70.712  22.126  1.00  0.00     0.009 C
HETATM   45  C3  UNL     1      17.967  69.182  23.943  1.00  0.00     0.009 C
ENDBRANCH  42  43
ENDBRANCH   1  42
BRANCH  22  46
HETATM   46  C25 UNL     1      13.053  68.984  17.791  1.00  0.00    -0.008 C
HETATM   47  C26 UNL     1      11.725  68.262  17.590  1.00  0.00     0.010 C
HETATM   48  C27 UNL     1      14.017  68.455  16.787  1.00  0.00     0.010 C
ENDBRANCH  22  46
TORSDOF 11
ENDMDL