MODEL 2
REMARK VINA RESULT: -7.328328804      2.955      5.261
REMARK  9 active torsions:
REMARK  status: ('A' for Active; 'I' for Inactive)
REMARK    1  A    between atoms: C2_2  and  C3_3
REMARK    2  A    between atoms: C3_3  and  C4_4
REMARK    3  A    between atoms: C4_4  and  C5_5
REMARK    4  A    between atoms: C5_5  and  C6_6
REMARK    5  A    between atoms: C6_6  and  C7_7
REMARK    6  A    between atoms: C9_12  and  C10_13
REMARK    7  A    between atoms: C10_13  and  C11_14
REMARK    8  A    between atoms: C15_21  and  C16_22
REMARK    9  A    between atoms: C21_29  and  C22_30
ROOT
HETATM    1  C7  UNL     1      11.622  64.884  27.819  1.00  0.00     0.176 C
HETATM    2  N1  UNL     1      12.828  65.035  27.034  1.00  0.00    -0.346 N
ATOM      3  H1  UNL     1      13.013  65.978  26.693  1.00  0.00     0.163 HD
HETATM    4  C8  UNL     1      13.770  64.080  26.679  1.00  0.00     0.241 C
HETATM    5  O1  UNL     1      14.004  63.932  25.416  1.00  0.00    -0.271 OA
HETATM    6  C9  UNL     1      14.535  63.209  27.618  1.00  0.00     0.177 C
HETATM    7  N2  UNL     1      15.584  62.485  26.943  1.00  0.00    -0.346 N
ATOM      8  H2  UNL     1      15.743  61.543  27.304  1.00  0.00     0.163 HD
HETATM    9  C14 UNL     1      16.414  62.838  25.894  1.00  0.00     0.241 C
HETATM   10  O2  UNL     1      16.403  62.050  24.875  1.00  0.00    -0.271 OA
HETATM   11  C15 UNL     1      17.328  64.000  25.765  1.00  0.00     0.182 C
HETATM   12  N3  UNL     1      17.339  64.598  24.437  1.00  0.00    -0.341 N
HETATM   13  C19 UNL     1      17.538  63.709  23.273  1.00  0.00     0.153 C
HETATM   14  C20 UNL     1      17.206  65.973  24.143  1.00  0.00     0.243 C
HETATM   15  O3  UNL     1      18.168  66.496  23.448  1.00  0.00    -0.271 OA
HETATM   16  C21 UNL     1      16.113  66.906  24.519  1.00  0.00     0.181 C
HETATM   17  N4  UNL     1      15.407  67.361  23.311  1.00  0.00    -0.330 N
ATOM     18  H4  UNL     1      15.842  68.113  22.777  1.00  0.00     0.165 HD
HETATM   19  C25 UNL     1      14.189  66.854  22.828  1.00  0.00     0.316 C
HETATM   20  O4  UNL     1      14.195  66.383  21.627  1.00  0.00    -0.247 OA
HETATM   21  N5  UNL     1      12.952  66.800  23.506  1.00  0.00    -0.343 N
ATOM     22  H5  UNL     1      12.459  65.908  23.480  1.00  0.00     0.164 HD
HETATM   23  C26 UNL     1      12.314  67.863  24.227  1.00  0.00     0.126 C
HETATM   24  C27 UNL     1      10.840  67.581  24.356  1.00  0.00     0.039 C
HETATM   25  C28 UNL     1      10.558  66.413  25.277  1.00  0.00     0.124 C
HETATM   26  N6  UNL     1      10.472  66.860  26.640  1.00  0.00    -0.359 N
ATOM     27  H6  UNL     1      10.140  67.813  26.788  1.00  0.00     0.162 HD
HETATM   28  C29 UNL     1      10.798  66.120  27.795  1.00  0.00     0.240 C
HETATM   29  O5  UNL     1      10.339  66.559  28.907  1.00  0.00    -0.271 OA
ENDROOT
BRANCH   1  30
HETATM   30  C6  UNL     1      10.758  63.729  27.428  1.00  0.00     0.035 C
BRANCH  30  31
HETATM   31  C5  UNL     1      10.879  62.655  28.487  1.00  0.00     0.002 C
BRANCH  31  32
HETATM   32  C4  UNL     1      11.110  61.291  27.871  1.00  0.00     0.000 C
BRANCH  32  33
HETATM   33  C3  UNL     1      10.191  60.244  28.400  1.00  0.00    -0.000 C
BRANCH  33  34
HETATM   34  C2  UNL     1      10.316  60.283  29.929  1.00  0.00    -0.005 C
HETATM   35  C1  UNL     1       9.261  59.415  30.580  1.00  0.00     0.005 C
ENDBRANCH  33  34
ENDBRANCH  32  33
ENDBRANCH  31  32
ENDBRANCH  30  31
ENDBRANCH   1  30
BRANCH   6  36
HETATM   36  C10 UNL     1      15.049  63.943  28.836  1.00  0.00     0.038 C
BRANCH  36  37
HETATM   37  C11 UNL     1      14.194  63.587  30.035  1.00  0.00    -0.020 C
HETATM   38  C12 UNL     1      14.143  62.078  30.144  1.00  0.00     0.009 C
HETATM   39  C13 UNL     1      14.935  64.068  31.296  1.00  0.00     0.009 C
ENDBRANCH  36  37
ENDBRANCH   6  36
BRANCH  11  40
HETATM   40  C16 UNL     1      18.764  63.560  26.029  1.00  0.00     0.009 C
HETATM   41  C17 UNL     1      18.916  62.689  27.224  1.00  0.00     0.012 C
HETATM   42  C18 UNL     1      19.625  64.773  26.172  1.00  0.00     0.012 C
ENDBRANCH  11  40
BRANCH  16  43
HETATM   43  C22 UNL     1      16.582  68.141  25.236  1.00  0.00     0.009 C
HETATM   44  C23 UNL     1      17.224  67.931  26.555  1.00  0.00     0.012 C
HETATM   45  C24 UNL     1      15.569  69.230  25.306  1.00  0.00     0.012 C
ENDBRANCH  16  43
TORSDOF 9
ENDMDL