MODEL 3
REMARK VINA RESULT: -7.451258454      1.544      2.450
REMARK  11 active torsions:
REMARK  status: ('A' for Active; 'I' for Inactive)
REMARK    1  A    between atoms: C2_2  and  C3_3
REMARK    2  A    between atoms: C3_3  and  C5_5
REMARK    3  A    between atoms: C9_14  and  C10_15
REMARK    4  A    between atoms: C14_22  and  C15_23
REMARK    5  A    between atoms: C15_23  and  C16_24
REMARK    6  A    between atoms: C16_24  and  C17_25
REMARK    7  A    between atoms: C17_25  and  C18_26
REMARK    8  A    between atoms: C18_26  and  N3_27
REMARK    9  A    between atoms: N3_27  and  C19_29
REMARK   10  A    between atoms: C19_29  and  N4_31
REMARK   11  A    between atoms: N4_31  and  C20_33
ROOT
HETATM    1  C5  UNL     1      16.164  64.753  27.850  1.00  0.00     0.099 C
HETATM    2  C6  UNL     1      17.568  65.117  27.528  1.00  0.00     0.134 C
HETATM    3  S1  UNL     1      18.647  63.734  27.274  1.00  0.00     0.025 S
HETATM    4  O1  UNL     1      20.132  64.353  26.754  1.00  0.00    -0.258 OA
HETATM    5  C7  UNL     1      18.034  62.547  26.149  1.00  0.00     0.211 C
HETATM    6  C8  UNL     1      18.712  62.732  24.830  1.00  0.00     0.230 C
HETATM    7  O2  UNL     1      19.950  62.536  24.790  1.00  0.00    -0.273 OA
HETATM    8  N1  UNL     1      18.008  63.111  23.663  1.00  0.00    -0.347 N
ATOM      9  H1  UNL     1      18.350  62.767  22.766  1.00  0.00     0.163 HD
HETATM   10  C9  UNL     1      16.827  63.962  23.660  1.00  0.00     0.180 C
HETATM   11  C13 UNL     1      15.595  63.143  23.711  1.00  0.00     0.241 C
HETATM   12  O3  UNL     1      15.742  61.924  23.325  1.00  0.00    -0.271 OA
HETATM   13  N2  UNL     1      14.318  63.551  24.126  1.00  0.00    -0.346 N
ATOM     14  H2  UNL     1      13.578  63.447  23.431  1.00  0.00     0.163 HD
HETATM   15  C14 UNL     1      13.904  64.095  25.390  1.00  0.00     0.176 C
HETATM   16  C26 UNL     1      14.598  65.273  25.874  1.00  0.00     0.240 C
HETATM   17  O4  UNL     1      14.669  66.228  25.007  1.00  0.00    -0.271 OA
HETATM   18  N5  UNL     1      15.196  65.550  27.107  1.00  0.00    -0.354 N
ATOM     19  H5  UNL     1      14.917  66.429  27.545  1.00  0.00     0.163 HD
ENDROOT
BRANCH  15  20
HETATM   20  C15 UNL     1      13.687  62.976  26.377  1.00  0.00     0.035 C
BRANCH  20  21
HETATM   21  C16 UNL     1      12.316  63.261  27.022  1.00  0.00     0.004 C
BRANCH  21  22
HETATM   22  C17 UNL     1      11.664  61.938  27.424  1.00  0.00     0.020 C
BRANCH  22  23
HETATM   23  C18 UNL     1      10.239  62.181  27.786  1.00  0.00     0.122 C
BRANCH  23  24
HETATM   24  N3  UNL     1       9.674  61.034  28.465  1.00  0.00    -0.367 N
ATOM     25  H3  UNL     1       9.255  60.291  27.904  1.00  0.00     0.161 HD
BRANCH  24  26
HETATM   26  C19 UNL     1       9.678  60.900  29.897  1.00  0.00     0.167 C
HETATM   27  S2  UNL     1       9.200  59.451  30.474  1.00  0.00    -0.041 SA
BRANCH  26  28
HETATM   28  N4  UNL     1      10.073  61.980  30.708  1.00  0.00    -0.363 N
ATOM     29  H4  UNL     1       9.544  62.844  30.586  1.00  0.00     0.162 HD
BRANCH  28  30
HETATM   30  C20 UNL     1      11.117  62.025  31.681  1.00  0.00     0.083 C
HETATM   31  C21 UNL     1      11.129  63.325  32.407  1.00  0.00     0.025 C
HETATM   32  C22 UNL     1      12.285  63.413  33.392  1.00  0.00     0.002 C
HETATM   33  C23 UNL     1      13.572  63.160  32.658  1.00  0.00     0.000 C
HETATM   34  C24 UNL     1      13.531  61.735  32.121  1.00  0.00     0.002 C
HETATM   35  C25 UNL     1      12.447  61.741  31.027  1.00  0.00     0.025 C
ENDBRANCH  28  30
ENDBRANCH  26  28
ENDBRANCH  24  26
ENDBRANCH  23  24
ENDBRANCH  22  23
ENDBRANCH  21  22
ENDBRANCH  20  21
ENDBRANCH  15  20
BRANCH  10  36
HETATM   36  C10 UNL     1      16.824  64.778  22.359  1.00  0.00     0.009 C
HETATM   37  C11 UNL     1      17.633  64.141  21.277  1.00  0.00     0.012 C
HETATM   38  C12 UNL     1      17.293  66.191  22.621  1.00  0.00     0.012 C
ENDBRANCH  10  36
BRANCH   1  39
HETATM   39  C3  UNL     1      15.782  64.630  29.272  1.00  0.00     0.005 C
HETATM   40  C4  UNL     1      14.353  65.049  29.526  1.00  0.00     0.012 C
BRANCH  39  41
HETATM   41  C2  UNL     1      16.135  63.404  30.018  1.00  0.00     0.002 C
HETATM   42  C1  UNL     1      17.037  63.530  31.187  1.00  0.00     0.005 C
ENDBRANCH  39  41
ENDBRANCH   1  39
TORSDOF 11
ENDMDL