MODEL 2
REMARK VINA RESULT: -6.498125484      2.008      7.384
REMARK  13 active torsions:
REMARK  status: ('A' for Active; 'I' for Inactive)
REMARK    1  A    between atoms: C2_2  and  C3_3
REMARK    2  A    between atoms: C3_3  and  C4_4
REMARK    3  A    between atoms: C6_8  and  C7_9
REMARK    4  A    between atoms: C7_9  and  C8_10
REMARK    5  A    between atoms: C8_10  and  C9_11
REMARK    6  A    between atoms: C9_11  and  N2_12
REMARK    7  A    between atoms: C12_17  and  O1_18
REMARK    8  A    between atoms: C17_25  and  O2_26
REMARK    9  A    between atoms: C18_28  and  C19_29
REMARK   10  A    between atoms: C19_29  and  C20_30
REMARK   11  A    between atoms: C23_35  and  O3_36
REMARK   12  A    between atoms: C24_38  and  C25_39
REMARK   13  A    between atoms: C25_39  and  C26_40
ROOT
HETATM    1  C4  UNL     1      14.412  67.605  20.460  1.00  0.00     0.077 C
HETATM    2  N1  UNL     1      15.398  66.797  21.006  1.00  0.00    -0.366 N
ATOM      3  H1  UNL     1      16.209  67.243  21.435  1.00  0.00     0.165 HD
HETATM    4  C5  UNL     1      15.335  65.412  20.998  1.00  0.00     0.086 C
HETATM    5  C6  UNL     1      16.633  64.718  20.746  1.00  0.00     0.122 C
HETATM    6  N3  UNL     1      16.895  63.593  21.600  1.00  0.00    -0.364 N
ATOM      7  H3  UNL     1      17.458  62.875  21.145  1.00  0.00     0.162 HD
HETATM    8  C12 UNL     1      16.553  63.262  22.910  1.00  0.00     0.135 C
HETATM    9  C13 UNL     1      16.909  63.797  24.223  1.00  0.00     0.160 C
HETATM   10  C14 UNL     1      18.412  64.083  24.346  1.00  0.00     0.035 C
HETATM   11  C15 UNL     1      18.551  65.553  24.428  1.00  0.00     0.022 C
HETATM   12  C16 UNL     1      17.198  66.134  24.494  1.00  0.00     0.125 C
HETATM   13  N4  UNL     1      16.300  64.971  24.729  1.00  0.00    -0.351 N
HETATM   14  C17 UNL     1      15.060  65.130  25.414  1.00  0.00     0.137 C
HETATM   15  C18 UNL     1      13.773  64.528  25.130  1.00  0.00     0.158 C
HETATM   16  N5  UNL     1      12.770  65.321  24.479  1.00  0.00    -0.361 N
ATOM     17  H5  UNL     1      11.827  64.976  24.658  1.00  0.00     0.162 HD
HETATM   18  C23 UNL     1      12.775  66.436  23.672  1.00  0.00     0.135 C
HETATM   19  C24 UNL     1      13.380  67.766  23.894  1.00  0.00     0.159 C
HETATM   20  N6  UNL     1      13.505  68.584  22.716  1.00  0.00    -0.344 N
ATOM     21  H6  UNL     1      13.633  69.573  22.930  1.00  0.00     0.163 HD
HETATM   22  C29 UNL     1      13.489  68.325  21.360  1.00  0.00     0.264 C
HETATM   23  O4  UNL     1      12.456  68.810  20.738  1.00  0.00    -0.266 OA
ENDROOT
BRANCH   5  24
HETATM   24  C7  UNL     1      17.790  65.685  20.616  1.00  0.00     0.032 C
BRANCH  24  25
HETATM   25  C8  UNL     1      18.282  65.842  19.220  1.00  0.00     0.033 C
BRANCH  25  26
HETATM   26  C9  UNL     1      17.980  67.124  18.541  1.00  0.00     0.271 C
BRANCH  26  27
HETATM   27  N2  UNL     1      19.063  67.612  17.712  1.00  0.00     0.080 N
HETATM   28  C10 UNL     1      19.393  68.991  18.015  1.00  0.00     0.309 C
HETATM   29  C11 UNL     1      20.237  66.801  18.074  1.00  0.00     0.309 C
ENDBRANCH  26  27
ENDBRANCH  25  26
ENDBRANCH  24  25
ENDBRANCH   5  24
BRANCH   8  30
HETATM   30  O1  UNL     1      15.736  62.242  22.974  1.00  0.00    -0.348 OA
ATOM     31  H1  UNL     1      14.881  62.480  23.314  1.00  0.00     0.219 HD
ENDBRANCH   8  30
BRANCH   1  32
HETATM   32  C3  UNL     1      13.615  67.065  19.295  1.00  0.00     0.062 C
BRANCH  32  33
HETATM   33  C2  UNL     1      14.188  67.417  17.953  1.00  0.00     0.002 C
HETATM   34  C1  UNL     1      13.330  68.448  17.228  1.00  0.00     0.005 C
ENDBRANCH  32  33
ENDBRANCH   1  32
BRANCH  14  35
HETATM   35  O2  UNL     1      15.039  65.922  26.455  1.00  0.00    -0.348 OA
ATOM     36  H2  UNL     1      15.108  65.524  27.314  1.00  0.00     0.219 HD
ENDBRANCH  14  35
BRANCH  19  37
HETATM   37  C25 UNL     1      12.818  68.505  25.064  1.00  0.00     0.037 C
BRANCH  37  38
HETATM   38  C26 UNL     1      11.394  68.509  25.349  1.00  0.00    -0.020 C
HETATM   39  C27 UNL     1      10.614  69.761  25.203  1.00  0.00     0.009 C
HETATM   40  C28 UNL     1      10.998  67.889  26.677  1.00  0.00     0.009 C
ENDBRANCH  37  38
ENDBRANCH  19  37
BRANCH  15  41
HETATM   41  C19 UNL     1      13.178  64.185  26.528  1.00  0.00     0.037 C
BRANCH  41  42
HETATM   42  C20 UNL     1      13.168  62.737  26.821  1.00  0.00    -0.020 C
HETATM   43  C21 UNL     1      11.812  62.317  27.331  1.00  0.00     0.009 C
HETATM   44  C22 UNL     1      14.255  62.450  27.825  1.00  0.00     0.009 C
ENDBRANCH  41  42
ENDBRANCH  15  41
BRANCH  18  45
HETATM   45  O3  UNL     1      12.169  66.366  22.523  1.00  0.00    -0.348 OA
ATOM     46  H3  UNL     1      12.609  65.918  21.810  1.00  0.00     0.219 HD
ENDBRANCH  18  45
TORSDOF 13
ENDMDL