MODEL 5
REMARK VINA RESULT: -7.976084286      2.004      3.353
REMARK  12 active torsions:
REMARK  status: ('A' for Active; 'I' for Inactive)
REMARK    1  A    between atoms: C2_2  and  C3_3
REMARK    2  A    between atoms: C3_3  and  C5_5
REMARK    3  A    between atoms: C5_5  and  N1_6
REMARK    4  A    between atoms: C5_5  and  C21_30
REMARK       I    between atoms: N1_6  and  C6_8
REMARK    5  A    between atoms: C6_8  and  C7_10
REMARK    6  A    between atoms: C7_10  and  N2_11
REMARK    7  A    between atoms: C7_10  and  C15_23
REMARK       I    between atoms: N2_11  and  C8_13
REMARK       I    between atoms: C8_13  and  N3_15
REMARK    8  A    between atoms: N3_15  and  C9_17
REMARK    9  A    between atoms: C21_30  and  O3_31
REMARK   10  A    between atoms: C21_30  and  N5_33
REMARK   11  A    between atoms: C27_39  and  C28_40
REMARK   12  A    between atoms: C29_43  and  O5_44
ROOT
HETATM    1  N1  UNL     1      15.670  65.502  22.668  1.00  0.00    -0.347 N
ATOM      2  H1  UNL     1      15.409  64.602  22.263  1.00  0.00     0.163 HD
HETATM    3  C6  UNL     1      16.069  65.562  24.023  1.00  0.00     0.241 C
HETATM    4  O1  UNL     1      16.386  66.716  24.450  1.00  0.00    -0.271 OA
ENDROOT
BRANCH   1   5
HETATM    5  C5  UNL     1      15.624  66.736  21.810  1.00  0.00     0.163 C
BRANCH   5   6
HETATM    6  C3  UNL     1      16.785  66.615  20.847  1.00  0.00     0.012 C
HETATM    7  C4  UNL     1      17.699  67.793  20.805  1.00  0.00     0.012 C
BRANCH   6   8
HETATM    8  C2  UNL     1      17.523  65.342  20.795  1.00  0.00     0.002 C
HETATM    9  C1  UNL     1      17.379  64.573  19.518  1.00  0.00     0.005 C
ENDBRANCH   6   8
ENDBRANCH   5   6
BRANCH   5  10
HETATM   10  C21 UNL     1      14.293  66.702  21.203  1.00  0.00     0.139 C
BRANCH  10  11
HETATM   11  O3  UNL     1      13.314  66.382  22.014  1.00  0.00    -0.348 OA
ATOM     12  H3  UNL     1      13.300  66.852  22.840  1.00  0.00     0.219 HD
ENDBRANCH  10  11
BRANCH  10  13
HETATM   13  N5  UNL     1      13.893  66.961  19.883  1.00  0.00    -0.331 N
HETATM   14  C22 UNL     1      13.968  65.892  18.847  1.00  0.00     0.128 C
HETATM   15  C23 UNL     1      14.765  66.667  17.787  1.00  0.00     0.029 C
HETATM   16  C24 UNL     1      13.955  67.947  17.780  1.00  0.00     0.044 C
HETATM   17  C25 UNL     1      14.776  69.178  17.609  1.00  0.00     0.010 C
HETATM   18  C29 UNL     1      13.304  68.034  19.144  1.00  0.00     0.150 C
HETATM   19  C26 UNL     1      13.973  70.221  18.340  1.00  0.00     0.019 C
HETATM   20  C27 UNL     1      13.490  69.425  19.571  1.00  0.00     0.131 C
BRANCH  20  21
HETATM   21  C28 UNL     1      12.212  70.056  20.046  1.00  0.00     0.240 C
HETATM   22  N6  UNL     1      11.655  69.832  21.329  1.00  0.00    -0.062 NA
HETATM   23  O4  UNL     1      11.615  70.815  19.262  1.00  0.00    -0.276 OA
ENDBRANCH  20  21
BRANCH  18  24
HETATM   24  O5  UNL     1      11.935  67.735  18.902  1.00  0.00    -0.369 OA
ATOM     25  H5  UNL     1      11.488  67.634  19.734  1.00  0.00     0.212 HD
ENDBRANCH  18  24
ENDBRANCH  10  13
ENDBRANCH   5  10
ENDBRANCH   1   5
BRANCH   3  26
HETATM   26  C7  UNL     1      16.120  64.363  24.895  1.00  0.00     0.184 C
BRANCH  26  27
HETATM   27  N2  UNL     1      14.821  63.725  25.007  1.00  0.00    -0.329 N
HETATM   28  C8  UNL     1      14.162  63.630  26.262  1.00  0.00     0.317 C
HETATM   29  O2  UNL     1      14.669  64.088  27.328  1.00  0.00    -0.247 OA
HETATM   30  N3  UNL     1      12.892  63.013  26.399  1.00  0.00    -0.339 N
ATOM     31  H3  UNL     1      12.434  62.626  25.574  1.00  0.00     0.164 HD
ATOM     32  H2  UNL     1      14.375  63.340  24.175  1.00  0.00     0.165 HD
BRANCH  30  33
HETATM   33  C9  UNL     1      12.239  62.922  27.669  1.00  0.00     0.086 C
HETATM   34  C10 UNL     1      13.041  61.948  28.516  1.00  0.00     0.025 C
HETATM   35  C11 UNL     1      12.325  61.741  29.841  1.00  0.00     0.002 C
HETATM   36  C12 UNL     1      10.920  61.284  29.645  1.00  0.00     0.000 C
HETATM   37  C13 UNL     1      10.549  61.168  28.184  1.00  0.00     0.002 C
HETATM   38  C14 UNL     1      10.820  62.484  27.482  1.00  0.00     0.025 C
ENDBRANCH  30  33
ENDBRANCH  26  27
BRANCH  26  39
HETATM   39  C15 UNL     1      17.047  63.305  24.332  1.00  0.00     0.052 C
HETATM   40  C16 UNL     1      18.511  63.598  24.539  1.00  0.00     0.280 C
HETATM   41  N4  UNL     1      19.083  62.253  24.792  1.00  0.00     0.089 N
HETATM   42  C17 UNL     1      18.722  61.456  23.619  1.00  0.00     0.273 C
HETATM   43  C20 UNL     1      18.115  61.854  25.834  1.00  0.00     0.277 C
HETATM   44  C18 UNL     1      17.310  60.940  23.880  1.00  0.00     0.037 C
HETATM   45  C19 UNL     1      16.874  61.957  24.934  1.00  0.00     0.024 C
ENDBRANCH  26  39
ENDBRANCH   3  26
TORSDOF 12
ENDMDL