MODEL 3
REMARK VINA RESULT: -6.862160119      1.303      1.629
REMARK  9 active torsions:
REMARK  status: ('A' for Active; 'I' for Inactive)
REMARK    1  A    between atoms: C2_2  and  C4_4
REMARK    2  A    between atoms: C4_4  and  C5_5
REMARK    3  A    between atoms: C7_10  and  C8_11
REMARK    4  A    between atoms: C8_11  and  C9_12
REMARK    5  A    between atoms: C13_19  and  C14_20
REMARK    6  A    between atoms: C14_20  and  C15_21
REMARK    7  A    between atoms: C19_28  and  C20_29
REMARK    8  A    between atoms: C24_36  and  C25_37
REMARK    9  A    between atoms: C25_37  and  C26_38
ROOT
HETATM    1  C5  UNL     1      15.414  64.432  25.417  1.00  0.00     0.177 C
HETATM    2  N1  UNL     1      14.982  63.067  25.674  1.00  0.00    -0.346 N
ATOM      3  H1  UNL     1      15.069  62.421  24.890  1.00  0.00     0.163 HD
HETATM    4  C6  UNL     1      14.467  62.523  26.849  1.00  0.00     0.241 C
HETATM    5  O1  UNL     1      15.071  61.458  27.260  1.00  0.00    -0.271 OA
HETATM    6  C7  UNL     1      13.348  62.978  27.679  1.00  0.00     0.177 C
HETATM    7  N2  UNL     1      13.312  64.363  28.015  1.00  0.00    -0.346 N
ATOM      8  H2  UNL     1      13.138  64.988  27.228  1.00  0.00     0.163 HD
HETATM    9  C12 UNL     1      13.475  65.002  29.244  1.00  0.00     0.241 C
HETATM   10  O2  UNL     1      12.662  66.002  29.400  1.00  0.00    -0.271 OA
HETATM   11  C13 UNL     1      14.397  64.711  30.339  1.00  0.00     0.177 C
HETATM   12  N3  UNL     1      15.633  64.073  29.984  1.00  0.00    -0.346 N
ATOM     13  H3  UNL     1      15.543  63.072  29.811  1.00  0.00     0.163 HD
HETATM   14  C18 UNL     1      16.929  64.556  29.828  1.00  0.00     0.241 C
HETATM   15  O3  UNL     1      17.808  64.156  30.697  1.00  0.00    -0.271 OA
HETATM   16  C19 UNL     1      17.525  65.464  28.828  1.00  0.00     0.180 C
HETATM   17  N4  UNL     1      18.849  64.967  28.420  1.00  0.00    -0.346 N
ATOM     18  H4  UNL     1      19.658  65.532  28.678  1.00  0.00     0.163 HD
HETATM   19  C23 UNL     1      19.095  63.779  27.706  1.00  0.00     0.241 C
HETATM   20  O4  UNL     1      19.953  62.933  28.164  1.00  0.00    -0.271 OA
HETATM   21  C24 UNL     1      18.465  63.350  26.434  1.00  0.00     0.177 C
HETATM   22  N5  UNL     1      18.000  64.445  25.604  1.00  0.00    -0.346 N
ATOM     23  H5  UNL     1      18.600  65.267  25.544  1.00  0.00     0.163 HD
HETATM   24  C29 UNL     1      16.791  64.479  24.870  1.00  0.00     0.241 C
HETATM   25  O5  UNL     1      16.907  64.560  23.609  1.00  0.00    -0.271 OA
ENDROOT
BRANCH   1  26
HETATM   26  C4  UNL     1      14.439  64.967  24.375  1.00  0.00     0.038 C
BRANCH  26  27
HETATM   27  C2  UNL     1      13.343  65.805  24.937  1.00  0.00    -0.020 C
HETATM   28  C1  UNL     1      14.004  66.975  25.652  1.00  0.00     0.009 C
HETATM   29  C3  UNL     1      12.465  66.421  23.868  1.00  0.00     0.009 C
ENDBRANCH  26  27
ENDBRANCH   1  26
BRANCH   6  30
HETATM   30  C8  UNL     1      12.019  62.570  27.008  1.00  0.00     0.038 C
BRANCH  30  31
HETATM   31  C9  UNL     1      10.939  62.446  28.035  1.00  0.00    -0.020 C
HETATM   32  C10 UNL     1       9.890  63.501  27.829  1.00  0.00     0.009 C
HETATM   33  C11 UNL     1      10.371  61.060  28.132  1.00  0.00     0.009 C
ENDBRANCH  30  31
ENDBRANCH   6  30
BRANCH  21  34
HETATM   34  C25 UNL     1      19.346  62.368  25.684  1.00  0.00     0.038 C
BRANCH  34  35
HETATM   35  C26 UNL     1      18.699  61.116  25.241  1.00  0.00    -0.020 C
HETATM   36  C27 UNL     1      18.478  61.270  23.719  1.00  0.00     0.009 C
HETATM   37  C28 UNL     1      19.540  59.895  25.422  1.00  0.00     0.009 C
ENDBRANCH  34  35
ENDBRANCH  21  34
BRANCH  11  38
HETATM   38  C14 UNL     1      13.646  63.859  31.401  1.00  0.00     0.038 C
BRANCH  38  39
HETATM   39  C15 UNL     1      14.019  62.387  31.206  1.00  0.00    -0.020 C
HETATM   40  C16 UNL     1      14.848  61.899  32.366  1.00  0.00     0.009 C
HETATM   41  C17 UNL     1      12.707  61.645  31.098  1.00  0.00     0.009 C
ENDBRANCH  38  39
ENDBRANCH  11  38
BRANCH  16  42
HETATM   42  C20 UNL     1      17.760  66.870  29.329  1.00  0.00     0.009 C
HETATM   43  C21 UNL     1      16.558  67.710  29.517  1.00  0.00     0.012 C
HETATM   44  C22 UNL     1      18.708  67.517  28.314  1.00  0.00     0.012 C
ENDBRANCH  16  42
TORSDOF 9
ENDMDL