MODEL 2
REMARK VINA RESULT: -8.075865849      1.825      2.238
REMARK  11 active torsions:
REMARK  status: ('A' for Active; 'I' for Inactive)
REMARK    1  A    between atoms: C2_2  and  N1_3
REMARK    2  A    between atoms: C2_2  and  C19_31
REMARK       I    between atoms: N1_3  and  C3_5
REMARK    3  A    between atoms: C3_5  and  C4_7
REMARK       I    between atoms: N2_8  and  C5_10
REMARK    4  A    between atoms: C5_10  and  C6_12
REMARK    5  A    between atoms: N3_18  and  C12_19
REMARK    6  A    between atoms: C12_19  and  O3_20
REMARK    7  A    between atoms: C12_19  and  N4_22
REMARK    8  A    between atoms: N4_22  and  C13_24
REMARK       I    between atoms: C19_31  and  N5_33
REMARK    9  A    between atoms: N5_33  and  C20_34
REMARK   10  A    between atoms: C20_34  and  C21_35
REMARK   11  A    between atoms: C20_34  and  C22_38
ROOT
HETATM    1  C4  UNL     1      16.503  65.008  20.119  1.00  0.00     0.165 C
HETATM    2  N2  UNL     1      16.023  66.258  19.943  1.00  0.00    -0.330 N
ATOM      3  H2  UNL     1      16.476  66.710  19.149  1.00  0.00     0.168 HD
HETATM    4  C5  UNL     1      15.066  67.131  20.544  1.00  0.00     0.249 C
HETATM    5  O2  UNL     1      14.495  66.716  21.564  1.00  0.00    -0.270 OA
ENDROOT
BRANCH   4   6
HETATM    6  C6  UNL     1      14.817  68.406  19.919  1.00  0.00     0.113 C
HETATM    7  C7  UNL     1      16.123  68.535  19.015  1.00  0.00     0.049 C
HETATM    8  C8  UNL     1      14.988  69.569  20.937  1.00  0.00     0.041 C
HETATM    9  C9  UNL     1      14.681  70.907  20.394  1.00  0.00     0.004 C
HETATM   10  C10 UNL     1      14.247  71.093  19.004  1.00  0.00     0.020 C
HETATM   11  C11 UNL     1      13.959  69.881  18.230  1.00  0.00     0.128 C
HETATM   12  N3  UNL     1      13.708  68.724  19.118  1.00  0.00    -0.330 N
BRANCH  12  13
HETATM   13  C12 UNL     1      12.472  68.109  19.021  1.00  0.00     0.216 C
BRANCH  13  14
HETATM   14  O3  UNL     1      11.993  67.945  17.819  1.00  0.00    -0.333 OA
ATOM     15  H3  UNL     1      11.346  67.259  17.708  1.00  0.00     0.220 HD
ENDBRANCH  13  14
BRANCH  13  16
HETATM   16  N4  UNL     1      11.707  67.629  20.067  1.00  0.00    -0.346 N
ATOM     17  H4  UNL     1      11.665  66.616  20.177  1.00  0.00     0.164 HD
BRANCH  16  18
HETATM   18  C13 UNL     1      10.959  68.418  21.024  1.00  0.00     0.046 C
HETATM   19  C14 UNL     1      11.841  68.983  22.137  1.00  0.00     0.040 C
HETATM   20  C15 UNL     1      10.307  69.636  20.355  1.00  0.00     0.032 C
HETATM   21  C16 UNL     1       9.166  69.993  21.296  1.00  0.00     0.004 C
HETATM   22  C17 UNL     1       8.753  68.694  21.912  1.00  0.00     0.023 C
HETATM   23  C18 UNL     1       9.761  67.680  21.541  1.00  0.00     0.110 C
HETATM   24 CL1  UNL     1      10.185  66.628  22.925  1.00  0.00    -0.122 Cl
ENDBRANCH  16  18
ENDBRANCH  13  16
ENDBRANCH  12  13
ENDBRANCH   4   6
BRANCH   1  25
HETATM   25  C3  UNL     1      17.222  64.330  21.219  1.00  0.00     0.257 C
HETATM   26  N1  UNL     1      16.564  64.537  22.430  1.00  0.00    -0.342 N
ATOM     27  H1  UNL     1      15.778  65.158  22.239  1.00  0.00     0.163 HD
HETATM   28  O1  UNL     1      18.239  63.690  21.019  1.00  0.00    -0.267 OA
BRANCH  26  29
HETATM   29  C2  UNL     1      16.533  64.250  23.788  1.00  0.00     0.187 C
HETATM   30  C1  UNL     1      14.967  64.422  24.177  1.00  0.00     0.043 C
BRANCH  29  31
HETATM   31  C19 UNL     1      16.662  62.773  23.965  1.00  0.00     0.309 C
HETATM   32  O4  UNL     1      15.925  62.056  23.189  1.00  0.00    -0.255 OA
HETATM   33  N5  UNL     1      17.532  62.080  24.850  1.00  0.00    -0.398 NA
BRANCH  33  34
HETATM   34  C20 UNL     1      18.355  61.408  25.687  1.00  0.00     0.259 C
BRANCH  34  35
HETATM   35  C21 UNL     1      19.322  62.525  26.224  1.00  0.00     0.267 C
HETATM   36  N6  UNL     1      19.404  62.916  27.546  1.00  0.00    -0.059 NA
HETATM   37  O5  UNL     1      20.034  63.065  25.334  1.00  0.00    -0.273 OA
ENDBRANCH  34  35
BRANCH  34  38
HETATM   38  C22 UNL     1      19.282  60.432  25.018  1.00  0.00     0.022 C
HETATM   39  C23 UNL     1      19.884  59.449  25.929  1.00  0.00     0.013 C
HETATM   40  C24 UNL     1      18.669  59.655  23.864  1.00  0.00     0.013 C
ENDBRANCH  34  38
ENDBRANCH  33  34
ENDBRANCH  29  31
ENDBRANCH  26  29
ENDBRANCH   1  25
TORSDOF 11
ENDMDL