MODEL 1
REMARK VINA RESULT: -8.562572606      0.000      0.000
REMARK  9 active torsions:
REMARK  status: ('A' for Active; 'I' for Inactive)
REMARK    1  A    between atoms: C1_2  and  C2_4
REMARK    2  A    between atoms: C2_4  and  C3_5
REMARK    3  A    between atoms: C3_5  and  N1_6
REMARK    4  A    between atoms: C3_5  and  C17_25
REMARK       I    between atoms: N1_6  and  C4_8
REMARK    5  A    between atoms: C4_8  and  C5_10
REMARK    6  A    between atoms: C5_10  and  N2_11
REMARK       I    between atoms: N2_11  and  C6_13
REMARK    7  A    between atoms: C6_13  and  C7_15
REMARK       I    between atoms: C17_25  and  N3_27
REMARK    8  A    between atoms: N3_27  and  C18_29
REMARK    9  A    between atoms: C18_29  and  C19_30
ROOT
HETATM    1  N1  UNL     1      17.383  62.379  25.648  1.00  0.00    -0.346 N
ATOM      2  H1  UNL     1      16.599  61.803  25.955  1.00  0.00     0.163 HD
HETATM    3  C4  UNL     1      17.836  63.459  26.420  1.00  0.00     0.236 C
HETATM    4  O3  UNL     1      18.807  64.145  26.023  1.00  0.00    -0.272 OA
ENDROOT
BRANCH   1   5
HETATM    5  C3  UNL     1      18.090  62.099  24.358  1.00  0.00     0.186 C
BRANCH   5   6
HETATM    6  C2  UNL     1      17.956  60.647  24.139  1.00  0.00     0.147 C
BRANCH   6   7
HETATM    7  C1  UNL     1      18.952  59.770  24.732  1.00  0.00     0.175 C
HETATM    8  O1  UNL     1      19.541  58.864  24.089  1.00  0.00    -0.648 OA
HETATM    9  O2  UNL     1      19.299  59.907  26.064  1.00  0.00    -0.648 OA
ENDBRANCH   6   7
ENDBRANCH   5   6
BRANCH   5  10
HETATM   10  C17 UNL     1      17.374  62.992  23.411  1.00  0.00     0.242 C
HETATM   11  O5  UNL     1      16.225  62.543  23.026  1.00  0.00    -0.271 OA
HETATM   12  N3  UNL     1      17.757  64.209  22.889  1.00  0.00    -0.339 N
ATOM     13  H3  UNL     1      18.665  64.575  23.177  1.00  0.00     0.164 HD
BRANCH  12  14
HETATM   14  C18 UNL     1      16.987  65.008  21.974  1.00  0.00     0.136 A
HETATM   15  C20 UNL     1      15.785  65.758  22.345  1.00  0.00     0.062 A
HETATM   16  C21 UNL     1      17.028  66.537  22.123  1.00  0.00     0.100 A
HETATM   17 BR1  UNL     1      17.207  67.571  20.488  1.00  0.00    -0.088 Br
BRANCH  14  18
HETATM   18  C19 UNL     1      17.005  64.558  20.515  1.00  0.00     0.203 C
HETATM   19  O6  UNL     1      18.078  64.121  20.085  1.00  0.00    -0.646 OA
HETATM   20  O7  UNL     1      15.889  64.637  19.736  1.00  0.00    -0.646 OA
ENDBRANCH  14  18
ENDBRANCH  12  14
ENDBRANCH   5  10
ENDBRANCH   1   5
BRANCH   3  21
HETATM   21  C5  UNL     1      17.162  63.783  27.703  1.00  0.00     0.225 C
BRANCH  21  22
HETATM   22  N2  UNL     1      15.750  63.499  27.639  1.00  0.00    -0.352 N
HETATM   23  C6  UNL     1      14.982  63.471  28.826  1.00  0.00     0.226 C
HETATM   24  O4  UNL     1      15.541  63.687  29.916  1.00  0.00    -0.273 OA
ATOM     25  H2  UNL     1      15.307  63.319  26.739  1.00  0.00     0.162 HD
BRANCH  23  26
HETATM   26  C7  UNL     1      13.521  63.195  28.808  1.00  0.00     0.042 C
HETATM   27  C8  UNL     1      13.221  62.126  29.822  1.00  0.00     0.024 C
HETATM   28  C9  UNL     1      11.738  61.790  29.789  1.00  0.00    -0.013 C
HETATM   29  C10 UNL     1      11.397  61.345  28.395  1.00  0.00     0.009 C
HETATM   30  C14 UNL     1      11.000  63.055  30.183  1.00  0.00     0.009 C
HETATM   31  C11 UNL     1      11.624  62.475  27.418  1.00  0.00    -0.013 C
HETATM   32  C12 UNL     1      10.899  63.737  27.789  1.00  0.00     0.009 C
HETATM   33  C16 UNL     1      13.096  62.782  27.422  1.00  0.00     0.024 C
HETATM   34  C13 UNL     1      11.289  64.138  29.197  1.00  0.00    -0.013 C
HETATM   35  C15 UNL     1      12.782  64.437  29.188  1.00  0.00     0.024 C
ENDBRANCH  23  26
ENDBRANCH  21  22
ENDBRANCH   3  21
TORSDOF 9
ENDMDL