MODEL 3
REMARK VINA RESULT: -7.610245320      4.692      7.147
REMARK  14 active torsions:
REMARK  status: ('A' for Active; 'I' for Inactive)
REMARK    1  A    between atoms: N1_5  and  C5_6
REMARK    2  A    between atoms: C5_6  and  O1_7
REMARK    3  A    between atoms: C5_6  and  C6_9
REMARK    4  A    between atoms: C6_9  and  N2_10
REMARK    5  A    between atoms: C6_9  and  C23_37
REMARK       I    between atoms: N2_10  and  C7_12
REMARK    6  A    between atoms: C7_12  and  C8_14
REMARK    7  A    between atoms: C8_14  and  N3_15
REMARK    8  A    between atoms: C8_14  and  C9_19
REMARK       I    between atoms: C9_19  and  N4_21
REMARK    9  A    between atoms: N4_21  and  C10_23
REMARK   10  A    between atoms: C10_23  and  C11_24
REMARK   11  A    between atoms: C10_23  and  C12_26
REMARK   12  A    between atoms: C12_26  and  C13_27
REMARK   13  A    between atoms: C23_37  and  N5_38
REMARK   14  A    between atoms: C23_37  and  O4_42
ROOT
HETATM    1  C8  UNL     1      15.670  63.315  23.886  1.00  0.00     0.365 C
ENDROOT
BRANCH   1   2
HETATM    2  C7  UNL     1      17.034  62.784  23.975  1.00  0.00     0.258 C
HETATM    3  N2  UNL     1      17.369  61.681  24.774  1.00  0.00    -0.343 N
ATOM      4  H2  UNL     1      16.640  61.223  25.321  1.00  0.00     0.163 HD
HETATM    5  O2  UNL     1      18.005  63.312  23.321  1.00  0.00    -0.271 OA
BRANCH   3   6
HETATM    6  C6  UNL     1      18.769  61.158  24.845  1.00  0.00     0.215 C
BRANCH   6   7
HETATM    7  C5  UNL     1      19.222  61.505  26.183  1.00  0.00     0.141 C
BRANCH   7   8
HETATM    8  N1  UNL     1      19.392  62.730  26.814  1.00  0.00    -0.359 N
HETATM    9  C2  UNL     1      19.661  64.098  26.256  1.00  0.00     0.083 C
HETATM   10  C1  UNL     1      21.113  64.309  25.957  1.00  0.00     0.032 C
HETATM   11  C3  UNL     1      19.184  64.698  27.532  1.00  0.00     0.045 C
HETATM   12  C4  UNL     1      19.367  63.306  28.128  1.00  0.00     0.127 C
ENDBRANCH   7   8
BRANCH   7  13
HETATM   13  O1  UNL     1      19.532  60.462  26.937  1.00  0.00    -0.348 OA
ATOM     14  H1  UNL     1      19.707  59.668  26.446  1.00  0.00     0.219 HD
ENDBRANCH   7  13
ENDBRANCH   6   7
BRANCH   6  15
HETATM   15  C23 UNL     1      18.812  59.730  24.510  1.00  0.00     0.347 C
BRANCH  15  16
HETATM   16  N5  UNL     1      18.337  59.463  23.136  1.00  0.00    -0.051 N
ATOM     17  H53 UNL     1      17.342  59.667  23.043  1.00  0.00     0.277 HD
ATOM     18  H52 UNL     1      18.706  60.150  22.479  1.00  0.00     0.277 HD
ATOM     19  H51 UNL     1      18.548  58.513  22.832  1.00  0.00     0.277 HD
ENDBRANCH  15  16
BRANCH  15  20
HETATM   20  O4  UNL     1      20.062  59.133  24.575  1.00  0.00    -0.368 OA
ATOM     21  H4  UNL     1      20.523  59.047  23.748  1.00  0.00     0.212 HD
ENDBRANCH  15  20
ENDBRANCH   6  15
ENDBRANCH   3   6
ENDBRANCH   1   2
BRANCH   1  22
HETATM   22  N3  UNL     1      14.787  62.148  23.848  1.00  0.00    -0.058 N
ATOM     23  H33 UNL     1      13.812  62.366  24.057  1.00  0.00     0.275 HD
ATOM     24  H32 UNL     1      14.632  61.783  22.908  1.00  0.00     0.275 HD
ATOM     25  H31 UNL     1      15.197  61.466  24.487  1.00  0.00     0.275 HD
ENDBRANCH   1  22
BRANCH   1  26
HETATM   26  C9  UNL     1      15.290  64.182  25.060  1.00  0.00     0.258 C
HETATM   27  O3  UNL     1      16.150  64.215  25.973  1.00  0.00    -0.271 OA
HETATM   28  N4  UNL     1      14.109  64.890  25.150  1.00  0.00    -0.353 N
ATOM     29  H4  UNL     1      13.471  64.804  24.359  1.00  0.00     0.162 HD
BRANCH  28  30
HETATM   30  C10 UNL     1      13.660  65.756  26.258  1.00  0.00     0.095 C
BRANCH  30  31
HETATM   31  C11 UNL     1      13.772  67.158  25.711  1.00  0.00     0.110 C
HETATM   32 BR1  UNL     1      11.943  67.851  25.454  1.00  0.00    -0.094 Br
ENDBRANCH  30  31
BRANCH  30  33
HETATM   33  C12 UNL     1      12.325  65.280  26.623  1.00  0.00     0.035 C
BRANCH  33  34
HETATM   34  C13 UNL     1      12.112  64.213  27.617  1.00  0.00    -0.037 C
HETATM   35  C14 UNL     1      10.570  64.052  27.646  1.00  0.00     0.014 C
HETATM   36  C15 UNL     1      10.111  63.030  28.614  1.00  0.00    -0.013 C
HETATM   37  C16 UNL     1      10.654  61.694  28.218  1.00  0.00     0.009 C
HETATM   38  C20 UNL     1      10.564  63.466  29.987  1.00  0.00     0.009 C
HETATM   39  C17 UNL     1      12.164  61.816  28.159  1.00  0.00    -0.013 C
HETATM   40  C18 UNL     1      12.601  62.078  29.585  1.00  0.00     0.009 C
HETATM   41  C22 UNL     1      12.624  62.854  27.179  1.00  0.00     0.014 C
HETATM   42  C19 UNL     1      12.051  63.454  29.990  1.00  0.00    -0.013 C
HETATM   43  C21 UNL     1      12.673  64.440  28.990  1.00  0.00     0.014 C
ENDBRANCH  33  34
ENDBRANCH  30  33
ENDBRANCH  28  30
ENDBRANCH   1  26
TORSDOF 14
ENDMDL