MODEL 4
REMARK VINA RESULT: -8.060549225      2.489      4.202
REMARK  11 active torsions:
REMARK  status: ('A' for Active; 'I' for Inactive)
REMARK    1  A    between atoms: C2_2  and  C4_4
REMARK    2  A    between atoms: C4_4  and  C5_5
REMARK    3  A    between atoms: C5_5  and  N1_6
REMARK    4  A    between atoms: C5_5  and  C15_21
REMARK    5  A    between atoms: N1_6  and  C6_8
REMARK    6  A    between atoms: C6_8  and  O1_9
REMARK    7  A    between atoms: C7_11  and  N2_12
REMARK    8  A    between atoms: C7_11  and  C12_18
REMARK       I    between atoms: N2_12  and  C8_13
REMARK    9  A    between atoms: C8_13  and  C9_15
REMARK       I    between atoms: C15_21  and  N3_23
REMARK   10  A    between atoms: C20_29  and  C21_30
REMARK       I    between atoms: C21_30  and  N4_32
REMARK   11  A    between atoms: N4_32  and  C22_34
ROOT
HETATM    1  C15 UNL     1      16.262  63.033  26.629  1.00  0.00     0.243 C
HETATM    2  O3  UNL     1      16.366  61.805  26.838  1.00  0.00    -0.271 OA
HETATM    3  N3  UNL     1      17.454  63.853  26.685  1.00  0.00    -0.337 N
HETATM    4  C16 UNL     1      18.048  64.287  27.924  1.00  0.00     0.128 C
HETATM    5  C17 UNL     1      18.146  65.770  27.922  1.00  0.00     0.040 C
HETATM    6  C18 UNL     1      18.599  66.422  26.661  1.00  0.00     0.086 C
HETATM    7 CL1  UNL     1      20.114  67.328  27.033  1.00  0.00    -0.125 Cl
HETATM    8  C19 UNL     1      18.881  65.539  25.529  1.00  0.00     0.055 C
HETATM    9  C20 UNL     1      18.190  64.241  25.477  1.00  0.00     0.181 C
ENDROOT
BRANCH   1  10
HETATM   10  C5  UNL     1      14.973  63.645  26.335  1.00  0.00     0.176 C
BRANCH  10  11
HETATM   11  C4  UNL     1      13.976  63.214  27.361  1.00  0.00     0.038 C
BRANCH  11  12
HETATM   12  C2  UNL     1      12.539  63.169  27.050  1.00  0.00    -0.020 C
HETATM   13  C1  UNL     1      11.949  61.943  27.839  1.00  0.00     0.009 C
HETATM   14  C3  UNL     1      11.664  64.306  27.410  1.00  0.00     0.009 C
ENDBRANCH  11  12
ENDBRANCH  10  11
BRANCH  10  15
HETATM   15  N1  UNL     1      14.456  63.533  25.026  1.00  0.00    -0.355 N
ATOM     16  H1  UNL     1      13.645  62.923  24.932  1.00  0.00     0.162 HD
BRANCH  15  17
HETATM   17  C6  UNL     1      14.891  64.137  23.834  1.00  0.00     0.178 C
HETATM   18  C7  UNL     1      14.764  65.433  23.379  1.00  0.00     0.163 C
BRANCH  17  19
HETATM   19  O1  UNL     1      15.555  63.282  23.027  1.00  0.00    -0.344 OA
ATOM     20  H1  UNL     1      15.601  63.586  22.128  1.00  0.00     0.219 HD
ENDBRANCH  17  19
BRANCH  18  21
HETATM   21  N2  UNL     1      13.621  65.965  22.775  1.00  0.00    -0.366 NA
HETATM   22  C8  UNL     1      12.507  66.445  22.222  1.00  0.00     0.295 C
HETATM   23  O2  UNL     1      11.326  66.343  22.264  1.00  0.00    -0.257 OA
BRANCH  22  24
HETATM   24  C9  UNL     1      12.926  67.541  21.138  1.00  0.00     0.085 C
HETATM   25  C10 UNL     1      13.168  68.741  22.033  1.00  0.00     0.020 C
HETATM   26  C11 UNL     1      14.066  67.091  20.402  1.00  0.00     0.020 C
ENDBRANCH  22  24
ENDBRANCH  18  21
BRANCH  18  27
HETATM   27  C12 UNL     1      15.195  66.538  24.358  1.00  0.00    -0.042 C
HETATM   28  C13 UNL     1      14.153  67.058  25.242  1.00  0.00     0.046 C
HETATM   29  C14 UNL     1      16.180  67.457  23.793  1.00  0.00     0.046 C
ENDBRANCH  18  27
ENDBRANCH  15  17
ENDBRANCH  10  15
ENDBRANCH   1  10
BRANCH   9  30
HETATM   30  C21 UNL     1      19.291  63.141  25.491  1.00  0.00     0.259 C
HETATM   31  O4  UNL     1      20.440  63.490  25.750  1.00  0.00    -0.270 OA
HETATM   32  N4  UNL     1      18.965  61.904  25.176  1.00  0.00    -0.156 N
ATOM     33  H4  UNL     1      18.112  61.964  24.620  1.00  0.00     0.187 HD
BRANCH  32  34
HETATM   34  C22 UNL     1      19.239  60.715  25.260  1.00  0.00     0.703 A
HETATM   35  N5  UNL     1      19.970  60.223  26.285  1.00  0.00    -0.128 N
HETATM   36  N6  UNL     1      20.179  58.988  26.252  1.00  0.00    -0.237 N
ATOM     37  H5  UNL     1      20.327  60.816  27.034  1.00  0.00     0.205 HD
HETATM   38  C23 UNL     1      19.552  58.491  25.122  1.00  0.00     0.353 A
ATOM     39  H6  UNL     1      20.712  58.448  26.934  1.00  0.00     0.192 HD
HETATM   40  O5  UNL     1      19.552  57.314  24.751  1.00  0.00    -0.245 OA
HETATM   41  N7  UNL     1      18.977  59.620  24.546  1.00  0.00    -0.139 N
ATOM     42  H7  UNL     1      18.424  59.610  23.688  1.00  0.00     0.189 HD
ENDBRANCH  32  34
ENDBRANCH   9  30
TORSDOF 11
ENDMDL