MODEL 1
REMARK VINA RESULT: -8.306667539      0.000      0.000
REMARK  10 active torsions:
REMARK  status: ('A' for Active; 'I' for Inactive)
REMARK    1  A    between atoms: C2_2  and  C3_4
REMARK    2  A    between atoms: C6_14  and  N4_15
REMARK    3  A    between atoms: N4_15  and  C7_17
REMARK       I    between atoms: N5_20  and  C10_21
REMARK       I    between atoms: C10_21  and  N6_23
REMARK    4  A    between atoms: N6_23  and  C11_25
REMARK    5  A    between atoms: C11_25  and  C13_27
REMARK       I    between atoms: C13_27  and  N7_29
REMARK    6  A    between atoms: N7_29  and  C14_31
REMARK    7  A    between atoms: C14_31  and  C15_32
REMARK    8  A    between atoms: C15_32  and  C16_33
REMARK    9  A    between atoms: C16_33  and  N8_34
REMARK       I    between atoms: N8_34  and  C17_36
REMARK   10  A    between atoms: C17_36  and  C18_38
ROOT
HETATM    1  C7  UNL     1      17.410  62.971  24.478  1.00  0.00     0.086 C
HETATM    2  C8  UNL     1      15.981  62.652  24.201  1.00  0.00     0.045 C
HETATM    3  C9  UNL     1      15.186  63.924  23.851  1.00  0.00     0.129 C
HETATM    4  N5  UNL     1      15.454  64.959  24.802  1.00  0.00    -0.334 N
HETATM    5  C10 UNL     1      14.426  65.622  25.482  1.00  0.00     0.319 C
HETATM    6  O2  UNL     1      14.779  66.502  26.346  1.00  0.00    -0.247 OA
HETATM    7  N6  UNL     1      13.052  65.410  25.298  1.00  0.00    -0.330 N
ATOM      8  H6  UNL     1      12.732  64.722  24.616  1.00  0.00     0.165 HD
HETATM    9  C19 UNL     1      16.858  65.304  25.012  1.00  0.00     0.129 C
HETATM   10  C20 UNL     1      17.742  64.423  24.153  1.00  0.00     0.045 C
ENDROOT
BRANCH   7  11
HETATM   11  C11 UNL     1      12.071  66.175  26.083  1.00  0.00     0.174 C
HETATM   12  C12 UNL     1      11.094  66.850  25.083  1.00  0.00     0.042 C
BRANCH  11  13
HETATM   13  C13 UNL     1      11.220  65.297  26.902  1.00  0.00     0.240 C
HETATM   14  O3  UNL     1      10.079  65.675  27.235  1.00  0.00    -0.271 OA
HETATM   15  N7  UNL     1      11.692  64.035  27.311  1.00  0.00    -0.359 N
ATOM     16  H7  UNL     1      12.627  63.759  27.010  1.00  0.00     0.162 HD
BRANCH  15  17
HETATM   17  C14 UNL     1      10.955  63.111  28.119  1.00  0.00     0.124 C
BRANCH  17  18
HETATM   18  C15 UNL     1      11.411  61.668  27.908  1.00  0.00     0.039 C
BRANCH  18  19
HETATM   19  C16 UNL     1      10.275  60.813  28.424  1.00  0.00     0.124 C
BRANCH  19  20
HETATM   20  N8  UNL     1       9.660  61.350  29.598  1.00  0.00    -0.360 N
HETATM   21  C17 UNL     1       9.332  60.533  30.706  1.00  0.00     0.227 C
HETATM   22  O4  UNL     1       9.557  59.309  30.728  1.00  0.00    -0.273 OA
ATOM     23  H8  UNL     1       9.451  62.348  29.638  1.00  0.00     0.162 HD
BRANCH  21  24
HETATM   24  C18 UNL     1       8.685  61.162  31.909  1.00  0.00     0.187 C
HETATM   25 BR1  UNL     1       7.043  60.230  32.306  1.00  0.00    -0.087 Br
ENDBRANCH  21  24
ENDBRANCH  19  20
ENDBRANCH  18  19
ENDBRANCH  17  18
ENDBRANCH  15  17
ENDBRANCH  11  13
ENDBRANCH   7  11
BRANCH   1  26
HETATM   26  N4  UNL     1      18.316  62.044  23.982  1.00  0.00    -0.370 N
ATOM     27  H4  UNL     1      18.732  62.301  23.088  1.00  0.00     0.161 HD
BRANCH  26  28
HETATM   28  C6  UNL     1      18.714  60.942  24.440  1.00  0.00     0.132 A
HETATM   29  C3  UNL     1      19.551  60.951  25.592  1.00  0.00     0.070 A
HETATM   30  C4  UNL     1      20.029  59.785  26.135  1.00  0.00     0.125 A
HETATM   31  N1  UNL     1      19.715  58.618  25.587  1.00  0.00    -0.201 N
HETATM   32  C5  UNL     1      18.912  58.580  24.479  1.00  0.00     0.677 A
ATOM     33  H1  UNL     1      20.070  57.751  25.991  1.00  0.00     0.183 HD
HETATM   34  N2  UNL     1      18.635  57.504  23.988  1.00  0.00    -0.234 N
HETATM   35  N3  UNL     1      18.431  59.754  23.933  1.00  0.00    -0.176 N
ATOM     36  H22 UNL     1      18.990  56.637  24.392  1.00  0.00     0.174 HD
ATOM     37  H21 UNL     1      18.037  57.476  23.163  1.00  0.00     0.174 HD
ATOM     38  H3  UNL     1      17.834  59.703  23.107  1.00  0.00     0.186 HD
BRANCH  29  39
HETATM   39  C2  UNL     1      19.862  62.255  26.136  1.00  0.00     0.160 C
HETATM   40  C1  UNL     1      19.299  62.750  27.423  1.00  0.00     0.097 C
HETATM   41  O1  UNL     1      20.634  63.047  25.542  1.00  0.00    -0.293 OA
ENDBRANCH  29  39
ENDBRANCH  26  28
ENDBRANCH   1  26
TORSDOF 10
ENDMDL