MODEL 3
REMARK VINA RESULT: -7.668058569      2.321      4.000
REMARK  10 active torsions:
REMARK  status: ('A' for Active; 'I' for Inactive)
REMARK    1  A    between atoms: C1_2  and  C2_4
REMARK    2  A    between atoms: C2_4  and  C3_5
REMARK    3  A    between atoms: C2_4  and  N4_25
REMARK    4  A    between atoms: C3_5  and  N2_6
REMARK       I    between atoms: N2_6  and  C4_8
REMARK    5  A    between atoms: C4_8  and  C5_10
REMARK    6  A    between atoms: C10_15  and  C11_16
REMARK       I    between atoms: C11_16  and  N3_18
REMARK    7  A    between atoms: N3_18  and  C12_20
REMARK       I    between atoms: N4_25  and  C17_27
REMARK    8  A    between atoms: C17_27  and  C18_29
REMARK    9  A    between atoms: C20_31  and  C21_32
REMARK   10  A    between atoms: C23_35  and  O5_36
ROOT
HETATM    1  N2  UNL     1      17.014  64.712  23.318  1.00  0.00    -0.338 N
ATOM      2  H2  UNL     1      17.147  65.530  23.913  1.00  0.00     0.167 HD
HETATM    3  C4  UNL     1      17.718  63.573  23.744  1.00  0.00     0.226 C
HETATM    4  O2  UNL     1      17.636  62.493  23.119  1.00  0.00    -0.273 OA
ENDROOT
BRANCH   1   5
HETATM    5  C3  UNL     1      16.161  64.931  22.224  1.00  0.00     0.098 C
BRANCH   5   6
HETATM    6  C2  UNL     1      16.570  65.750  21.063  1.00  0.00     0.212 C
BRANCH   6   7
HETATM    7  C1  UNL     1      17.563  65.245  20.128  1.00  0.00     0.259 C
HETATM    8  N1  UNL     1      18.075  66.060  19.048  1.00  0.00    -0.060 NA
HETATM    9  O1  UNL     1      17.995  64.073  20.241  1.00  0.00    -0.274 OA
ENDBRANCH   6   7
BRANCH   6  10
HETATM   10  N4  UNL     1      15.278  65.972  20.325  1.00  0.00    -0.343 N
HETATM   11  C17 UNL     1      14.611  67.211  20.360  1.00  0.00     0.225 C
HETATM   12  O4  UNL     1      15.153  68.123  21.041  1.00  0.00    -0.273 OA
ATOM     13  H4  UNL     1      14.875  65.206  19.785  1.00  0.00     0.163 HD
BRANCH  11  14
HETATM   14  C18 UNL     1      13.354  67.376  19.624  1.00  0.00     0.107 C
HETATM   15  C19 UNL     1      12.494  68.504  20.160  1.00  0.00     0.022 C
HETATM   16  C20 UNL     1      11.605  68.904  18.999  1.00  0.00    -0.001 C
HETATM   17  C22 UNL     1      12.448  68.642  17.795  1.00  0.00     0.038 C
HETATM   18  C23 UNL     1      13.485  67.602  18.163  1.00  0.00     0.131 C
BRANCH  16  19
HETATM   19  C21 UNL     1      11.202  70.344  19.139  1.00  0.00     0.089 C
HETATM   20 BR1  UNL     1       9.791  70.526  20.431  1.00  0.00    -0.096 Br
ENDBRANCH  16  19
BRANCH  18  21
HETATM   21  O5  UNL     1      14.743  68.046  17.772  1.00  0.00    -0.395 OA
ATOM     22  H5  UNL     1      15.451  67.728  18.320  1.00  0.00     0.210 HD
ENDBRANCH  18  21
ENDBRANCH  11  14
ENDBRANCH   6  10
ENDBRANCH   5   6
ENDBRANCH   1   5
BRANCH   3  23
HETATM   23  C5  UNL     1      18.595  63.582  24.950  1.00  0.00     0.091 C
HETATM   24  C6  UNL     1      19.177  64.947  25.199  1.00  0.00     0.015 C
HETATM   25  C7  UNL     1      20.195  64.888  26.293  1.00  0.00     0.001 C
HETATM   26  C8  UNL     1      20.371  63.524  26.882  1.00  0.00     0.001 C
HETATM   27  C9  UNL     1      19.125  62.786  27.183  1.00  0.00     0.015 C
HETATM   28  C10 UNL     1      18.048  62.868  26.126  1.00  0.00     0.091 C
BRANCH  28  29
HETATM   29  C11 UNL     1      16.759  63.310  26.655  1.00  0.00     0.223 C
HETATM   30  O3  UNL     1      16.415  64.550  26.588  1.00  0.00    -0.273 OA
HETATM   31  N3  UNL     1      15.792  62.483  27.265  1.00  0.00    -0.356 N
ATOM     32  H3  UNL     1      15.989  61.487  27.353  1.00  0.00     0.162 HD
BRANCH  31  33
HETATM   33  C12 UNL     1      14.540  62.980  27.768  1.00  0.00     0.084 C
HETATM   34  C13 UNL     1      13.406  62.854  26.813  1.00  0.00     0.025 C
HETATM   35  C14 UNL     1      12.177  62.461  27.575  1.00  0.00     0.002 C
HETATM   36  C15 UNL     1      12.591  62.443  29.031  1.00  0.00     0.002 C
HETATM   37  C16 UNL     1      14.075  62.163  28.957  1.00  0.00     0.025 C
ENDBRANCH  31  33
ENDBRANCH  28  29
ENDBRANCH   3  23
TORSDOF 10
ENDMDL