MODEL 5
REMARK VINA RESULT: -6.818660104      1.954      2.393
REMARK  13 active torsions:
REMARK  status: ('A' for Active; 'I' for Inactive)
REMARK    1  A    between atoms: C2_2  and  C4_4
REMARK    2  A    between atoms: C4_4  and  C5_5
REMARK    3  A    between atoms: C4_4  and  C6_10
REMARK    4  A    between atoms: C5_5  and  N1_6
REMARK       I    between atoms: C6_10  and  N2_12
REMARK    5  A    between atoms: C13_19  and  C14_20
REMARK       I    between atoms: C14_20  and  N3_22
REMARK    6  A    between atoms: N3_22  and  C15_24
REMARK    7  A    between atoms: C15_24  and  C16_25
REMARK    8  A    between atoms: C16_25  and  N4_26
REMARK       I    between atoms: N4_26  and  C17_27
REMARK    9  A    between atoms: N6_34  and  C22_35
REMARK   10  A    between atoms: C22_35  and  O4_36
REMARK   11  A    between atoms: C22_35  and  N7_38
REMARK   12  A    between atoms: N7_38  and  C23_40
REMARK   13  A    between atoms: C23_40  and  C24_41
ROOT
HETATM    1  C6  UNL     1      13.311  67.351  21.475  1.00  0.00     0.244 C
HETATM    2  O1  UNL     1      13.527  66.926  20.297  1.00  0.00    -0.271 OA
HETATM    3  N2  UNL     1      14.129  67.048  22.533  1.00  0.00    -0.251 N
HETATM    4  C7  UNL     1      13.515  67.293  23.880  1.00  0.00     0.153 C
HETATM    5  C8  UNL     1      13.305  65.828  24.350  1.00  0.00     0.027 C
HETATM    6  C9  UNL     1      14.432  65.260  25.093  1.00  0.00    -0.002 C
HETATM    7  C10 UNL     1      13.938  64.083  25.908  1.00  0.00     0.005 C
HETATM    8  C11 UNL     1      15.061  63.613  26.749  1.00  0.00     0.002 C
HETATM    9  C12 UNL     1      16.319  64.450  26.613  1.00  0.00     0.020 C
HETATM   10  C13 UNL     1      16.750  64.518  25.197  1.00  0.00     0.050 C
HETATM   11  C18 UNL     1      17.803  65.639  24.982  1.00  0.00     0.026 C
HETATM   12  C19 UNL     1      17.577  65.821  23.429  1.00  0.00     0.056 C
HETATM   13  C20 UNL     1      16.122  65.996  23.536  1.00  0.00     0.022 C
HETATM   14  C21 UNL     1      15.630  64.791  24.235  1.00  0.00     0.055 C
HETATM   15  N6  UNL     1      15.420  66.552  22.402  1.00  0.00    -0.223 N
ENDROOT
BRANCH   1  16
HETATM   16  C4  UNL     1      12.107  68.207  21.589  1.00  0.00     0.108 C
BRANCH  16  17
HETATM   17  C2  UNL     1      10.839  67.493  21.163  1.00  0.00    -0.008 C
HETATM   18  C1  UNL     1       9.702  68.497  21.028  1.00  0.00     0.010 C
HETATM   19  C3  UNL     1      10.410  66.344  21.983  1.00  0.00     0.010 C
ENDBRANCH  16  17
BRANCH  16  20
HETATM   20  C5  UNL     1      12.292  69.471  20.763  1.00  0.00     0.244 C
BRANCH  20  21
HETATM   21  N1  UNL     1      13.710  69.817  20.691  1.00  0.00    -0.079 N
ATOM     22  H13 UNL     1      14.227  69.480  21.503  1.00  0.00     0.274 HD
ATOM     23  H12 UNL     1      14.198  69.282  19.973  1.00  0.00     0.274 HD
ATOM     24  H11 UNL     1      13.816  70.823  20.559  1.00  0.00     0.274 HD
ENDBRANCH  20  21
ENDBRANCH  16  20
ENDBRANCH   1  16
BRANCH  15  25
HETATM   25  C22 UNL     1      16.117  66.777  21.224  1.00  0.00     0.239 C
BRANCH  25  26
HETATM   26  O4  UNL     1      16.397  68.061  21.072  1.00  0.00    -0.331 OA
ATOM     27  H4  UNL     1      15.691  68.516  20.629  1.00  0.00     0.221 HD
ENDBRANCH  25  26
BRANCH  25  28
HETATM   28  N7  UNL     1      16.574  65.994  20.168  1.00  0.00    -0.354 N
ATOM     29  H7  UNL     1      16.456  64.986  20.266  1.00  0.00     0.163 HD
BRANCH  28  30
HETATM   30  C23 UNL     1      17.188  66.446  18.967  1.00  0.00     0.138 C
BRANCH  30  31
HETATM   31  C24 UNL     1      18.649  66.676  18.921  1.00  0.00     0.134 C
HETATM   32 CL1  UNL     1      19.303  67.813  17.776  1.00  0.00    -0.129 Cl
ENDBRANCH  30  31
ENDBRANCH  28  30
ENDBRANCH  25  28
ENDBRANCH  15  25
BRANCH  10  33
HETATM   33  C14 UNL     1      17.584  63.290  24.897  1.00  0.00     0.227 C
HETATM   34  O2  UNL     1      17.200  62.520  24.027  1.00  0.00    -0.273 OA
HETATM   35  N3  UNL     1      18.746  63.157  25.662  1.00  0.00    -0.355 N
ATOM     36  H3  UNL     1      18.862  63.906  26.345  1.00  0.00     0.162 HD
BRANCH  35  37
HETATM   37  C15 UNL     1      19.806  62.200  25.696  1.00  0.00     0.182 C
BRANCH  37  38
HETATM   38  C16 UNL     1      19.151  60.897  26.183  1.00  0.00     0.180 C
BRANCH  38  39
HETATM   39  N4  UNL     1      19.339  59.717  25.545  1.00  0.00    -0.370 NA
HETATM   40  C17 UNL     1      19.523  58.558  24.919  1.00  0.00     0.405 C
HETATM   41  N5  UNL     1      19.633  58.458  23.457  1.00  0.00    -0.025 NA
HETATM   42  O3  UNL     1      19.635  57.369  25.424  1.00  0.00    -0.234 OA
ENDBRANCH  38  39
ENDBRANCH  37  38
ENDBRANCH  35  37
ENDBRANCH  10  33
TORSDOF 13
ENDMDL