MODEL 2
REMARK VINA RESULT: -6.044464271      2.959      7.827
REMARK  12 active torsions:
REMARK  status: ('A' for Active; 'I' for Inactive)
REMARK    1  A    between atoms: C2_2  and  C3_3
REMARK    2  A    between atoms: C3_3  and  C5_5
REMARK    3  A    between atoms: C6_6  and  O1_7
REMARK    4  A    between atoms: C7_11  and  C8_12
REMARK    5  A    between atoms: C8_12  and  C9_13
REMARK    6  A    between atoms: C9_13  and  C10_14
REMARK    7  A    between atoms: C10_14  and  C11_15
REMARK    8  A    between atoms: C11_15  and  N2_16
REMARK    9  A    between atoms: C13_24  and  C14_25
REMARK   10  A    between atoms: C15_29  and  O3_30
REMARK   11  A    between atoms: C16_34  and  C17_35
REMARK   12  A    between atoms: C21_39  and  O4_40
ROOT
HETATM    1  C5  UNL     1      14.231  65.233  25.166  1.00  0.00     0.163 C
HETATM    2  C6  UNL     1      14.511  66.038  23.947  1.00  0.00     0.136 C
HETATM    3  N1  UNL     1      13.843  66.105  22.739  1.00  0.00    -0.359 N
ATOM      4  H1  UNL     1      14.155  65.377  22.096  1.00  0.00     0.162 HD
HETATM    5  C7  UNL     1      12.823  66.935  22.151  1.00  0.00     0.176 C
HETATM    6  C12 UNL     1      13.429  67.759  21.036  1.00  0.00     0.246 C
HETATM    7  O2  UNL     1      12.571  68.464  20.427  1.00  0.00    -0.271 OA
HETATM    8  N3  UNL     1      14.781  67.803  20.646  1.00  0.00    -0.311 N
ATOM      9  H3  UNL     1      15.240  68.690  20.857  1.00  0.00     0.170 HD
HETATM   10  C13 UNL     1      15.644  66.840  20.007  1.00  0.00     0.117 C
HETATM   11  N4  UNL     1      16.672  66.251  20.832  1.00  0.00    -0.308 N
ATOM     12  H4  UNL     1      17.231  66.960  21.306  1.00  0.00     0.171 HD
HETATM   13  C15 UNL     1      17.099  64.961  21.147  1.00  0.00     0.219 C
HETATM   14  N5  UNL     1      16.720  63.949  22.020  1.00  0.00    -0.341 N
ATOM     15  H5  UNL     1      16.238  63.169  21.574  1.00  0.00     0.164 HD
HETATM   16  C16 UNL     1      16.894  63.801  23.501  1.00  0.00     0.183 C
HETATM   17  C21 UNL     1      15.621  63.352  24.090  1.00  0.00     0.141 C
HETATM   18  N6  UNL     1      14.776  63.884  25.083  1.00  0.00    -0.355 N
HETATM   19  C22 UNL     1      14.293  63.034  26.187  1.00  0.00     0.152 C
ENDROOT
BRANCH   5  20
HETATM   20  C8  UNL     1      12.089  67.688  23.170  1.00  0.00     0.035 C
BRANCH  20  21
HETATM   21  C9  UNL     1      10.735  67.301  23.565  1.00  0.00     0.004 C
BRANCH  21  22
HETATM   22  C10 UNL     1       9.996  66.866  22.283  1.00  0.00     0.027 C
BRANCH  22  23
HETATM   23  C11 UNL     1       9.243  68.029  21.691  1.00  0.00     0.229 C
BRANCH  23  24
HETATM   24  N2  UNL     1       8.474  68.704  22.697  1.00  0.00    -0.079 N
ATOM     25  H23 UNL     1       8.104  68.052  23.390  1.00  0.00     0.274 HD
ATOM     26  H22 UNL     1       9.064  69.263  23.312  1.00  0.00     0.274 HD
ATOM     27  H21 UNL     1       7.733  69.263  22.273  1.00  0.00     0.274 HD
ENDBRANCH  23  24
ENDBRANCH  22  23
ENDBRANCH  21  22
ENDBRANCH  20  21
ENDBRANCH   5  20
BRANCH   2  28
HETATM   28  O1  UNL     1      15.579  66.757  24.161  1.00  0.00    -0.348 OA
ATOM     29  H1  UNL     1      15.317  67.665  24.255  1.00  0.00     0.219 HD
ENDBRANCH   2  28
BRANCH   1  30
HETATM   30  C3  UNL     1      14.629  65.932  26.434  1.00  0.00     0.012 C
HETATM   31  C4  UNL     1      13.534  66.290  27.365  1.00  0.00     0.012 C
BRANCH  30  32
HETATM   32  C2  UNL     1      15.692  65.153  27.181  1.00  0.00     0.002 C
HETATM   33  C1  UNL     1      16.980  65.945  27.172  1.00  0.00     0.005 C
ENDBRANCH  30  32
ENDBRANCH   1  30
BRANCH  10  34
HETATM   34  C14 UNL     1      15.107  66.107  18.847  1.00  0.00     0.104 C
HETATM   35 BR1  UNL     1      14.111  66.916  17.494  1.00  0.00    -0.060 Br
ENDBRANCH  10  34
BRANCH  17  36
HETATM   36  O4  UNL     1      15.236  62.233  23.550  1.00  0.00    -0.348 OA
ATOM     37  H4  UNL     1      15.284  61.524  24.180  1.00  0.00     0.219 HD
ENDBRANCH  17  36
BRANCH  13  38
HETATM   38  O3  UNL     1      18.158  64.607  20.411  1.00  0.00    -0.332 OA
ATOM     39  H3  UNL     1      18.006  63.782  19.965  1.00  0.00     0.220 HD
ENDBRANCH  13  38
BRANCH  16  40
HETATM   40  C17 UNL     1      17.937  62.710  23.611  1.00  0.00     0.008 C
HETATM   41  C18 UNL     1      18.596  62.365  24.839  1.00  0.00    -0.089 C
HETATM   42  C19 UNL     1      19.365  63.458  25.546  1.00  0.00     0.042 C
HETATM   43  C20 UNL     1      17.902  61.515  25.844  1.00  0.00     0.042 C
ENDBRANCH  16  40
TORSDOF 12
ENDMDL