MODEL 1
REMARK VINA RESULT: -7.856196483      0.000      0.000
REMARK  9 active torsions:
REMARK  status: ('A' for Active; 'I' for Inactive)
REMARK    1  A    between atoms: C2_2  and  N1_3
REMARK    2  A    between atoms: C2_2  and  C8_18
REMARK       I    between atoms: N1_3  and  C3_5
REMARK    3  A    between atoms: C3_5  and  C4_7
REMARK    4  A    between atoms: C6_12  and  C7_13
REMARK       I    between atoms: C8_18  and  N4_20
REMARK    5  A    between atoms: C12_24  and  C13_25
REMARK       I    between atoms: C13_25  and  N5_27
REMARK    6  A    between atoms: N5_27  and  C14_29
REMARK    7  A    between atoms: C14_29  and  C15_30
REMARK    8  A    between atoms: C14_29  and  C22_37
REMARK    9  A    between atoms: C15_30  and  C16_31
ROOT
HETATM    1  C8  UNL     1      16.495  65.070  20.701  1.00  0.00     0.243 C
HETATM    2  O2  UNL     1      16.452  64.106  19.902  1.00  0.00    -0.271 OA
HETATM    3  N4  UNL     1      16.352  64.880  22.090  1.00  0.00    -0.337 N
HETATM    4  C9  UNL     1      16.423  65.980  23.062  1.00  0.00     0.127 C
HETATM    5  C10 UNL     1      15.793  65.480  24.337  1.00  0.00     0.022 C
HETATM    6  C11 UNL     1      15.116  64.209  23.886  1.00  0.00     0.037 C
HETATM    7  C12 UNL     1      16.100  63.708  22.857  1.00  0.00     0.179 C
ENDROOT
BRANCH   1   8
HETATM    8  C2  UNL     1      16.700  66.436  20.097  1.00  0.00     0.172 C
HETATM    9  C1  UNL     1      17.937  66.556  19.289  1.00  0.00     0.042 C
BRANCH   8  10
HETATM   10  N1  UNL     1      15.530  66.849  19.348  1.00  0.00    -0.345 N
HETATM   11  C3  UNL     1      15.013  68.191  19.460  1.00  0.00     0.277 C
HETATM   12  O1  UNL     1      15.625  68.967  20.249  1.00  0.00    -0.269 OA
ATOM     13  H1  UNL     1      15.065  66.182  18.733  1.00  0.00     0.163 HD
BRANCH  11  14
HETATM   14  C4  UNL     1      13.842  68.633  18.703  1.00  0.00     0.473 C
HETATM   15  N2  UNL     1      13.041  67.502  18.169  1.00  0.00    -0.035 N
HETATM   16  C5  UNL     1      11.804  68.231  17.827  1.00  0.00     0.269 C
ATOM     17  H22 UNL     1      13.469  66.963  17.416  1.00  0.00     0.280 HD
ATOM     18  H21 UNL     1      12.933  66.696  18.786  1.00  0.00     0.280 HD
HETATM   19  C6  UNL     1      11.677  69.272  18.900  1.00  0.00     0.224 C
HETATM   20  N3  UNL     1      12.855  69.094  19.714  1.00  0.00    -0.031 N
ATOM     21  H32 UNL     1      12.738  68.480  20.522  1.00  0.00     0.280 HD
ATOM     22  H31 UNL     1      13.136  69.909  20.259  1.00  0.00     0.280 HD
BRANCH  19  23
HETATM   23  C7  UNL     1      10.397  69.105  19.695  1.00  0.00     0.120 C
HETATM   24 BR1  UNL     1      10.723  67.856  21.143  1.00  0.00    -0.094 Br
ENDBRANCH  19  23
ENDBRANCH  11  14
ENDBRANCH   8  10
ENDBRANCH   1   8
BRANCH   7  25
HETATM   25  C13 UNL     1      17.255  63.007  23.397  1.00  0.00     0.241 C
HETATM   26  O3  UNL     1      18.385  63.135  22.794  1.00  0.00    -0.271 OA
HETATM   27  N5  UNL     1      17.289  62.176  24.542  1.00  0.00    -0.346 N
ATOM     28  H5  UNL     1      16.426  62.037  25.067  1.00  0.00     0.163 HD
BRANCH  27  29
HETATM   29  C14 UNL     1      18.491  61.514  25.003  1.00  0.00     0.174 C
BRANCH  29  30
HETATM   30  C15 UNL     1      18.773  61.737  26.445  1.00  0.00     0.039 C
BRANCH  30  31
HETATM   31  C16 UNL     1      19.803  62.725  26.821  1.00  0.00    -0.012 C
HETATM   32  C17 UNL     1      20.202  63.748  25.833  1.00  0.00     0.005 C
HETATM   33  C18 UNL     1      19.257  64.932  25.763  1.00  0.00     0.000 C
HETATM   34  C19 UNL     1      19.018  65.508  27.146  1.00  0.00     0.000 C
HETATM   35  C20 UNL     1      18.363  64.374  27.935  1.00  0.00     0.000 C
HETATM   36  C21 UNL     1      19.452  63.357  28.155  1.00  0.00     0.005 C
ENDBRANCH  30  31
ENDBRANCH  29  30
BRANCH  29  37
HETATM   37  C22 UNL     1      18.613  60.168  24.496  1.00  0.00     0.254 C
HETATM   38  N6  UNL     1      18.273  59.697  23.206  1.00  0.00    -0.060 NA
HETATM   39  O4  UNL     1      19.077  59.277  25.289  1.00  0.00    -0.275 OA
ENDBRANCH  29  37
ENDBRANCH  27  29
ENDBRANCH   7  25
TORSDOF 9
ENDMDL