MODEL 1
REMARK VINA RESULT: -8.465355489      0.000      0.000
REMARK  10 active torsions:
REMARK  status: ('A' for Active; 'I' for Inactive)
REMARK    1  A    between atoms: C2_2  and  C3_3
REMARK    2  A    between atoms: C3_3  and  C4_4
REMARK    3  A    between atoms: C4_4  and  N1_5
REMARK       I    between atoms: N1_5  and  C5_7
REMARK    4  A    between atoms: C5_7  and  C6_9
REMARK    5  A    between atoms: C8_11  and  C9_12
REMARK    6  A    between atoms: C9_12  and  O2_13
REMARK    7  A    between atoms: C9_12  and  C10_15
REMARK       I    between atoms: C10_15  and  N2_17
REMARK    8  A    between atoms: N2_17  and  C11_19
REMARK    9  A    between atoms: C11_19  and  C13_21
REMARK       I    between atoms: N3_25  and  C17_26
REMARK       I    between atoms: C17_26  and  N4_28
REMARK   10  A    between atoms: N4_28  and  C18_30
ROOT
HETATM    1  C10 UNL     1      17.104  64.511  21.987  1.00  0.00     0.247 C
HETATM    2  O3  UNL     1      17.690  65.499  22.496  1.00  0.00    -0.271 OA
HETATM    3  N2  UNL     1      16.475  63.568  22.828  1.00  0.00    -0.353 N
ATOM      4  H2  UNL     1      16.008  62.778  22.383  1.00  0.00     0.163 HD
ENDROOT
BRANCH   3   5
HETATM    5  C11 UNL     1      16.441  63.635  24.253  1.00  0.00     0.103 C
HETATM    6  C12 UNL     1      15.267  64.448  24.756  1.00  0.00     0.034 C
BRANCH   5   7
HETATM    7  C13 UNL     1      16.470  62.277  24.915  1.00  0.00     0.111 C
HETATM    8  C14 UNL     1      16.159  62.387  26.402  1.00  0.00     0.029 C
HETATM    9  C15 UNL     1      17.478  62.874  26.963  1.00  0.00     0.022 C
HETATM   10  C16 UNL     1      18.507  62.305  26.010  1.00  0.00     0.128 C
HETATM   11  N3  UNL     1      17.765  61.682  24.937  1.00  0.00    -0.327 N
HETATM   12  C17 UNL     1      18.227  60.672  24.068  1.00  0.00     0.337 C
HETATM   13  O4  UNL     1      17.519  60.181  23.157  1.00  0.00    -0.246 OA
HETATM   14  N4  UNL     1      19.547  60.178  24.217  1.00  0.00    -0.140 N
ATOM     15  H4  UNL     1      20.313  60.567  23.668  1.00  0.00     0.189 HD
BRANCH  14  16
HETATM   16  C18 UNL     1      19.761  59.215  25.070  1.00  0.00     0.701 A
HETATM   17  N5  UNL     1      19.329  57.945  25.006  1.00  0.00    -0.185 N
HETATM   18  C19 UNL     1      19.760  57.270  26.073  1.00  0.00     0.215 A
ATOM     19  H5  UNL     1      18.758  57.555  24.256  1.00  0.00     0.185 HD
HETATM   20  N6  UNL     1      20.471  58.132  26.815  1.00  0.00    -0.281 N
HETATM   21  N7  UNL     1      20.475  59.292  26.223  1.00  0.00    -0.131 N
ATOM     22  H6  UNL     1      20.933  57.914  27.698  1.00  0.00     0.188 HD
ATOM     23  H7  UNL     1      20.943  60.130  26.571  1.00  0.00     0.205 HD
ENDBRANCH  14  16
ENDBRANCH   5   7
ENDBRANCH   3   5
BRANCH   1  24
HETATM   24  C9  UNL     1      17.105  64.387  20.514  1.00  0.00     0.214 C
BRANCH  24  25
HETATM   25  C8  UNL     1      15.952  65.123  19.874  1.00  0.00     0.025 C
HETATM   26  C7  UNL     1      16.450  65.804  18.631  1.00  0.00     0.023 C
HETATM   27  C6  UNL     1      16.498  67.271  18.898  1.00  0.00     0.092 C
HETATM   28  C21 UNL     1      16.074  67.492  20.332  1.00  0.00     0.071 C
HETATM   29  C20 UNL     1      15.401  66.206  20.770  1.00  0.00     0.024 C
HETATM   30 BR1  UNL     1      14.844  68.983  20.391  1.00  0.00    -0.090 Br
BRANCH  27  31
HETATM   31  C5  UNL     1      17.800  67.879  18.579  1.00  0.00     0.223 C
HETATM   32  N1  UNL     1      18.926  67.086  18.211  1.00  0.00    -0.361 N
ATOM     33  H1  UNL     1      18.822  66.072  18.168  1.00  0.00     0.162 HD
HETATM   34  O1  UNL     1      17.938  69.117  18.628  1.00  0.00    -0.273 OA
BRANCH  32  35
HETATM   35  C4  UNL     1      20.191  67.662  17.900  1.00  0.00     0.122 C
BRANCH  35  36
HETATM   36  C3  UNL     1      21.328  66.781  17.611  1.00  0.00     0.019 C
BRANCH  36  37
HETATM   37  C2  UNL     1      22.494  66.771  18.512  1.00  0.00    -0.003 C
HETATM   38  C1  UNL     1      23.827  66.835  17.861  1.00  0.00     0.005 C
ENDBRANCH  36  37
ENDBRANCH  35  36
ENDBRANCH  32  35
ENDBRANCH  27  31
ENDBRANCH  24  25
BRANCH  24  39
HETATM   39  O2  UNL     1      18.320  64.727  19.971  1.00  0.00    -0.386 OA
ATOM     40  H2  UNL     1      18.992  64.863  20.628  1.00  0.00     0.210 HD
ENDBRANCH  24  39
ENDBRANCH   1  24
TORSDOF 10
ENDMDL