MODEL 1
REMARK VINA RESULT: -7.657006673      0.000      0.000
REMARK  8 active torsions:
REMARK  status: ('A' for Active; 'I' for Inactive)
REMARK       I    between atoms: C1_4  and  N2_5
REMARK       I    between atoms: C1_4  and  N6_25
REMARK    1  A    between atoms: N2_5  and  C2_7
REMARK    2  A    between atoms: C2_7  and  C3_8
REMARK    3  A    between atoms: C3_8  and  C4_9
REMARK    4  A    between atoms: C4_9  and  C5_10
REMARK    5  A    between atoms: C5_10  and  C6_11
REMARK    6  A    between atoms: C6_11  and  N3_12
REMARK       I    between atoms: N3_12  and  C7_14
REMARK    7  A    between atoms: C7_14  and  C8_16
REMARK    8  A    between atoms: C8_16  and  N4_17
ROOT
HETATM    1  N1  UNL     1      15.972  65.757  23.255  1.00  0.00    -0.235 N
ATOM      2  H11 UNL     1      16.771  65.195  22.959  1.00  0.00     0.174 HD
ATOM      3  H12 UNL     1      15.568  66.426  22.600  1.00  0.00     0.174 HD
HETATM    4  C1  UNL     1      15.525  65.582  24.440  1.00  0.00     0.670 C
HETATM    5  N2  UNL     1      14.423  66.358  24.849  1.00  0.00    -0.227 N
ATOM      6  H2  UNL     1      14.546  67.366  24.948  1.00  0.00     0.177 HD
HETATM    7  N6  UNL     1      16.082  64.663  25.341  1.00  0.00    -0.208 N
HETATM    8  C15 UNL     1      15.738  63.268  25.250  1.00  0.00     0.161 C
HETATM    9  C16 UNL     1      15.914  62.637  23.911  1.00  0.00     0.143 C
HETATM   10  N7  UNL     1      17.269  62.471  23.467  1.00  0.00    -0.360 N
ATOM     11  H7  UNL     1      17.680  63.262  22.971  1.00  0.00     0.162 HD
HETATM   12  C17 UNL     1      18.100  61.338  23.638  1.00  0.00     0.217 C
HETATM   13  O2  UNL     1      18.641  60.808  22.599  1.00  0.00    -0.274 OA
HETATM   14  C18 UNL     1      18.415  60.692  24.931  1.00  0.00     0.103 C
HETATM   15  C19 UNL     1      19.737  61.288  25.447  1.00  0.00     0.009 C
HETATM   16  C20 UNL     1      19.520  62.060  26.720  1.00  0.00     0.002 C
HETATM   17  C21 UNL     1      20.270  63.346  26.819  1.00  0.00     0.020 C
HETATM   18  C22 UNL     1      20.107  64.290  25.680  1.00  0.00     0.122 C
HETATM   19  N8  UNL     1      19.496  65.557  26.017  1.00  0.00    -0.360 N
ATOM     20  H8  UNL     1      20.113  66.275  26.398  1.00  0.00     0.162 HD
HETATM   21  C23 UNL     1      18.137  65.904  25.872  1.00  0.00     0.236 C
HETATM   22  O3  UNL     1      17.847  66.991  25.259  1.00  0.00    -0.272 OA
HETATM   23  C24 UNL     1      16.980  65.126  26.369  1.00  0.00     0.244 C
ENDROOT
BRANCH   5  24
HETATM   24  C2  UNL     1      13.105  65.780  25.138  1.00  0.00     0.138 C
BRANCH  24  25
HETATM   25  C3  UNL     1      12.076  66.829  25.314  1.00  0.00     0.020 C
BRANCH  25  26
HETATM   26  C4  UNL     1      10.729  66.608  24.758  1.00  0.00     0.003 C
BRANCH  26  27
HETATM   27  C5  UNL     1      10.202  67.418  23.660  1.00  0.00     0.020 C
BRANCH  27  28
HETATM   28  C6  UNL     1      10.551  67.135  22.255  1.00  0.00     0.122 C
BRANCH  28  29
HETATM   29  N3  UNL     1      11.658  67.858  21.707  1.00  0.00    -0.360 N
HETATM   30  C7  UNL     1      12.972  67.291  21.593  1.00  0.00     0.245 C
HETATM   31  O1  UNL     1      13.120  66.128  21.989  1.00  0.00    -0.272 OA
ATOM     32  H3  UNL     1      11.507  68.814  21.385  1.00  0.00     0.162 HD
BRANCH  30  33
HETATM   33  C8  UNL     1      14.088  68.056  21.031  1.00  0.00     0.362 C
BRANCH  33  34
HETATM   34  N4  UNL     1      14.120  68.184  19.613  1.00  0.00     0.019 N
HETATM   35  C9  UNL     1      15.268  68.843  19.064  1.00  0.00     0.261 C
HETATM   36  C10 UNL     1      14.801  69.440  17.726  1.00  0.00     0.036 C
HETATM   37  C11 UNL     1      13.838  68.413  17.130  1.00  0.00     0.005 C
HETATM   38  C12 UNL     1      14.291  67.009  17.500  1.00  0.00     0.036 C
HETATM   39  C14 UNL     1      12.529  68.618  17.907  1.00  0.00     0.147 C
HETATM   40  C13 UNL     1      14.053  66.867  19.004  1.00  0.00     0.261 C
HETATM   41  N5  UNL     1      12.957  68.928  19.266  1.00  0.00    -0.046 NA
ENDBRANCH  33  34
ENDBRANCH  30  33
ENDBRANCH  28  29
ENDBRANCH  27  28
ENDBRANCH  26  27
ENDBRANCH  25  26
ENDBRANCH  24  25
ENDBRANCH   5  24
TORSDOF 8
ENDMDL