MODEL 3
REMARK VINA RESULT: -6.863462022      1.248      1.329
REMARK  11 active torsions:
REMARK  status: ('A' for Active; 'I' for Inactive)
REMARK       I    between atoms: N1_2  and  C2_4
REMARK    1  A    between atoms: C2_4  and  C3_6
REMARK    2  A    between atoms: C4_7  and  C5_8
REMARK    3  A    between atoms: C5_8  and  C6_9
REMARK       I    between atoms: C6_9  and  N2_11
REMARK       I    between atoms: N5_16  and  C8_17
REMARK       I    between atoms: C8_17  and  N6_19
REMARK    4  A    between atoms: N6_19  and  C9_21
REMARK    5  A    between atoms: N7_24  and  C12_25
REMARK    6  A    between atoms: C12_25  and  O4_26
REMARK    7  A    between atoms: C12_25  and  C13_28
REMARK    8  A    between atoms: C17_32  and  C18_33
REMARK    9  A    between atoms: C18_33  and  C19_34
REMARK   10  A    between atoms: C19_34  and  C20_35
REMARK   11  A    between atoms: C20_35  and  N8_36
ROOT
HETATM    1  C3  UNL     1      13.153  66.192  22.609  1.00  0.00     0.128 C
HETATM    2  C4  UNL     1      14.559  65.772  22.123  1.00  0.00     0.137 C
HETATM    3  N5  UNL     1      14.863  66.995  21.373  1.00  0.00    -0.232 N
HETATM    4  C8  UNL     1      16.018  67.760  21.464  1.00  0.00     0.338 C
HETATM    5  O3  UNL     1      16.981  67.270  22.151  1.00  0.00    -0.245 OA
HETATM    6  N6  UNL     1      16.286  69.025  20.908  1.00  0.00    -0.338 N
ATOM      7  H6  UNL     1      15.571  69.494  20.351  1.00  0.00     0.164 HD
HETATM    8  N7  UNL     1      13.718  67.168  20.549  1.00  0.00    -0.262 N
HETATM    9  C17 UNL     1      12.620  66.990  21.509  1.00  0.00     0.126 C
ENDROOT
BRANCH   2  10
HETATM   10  C5  UNL     1      15.490  65.417  23.195  1.00  0.00     0.131 C
BRANCH  10  11
HETATM   11  C6  UNL     1      15.968  64.011  23.058  1.00  0.00     0.225 C
HETATM   12  O2  UNL     1      16.259  63.485  21.963  1.00  0.00    -0.273 OA
HETATM   13  N2  UNL     1      16.096  63.237  24.237  1.00  0.00    -0.304 N
HETATM   14  C7  UNL     1      17.140  62.582  24.591  1.00  0.00     0.203 C
ATOM     15  H2  UNL     1      15.287  63.197  24.858  1.00  0.00     0.171 HD
HETATM   16  N3  UNL     1      18.331  62.547  23.825  1.00  0.00    -0.066 NA
HETATM   17  N4  UNL     1      17.099  61.852  25.808  1.00  0.00    -0.066 NA
ENDBRANCH  10  11
ENDBRANCH   2  10
BRANCH   1  18
HETATM   18  C2  UNL     1      13.381  66.913  23.880  1.00  0.00     0.225 C
HETATM   19  N1  UNL     1      13.917  68.189  24.056  1.00  0.00    -0.365 N
HETATM   20  C1  UNL     1      14.080  68.768  25.361  1.00  0.00     0.149 C
ATOM     21  H1  UNL     1      14.201  68.725  23.236  1.00  0.00     0.161 HD
HETATM   22  O1  UNL     1      13.041  66.281  24.936  1.00  0.00    -0.273 OA
ENDBRANCH   1  18
BRANCH   9  23
HETATM   23  C18 UNL     1      11.884  68.234  21.772  1.00  0.00     0.030 C
BRANCH  23  24
HETATM   24  C19 UNL     1      10.477  68.279  21.299  1.00  0.00     0.022 C
BRANCH  24  25
HETATM   25  C20 UNL     1       9.618  68.656  22.511  1.00  0.00     0.122 C
BRANCH  25  26
HETATM   26  N8  UNL     1       9.441  67.513  23.388  1.00  0.00    -0.367 N
HETATM   27  C21 UNL     1       9.803  67.680  24.627  1.00  0.00     0.196 C
HETATM   28  N9  UNL     1      10.342  68.906  25.116  1.00  0.00    -0.067 NA
HETATM   29  N10 UNL     1       9.676  66.624  25.568  1.00  0.00    -0.067 NA
ATOM     30  H8  UNL     1       9.055  66.630  23.053  1.00  0.00     0.161 HD
ENDBRANCH  25  26
ENDBRANCH  24  25
ENDBRANCH  23  24
ENDBRANCH   9  23
BRANCH   8  31
HETATM   31  C12 UNL     1      13.627  67.338  19.163  1.00  0.00     0.141 C
BRANCH  31  32
HETATM   32  O4  UNL     1      13.969  66.278  18.461  1.00  0.00    -0.348 OA
ATOM     33  H4  UNL     1      13.783  66.346  17.532  1.00  0.00     0.219 HD
ENDBRANCH  31  32
BRANCH  31  34
HETATM   34  C13 UNL     1      13.239  68.450  18.315  1.00  0.00     0.015 C
HETATM   35  C14 UNL     1      13.586  69.818  18.776  1.00  0.00     0.023 C
HETATM   36  C15 UNL     1      14.056  68.317  16.955  1.00  0.00     0.023 C
HETATM   37  C16 UNL     1      11.823  68.401  17.820  1.00  0.00     0.023 C
ENDBRANCH  31  34
ENDBRANCH   8  31
BRANCH   6  38
HETATM   38  C9  UNL     1      17.554  69.661  21.118  1.00  0.00     0.078 C
HETATM   39  C10 UNL     1      18.440  69.564  19.905  1.00  0.00     0.032 C
HETATM   40  C11 UNL     1      17.395  71.126  21.489  1.00  0.00     0.032 C
ENDBRANCH   6  38
TORSDOF 11
ENDMDL