MODEL 5
REMARK VINA RESULT: -6.799296198      2.198      6.099
REMARK  9 active torsions:
REMARK  status: ('A' for Active; 'I' for Inactive)
REMARK    1  A    between atoms: C2_2  and  C4_4
REMARK    2  A    between atoms: C4_4  and  C5_5
REMARK    3  A    between atoms: C7_10  and  C8_11
REMARK    4  A    between atoms: C8_11  and  C9_12
REMARK    5  A    between atoms: C13_19  and  C14_20
REMARK    6  A    between atoms: C14_20  and  C16_22
REMARK    7  A    between atoms: C19_26  and  O3_27
REMARK    8  A    between atoms: C21_31  and  C22_32
REMARK    9  A    between atoms: C22_32  and  N5_33
ROOT
HETATM    1  C5  UNL     1      14.320  65.208  26.922  1.00  0.00     0.180 C
HETATM    2  N1  UNL     1      14.750  65.162  28.319  1.00  0.00    -0.346 N
ATOM      3  H1  UNL     1      14.148  65.633  28.995  1.00  0.00     0.163 HD
HETATM    4  C6  UNL     1      15.895  64.545  28.831  1.00  0.00     0.241 C
HETATM    5  O1  UNL     1      15.746  63.931  29.955  1.00  0.00    -0.271 OA
HETATM    6  C7  UNL     1      17.246  64.494  28.268  1.00  0.00     0.177 C
HETATM    7  N2  UNL     1      17.436  63.108  27.793  1.00  0.00    -0.346 N
ATOM      8  H2  UNL     1      17.571  62.379  28.494  1.00  0.00     0.163 HD
HETATM    9  C12 UNL     1      17.444  62.727  26.439  1.00  0.00     0.241 C
HETATM   10  O2  UNL     1      16.801  61.700  26.119  1.00  0.00    -0.271 OA
HETATM   11  C13 UNL     1      18.151  63.435  25.341  1.00  0.00     0.183 C
HETATM   12  N3  UNL     1      17.601  63.136  24.062  1.00  0.00    -0.338 N
HETATM   13  C18 UNL     1      18.425  62.432  23.051  1.00  0.00     0.154 C
HETATM   14  C19 UNL     1      16.270  63.452  23.616  1.00  0.00     0.219 C
HETATM   15  N4  UNL     1      15.574  64.676  23.687  1.00  0.00    -0.329 N
HETATM   16  C20 UNL     1      14.134  64.573  23.367  1.00  0.00     0.155 C
HETATM   17  C21 UNL     1      16.044  65.979  23.989  1.00  0.00     0.207 C
HETATM   18  N8  UNL     1      15.795  66.565  25.251  1.00  0.00    -0.336 N
ATOM     19  H8  UNL     1      16.493  67.268  25.495  1.00  0.00     0.164 HD
HETATM   20  C24 UNL     1      14.840  66.417  26.230  1.00  0.00     0.242 C
HETATM   21  O4  UNL     1      14.271  67.498  26.650  1.00  0.00    -0.271 OA
ENDROOT
BRANCH  17  22
HETATM   22  C22 UNL     1      15.575  66.922  22.857  1.00  0.00     0.169 C
BRANCH  22  23
HETATM   23  N5  UNL     1      16.471  66.852  21.733  1.00  0.00    -0.363 N
HETATM   24  C23 UNL     1      15.932  66.679  20.574  1.00  0.00     0.197 C
HETATM   25  N6  UNL     1      14.531  66.559  20.365  1.00  0.00    -0.067 NA
HETATM   26  N7  UNL     1      16.784  66.606  19.447  1.00  0.00    -0.067 NA
ATOM     27  H5  UNL     1      17.481  66.936  21.846  1.00  0.00     0.161 HD
ENDBRANCH  22  23
ENDBRANCH  17  22
BRANCH  14  28
HETATM   28  O3  UNL     1      15.691  62.410  23.079  1.00  0.00    -0.332 OA
ATOM     29  H3  UNL     1      14.775  62.582  22.896  1.00  0.00     0.220 HD
ENDBRANCH  14  28
BRANCH   1  30
HETATM   30  C4  UNL     1      12.803  65.301  26.947  1.00  0.00     0.067 C
BRANCH  30  31
HETATM   31  C2  UNL     1      12.175  64.023  27.246  1.00  0.00    -0.091 C
HETATM   32  C1  UNL     1      12.750  62.863  27.186  1.00  0.00     0.014 C
HETATM   33  C3  UNL     1      10.730  64.053  27.704  1.00  0.00     0.042 C
ENDBRANCH  30  31
ENDBRANCH   1  30
BRANCH  11  34
HETATM   34  C14 UNL     1      19.610  63.222  25.561  1.00  0.00     0.013 C
HETATM   35  C15 UNL     1      19.996  61.860  26.078  1.00  0.00     0.012 C
BRANCH  34  36
HETATM   36  C16 UNL     1      20.379  64.368  26.120  1.00  0.00     0.002 C
HETATM   37  C17 UNL     1      19.687  65.705  25.849  1.00  0.00     0.005 C
ENDBRANCH  34  36
ENDBRANCH  11  34
BRANCH   6  38
HETATM   38  C8  UNL     1      18.375  64.746  29.224  1.00  0.00     0.038 C
BRANCH  38  39
HETATM   39  C9  UNL     1      18.677  66.145  29.585  1.00  0.00    -0.020 C
HETATM   40  C10 UNL     1      18.076  67.226  28.775  1.00  0.00     0.009 C
HETATM   41  C11 UNL     1      18.216  66.354  31.044  1.00  0.00     0.009 C
ENDBRANCH  38  39
ENDBRANCH   6  38
TORSDOF 9
ENDMDL