MODEL 4
REMARK VINA RESULT: -7.407480505      5.519      9.046
REMARK  11 active torsions:
REMARK  status: ('A' for Active; 'I' for Inactive)
REMARK    1  A    between atoms: C3_3  and  C4_4
REMARK    2  A    between atoms: N2_9  and  C7_10
REMARK    3  A    between atoms: C7_10  and  C8_11
REMARK    4  A    between atoms: C8_11  and  C9_12
REMARK    5  A    between atoms: C9_12  and  C10_13
REMARK    6  A    between atoms: C12_18  and  C13_19
REMARK    7  A    between atoms: C13_19  and  C14_20
REMARK    8  A    between atoms: C14_20  and  C15_21
REMARK    9  A    between atoms: C15_21  and  C16_22
REMARK   10  A    between atoms: C16_22  and  N4_23
REMARK   11  A    between atoms: C17_29  and  O2_30
ROOT
HETATM    1  C1  UNL     1      19.004  58.831  23.817  1.00  0.00     0.112 C
HETATM    2  C2  UNL     1      19.016  60.009  24.680  1.00  0.00    -0.103 C
HETATM    3  C3  UNL     1      19.023  60.966  25.405  1.00  0.00    -0.030 C
ENDROOT
BRANCH   3   4
HETATM    4  C4  UNL     1      19.028  62.090  26.285  1.00  0.00     0.163 A
HETATM    5  N1  UNL     1      19.539  62.050  27.534  1.00  0.00    -0.344 N
HETATM    6  C5  UNL     1      19.384  63.259  28.076  1.00  0.00     0.107 A
ATOM      7  H1  UNL     1      19.967  61.240  27.982  1.00  0.00     0.167 HD
HETATM    8  C6  UNL     1      18.767  64.038  27.130  1.00  0.00     0.110 A
HETATM    9  N2  UNL     1      18.546  63.311  26.018  1.00  0.00    -0.335 N
BRANCH   9  10
HETATM   10  C7  UNL     1      17.926  63.736  24.791  1.00  0.00     0.131 C
BRANCH  10  11
HETATM   11  C8  UNL     1      16.447  63.951  25.056  1.00  0.00     0.023 C
BRANCH  11  12
HETATM   12  C9  UNL     1      15.735  63.786  23.762  1.00  0.00     0.036 C
BRANCH  12  13
HETATM   13  C10 UNL     1      15.235  65.142  23.211  1.00  0.00     0.176 C
HETATM   14  N3  UNL     1      13.819  65.100  23.070  1.00  0.00    -0.346 N
HETATM   15  C11 UNL     1      12.866  66.105  22.862  1.00  0.00     0.241 C
ATOM     16  H3  UNL     1      13.424  64.161  23.131  1.00  0.00     0.163 HD
HETATM   17  O1  UNL     1      11.994  66.330  23.799  1.00  0.00    -0.271 OA
HETATM   18  C12 UNL     1      12.661  67.010  21.696  1.00  0.00     0.175 C
HETATM   19  N5  UNL     1      13.233  66.535  20.475  1.00  0.00    -0.359 N
HETATM   20  C17 UNL     1      13.880  67.150  19.423  1.00  0.00     0.135 C
ATOM     21  H5  UNL     1      13.144  65.526  20.357  1.00  0.00     0.162 HD
HETATM   22  C18 UNL     1      14.819  68.194  19.204  1.00  0.00     0.161 C
HETATM   23  C19 UNL     1      13.997  69.240  18.409  1.00  0.00     0.035 C
HETATM   24  N6  UNL     1      15.517  68.969  20.117  1.00  0.00    -0.338 N
HETATM   25  C20 UNL     1      14.698  70.527  18.553  1.00  0.00     0.022 C
HETATM   26  C21 UNL     1      15.969  70.109  19.256  1.00  0.00     0.127 C
HETATM   27  C22 UNL     1      15.816  68.863  21.475  1.00  0.00     0.243 C
HETATM   28  O3  UNL     1      15.551  69.913  22.182  1.00  0.00    -0.271 OA
HETATM   29  C23 UNL     1      16.383  67.778  22.281  1.00  0.00     0.172 C
HETATM   30  C24 UNL     1      17.708  68.335  22.844  1.00  0.00     0.042 C
HETATM   31  N7  UNL     1      16.704  66.564  21.643  1.00  0.00    -0.346 N
HETATM   32  C25 UNL     1      16.030  65.357  22.006  1.00  0.00     0.241 C
ATOM     33  H7  UNL     1      17.422  66.547  20.918  1.00  0.00     0.163 HD
HETATM   34  O4  UNL     1      16.152  64.390  21.177  1.00  0.00    -0.271 OA
BRANCH  18  35
HETATM   35  C13 UNL     1      11.113  66.975  21.490  1.00  0.00     0.035 C
BRANCH  35  36
HETATM   36  C14 UNL     1      10.568  68.287  21.087  1.00  0.00     0.004 C
BRANCH  36  37
HETATM   37  C15 UNL     1       9.415  68.713  21.925  1.00  0.00     0.027 C
BRANCH  37  38
HETATM   38  C16 UNL     1       9.613  68.848  23.386  1.00  0.00     0.229 C
BRANCH  38  39
HETATM   39  N4  UNL     1       9.040  67.830  24.193  1.00  0.00    -0.079 N
ATOM     40  H43 UNL     1       8.072  68.066  24.410  1.00  0.00     0.274 HD
ATOM     41  H42 UNL     1       8.904  66.986  23.638  1.00  0.00     0.274 HD
ATOM     42  H41 UNL     1       9.540  67.601  25.052  1.00  0.00     0.274 HD
ENDBRANCH  38  39
ENDBRANCH  37  38
ENDBRANCH  36  37
ENDBRANCH  35  36
ENDBRANCH  18  35
BRANCH  20  43
HETATM   43  O2  UNL     1      13.538  66.621  18.266  1.00  0.00    -0.348 OA
ATOM     44  H2  UNL     1      13.620  65.675  18.275  1.00  0.00     0.219 HD
ENDBRANCH  20  43
ENDBRANCH  12  13
ENDBRANCH  11  12
ENDBRANCH  10  11
ENDBRANCH   9  10
ENDBRANCH   3   4
TORSDOF 11
ENDMDL