MODEL 3
REMARK VINA RESULT: -7.765643664      1.959      2.716
REMARK  8 active torsions:
REMARK  status: ('A' for Active; 'I' for Inactive)
REMARK    1  A    between atoms: C2_2  and  C3_3
REMARK    2  A    between atoms: C3_3  and  C4_4
REMARK    3  A    between atoms: C3_3  and  N3_14
REMARK    4  A    between atoms: C4_4  and  N1_5
REMARK       I    between atoms: N3_14  and  C9_16
REMARK    5  A    between atoms: C9_16  and  C10_18
REMARK    6  A    between atoms: C10_18  and  C11_19
REMARK    7  A    between atoms: C10_18  and  N8_35
REMARK    8  A    between atoms: C11_19  and  C12_20
REMARK       I    between atoms: N5_25  and  C15_26
REMARK       I    between atoms: C15_26  and  N6_28
REMARK       I    between atoms: N8_35  and  C21_37
ROOT
HETATM    1  C10 UNL     1      16.306  62.759  24.069  1.00  0.00     0.085 C
ENDROOT
BRANCH   1   2
HETATM    2  C9  UNL     1      16.220  63.714  22.971  1.00  0.00     0.264 C
HETATM    3  N3  UNL     1      15.765  65.041  23.195  1.00  0.00    -0.350 N
ATOM      4  H3  UNL     1      15.497  65.319  24.140  1.00  0.00     0.163 HD
HETATM    5  O2  UNL     1      16.536  63.414  21.807  1.00  0.00    -0.266 OA
BRANCH   3   6
HETATM    6  C3  UNL     1      15.667  66.018  22.119  1.00  0.00     0.103 C
BRANCH   6   7
HETATM    7  C2  UNL     1      16.519  67.236  22.414  1.00  0.00     0.022 C
HETATM    8  C1  UNL     1      17.557  67.438  21.308  1.00  0.00     0.007 C
ENDBRANCH   6   7
BRANCH   6   9
HETATM    9  C4  UNL     1      14.252  66.369  21.800  1.00  0.00     0.167 C
BRANCH   9  10
HETATM   10  N1  UNL     1      14.081  66.849  20.445  1.00  0.00    -0.269 N
HETATM   11  S1  UNL     1      13.453  68.459  19.996  1.00  0.00    -0.018 SA
HETATM   12  C5  UNL     1      13.393  68.144  18.209  1.00  0.00     0.095 C
HETATM   13  C6  UNL     1      11.989  68.462  17.748  1.00  0.00     0.052 C
HETATM   14  C7  UNL     1      14.417  68.978  17.462  1.00  0.00     0.052 C
HETATM   15  N2  UNL     1      13.735  66.769  18.114  1.00  0.00    -0.323 N
HETATM   16  C8  UNL     1      14.348  66.213  19.228  1.00  0.00     0.329 C
ATOM     17  H2  UNL     1      13.540  66.221  17.275  1.00  0.00     0.166 HD
HETATM   18  O1  UNL     1      15.112  65.189  19.185  1.00  0.00    -0.246 OA
ENDBRANCH   9  10
ENDBRANCH   6   9
ENDBRANCH   3   6
ENDBRANCH   1   2
BRANCH   1  19
HETATM   19  C11 UNL     1      15.212  62.866  25.107  1.00  0.00     0.122 C
BRANCH  19  20
HETATM   20  C12 UNL     1      15.720  63.172  26.456  1.00  0.00     0.043 A
HETATM   21  C13 UNL     1      17.070  63.491  26.696  1.00  0.00     0.115 A
HETATM   22  N4  UNL     1      17.238  63.737  27.977  1.00  0.00    -0.360 N
HETATM   23  C14 UNL     1      16.057  63.595  28.602  1.00  0.00     0.193 A
ATOM     24  H4  UNL     1      18.118  63.992  28.423  1.00  0.00     0.166 HD
HETATM   25  N5  UNL     1      15.129  63.253  27.673  1.00  0.00    -0.263 N
HETATM   26  C15 UNL     1      13.746  63.033  27.861  1.00  0.00     0.331 C
HETATM   27  O3  UNL     1      13.007  62.733  26.843  1.00  0.00    -0.246 OA
HETATM   28  N6  UNL     1      13.037  63.105  29.066  1.00  0.00    -0.307 N
HETATM   29  C16 UNL     1      11.563  62.849  29.135  1.00  0.00     0.157 C
HETATM   30  C20 UNL     1      13.462  63.401  30.388  1.00  0.00     0.365 C
HETATM   31  C17 UNL     1      11.381  62.510  30.588  1.00  0.00     0.258 C
HETATM   32  N7  UNL     1      12.319  63.383  31.270  1.00  0.00    -0.057 N
HETATM   33  C18 UNL     1      11.804  64.708  31.437  1.00  0.00     0.274 C
HETATM   34  C19 UNL     1      12.673  62.749  32.536  1.00  0.00     0.274 C
ENDBRANCH  19  20
ENDBRANCH   1  19
BRANCH   1  35
HETATM   35  N8  UNL     1      16.754  61.490  23.674  1.00  0.00    -0.329 N
HETATM   36  C21 UNL     1      18.023  60.909  23.636  1.00  0.00     0.186 C
HETATM   37  N9  UNL     1      18.213  59.793  23.024  1.00  0.00    -0.374 N
HETATM   38  N10 UNL     1      19.145  61.493  24.246  1.00  0.00    -0.064 NA
ATOM     39  H92 UNL     1      17.399  59.369  22.581  1.00  0.00     0.158 HD
ATOM     40  H91 UNL     1      19.140  59.368  22.996  1.00  0.00     0.158 HD
ATOM     41  H8  UNL     1      16.008  60.872  23.352  1.00  0.00     0.168 HD
ENDBRANCH   1  35
TORSDOF 8
ENDMDL