MODEL 5
REMARK VINA RESULT: -7.958575457      1.493      1.959
REMARK  9 active torsions:
REMARK  status: ('A' for Active; 'I' for Inactive)
REMARK    1  A    between atoms: C11_16  and  N4_17
REMARK       I    between atoms: N4_17  and  C12_19
REMARK       I    between atoms: C12_19  and  N6_24
REMARK    2  A    between atoms: N6_24  and  C15_26
REMARK    3  A    between atoms: C15_26  and  C16_27
REMARK       I    between atoms: C16_27  and  N7_29
REMARK    4  A    between atoms: N7_29  and  C17_31
REMARK    5  A    between atoms: C17_31  and  C18_32
REMARK       I    between atoms: C18_32  and  N8_34
REMARK    6  A    between atoms: N8_34  and  C19_36
REMARK    7  A    between atoms: C19_36  and  C20_37
REMARK    8  A    between atoms: C19_36  and  C24_41
REMARK    9  A    between atoms: C20_37  and  C21_38
ROOT
HETATM    1  C1  UNL     1      19.689  62.616  27.398  1.00  0.00     0.221 C
HETATM    2  N1  UNL     1      18.917  63.051  26.653  1.00  0.00    -0.462 NA
HETATM    3  C2  UNL     1      17.947  63.573  25.742  1.00  0.00     0.215 C
HETATM    4  C3  UNL     1      17.449  64.921  26.192  1.00  0.00     0.106 C
HETATM    5  C4  UNL     1      16.156  64.591  26.900  1.00  0.00     0.393 C
HETATM    6  N2  UNL     1      16.429  64.446  28.302  1.00  0.00    -0.041 N
ATOM      7  H21 UNL     1      16.967  65.237  28.655  1.00  0.00     0.280 HD
ATOM      8  H22 UNL     1      17.104  63.700  28.471  1.00  0.00     0.280 HD
HETATM    9  C5  UNL     1      15.226  64.246  29.080  1.00  0.00     0.189 C
HETATM   10  C6  UNL     1      14.476  65.551  29.291  1.00  0.00     0.040 C
HETATM   11  C7  UNL     1      14.305  63.290  28.371  1.00  0.00     0.038 C
HETATM   12  C8  UNL     1      13.724  62.354  29.396  1.00  0.00     0.014 C
HETATM   13  C9  UNL     1      15.111  62.508  27.365  1.00  0.00     0.248 C
HETATM   14  N3  UNL     1      15.653  63.367  26.337  1.00  0.00    -0.017 N
HETATM   15  C10 UNL     1      14.576  63.751  25.427  1.00  0.00     0.278 C
HETATM   16  C11 UNL     1      16.734  62.682  25.669  1.00  0.00     0.341 C
ENDROOT
BRANCH  16  17
HETATM   17  N4  UNL     1      16.392  62.305  24.320  1.00  0.00    -0.192 N
HETATM   18  C12 UNL     1      17.307  62.614  23.258  1.00  0.00     0.683 C
HETATM   19  N5  UNL     1      18.302  61.832  23.079  1.00  0.00    -0.150 N
HETATM   20  N6  UNL     1      17.055  63.762  22.476  1.00  0.00    -0.217 N
HETATM   21  C13 UNL     1      18.597  60.704  23.808  1.00  0.00     0.015 C
ATOM     22  H5  UNL     1      18.941  62.068  22.320  1.00  0.00     0.195 HD
HETATM   23  C14 UNL     1      18.860  59.699  24.427  1.00  0.00     0.037 C
ATOM     24  H6  UNL     1      16.202  64.298  22.637  1.00  0.00     0.178 HD
ATOM     25  H4  UNL     1      15.513  61.826  24.123  1.00  0.00     0.180 HD
BRANCH  20  26
HETATM   26  C15 UNL     1      17.973  64.189  21.462  1.00  0.00     0.240 C
BRANCH  26  27
HETATM   27  C16 UNL     1      17.207  64.616  20.264  1.00  0.00     0.236 C
HETATM   28  O1  UNL     1      16.485  63.816  19.597  1.00  0.00    -0.272 OA
HETATM   29  N7  UNL     1      17.307  65.984  19.875  1.00  0.00    -0.351 N
ATOM     30  H7  UNL     1      17.882  66.624  20.422  1.00  0.00     0.163 HD
BRANCH  29  31
HETATM   31  C17 UNL     1      16.606  66.471  18.719  1.00  0.00     0.225 C
BRANCH  31  32
HETATM   32  C18 UNL     1      15.172  66.545  18.994  1.00  0.00     0.236 C
HETATM   33  O2  UNL     1      14.307  65.944  18.322  1.00  0.00    -0.272 OA
HETATM   34  N8  UNL     1      14.711  67.349  20.092  1.00  0.00    -0.345 N
ATOM     35  H8  UNL     1      15.382  67.856  20.669  1.00  0.00     0.163 HD
BRANCH  34  36
HETATM   36  C19 UNL     1      13.325  67.437  20.372  1.00  0.00     0.185 C
BRANCH  36  37
HETATM   37  C20 UNL     1      12.678  68.764  20.398  1.00  0.00     0.040 C
BRANCH  37  38
HETATM   38  C21 UNL     1      12.572  69.423  19.074  1.00  0.00    -0.020 C
HETATM   39  C22 UNL     1      11.554  70.593  19.249  1.00  0.00     0.009 C
HETATM   40  C23 UNL     1      11.931  68.550  18.033  1.00  0.00     0.009 C
ENDBRANCH  37  38
ENDBRANCH  36  37
BRANCH  36  41
HETATM   41  C24 UNL     1      12.973  66.636  21.603  1.00  0.00     0.196 C
HETATM   42  O3  UNL     1      13.878  66.166  22.341  1.00  0.00    -0.646 OA
HETATM   43  O4  UNL     1      11.664  66.404  21.944  1.00  0.00    -0.646 OA
ENDBRANCH  36  41
ENDBRANCH  34  36
ENDBRANCH  31  32
ENDBRANCH  29  31
ENDBRANCH  26  27
ENDBRANCH  20  26
ENDBRANCH  16  17
TORSDOF 9
ENDMDL