MODEL 1
REMARK VINA RESULT: -7.429441934      0.000      0.000
REMARK  13 active torsions:
REMARK  status: ('A' for Active; 'I' for Inactive)
REMARK    1  A    between atoms: C2_2  and  C3_3
REMARK    2  A    between atoms: C3_3  and  N1_4
REMARK    3  A    between atoms: N1_4  and  C4_5
REMARK    4  A    between atoms: C4_5  and  C5_6
REMARK       I    between atoms: C5_6  and  N2_8
REMARK    5  A    between atoms: N3_11  and  C8_12
REMARK    6  A    between atoms: C8_12  and  N4_14
REMARK    7  A    between atoms: C9_16  and  O2_17
REMARK    8  A    between atoms: C9_16  and  N5_19
REMARK    9  A    between atoms: N5_19  and  C10_21
REMARK   10  A    between atoms: C10_21  and  C11_22
REMARK   11  A    between atoms: C11_22  and  C12_23
REMARK   12  A    between atoms: C12_23  and  N6_24
REMARK   13  A    between atoms: N6_24  and  C13_26
ROOT
HETATM    1  C8  UNL     1      14.445  67.917  18.420  1.00  0.00     0.177 C
HETATM    2  S1  UNL     1      15.311  69.236  18.072  1.00  0.00    -0.041 SA
ENDROOT
BRANCH   1   3
HETATM    3  N3  UNL     1      14.824  66.955  19.341  1.00  0.00    -0.350 N
HETATM    4  C7  UNL     1      15.163  65.600  18.786  1.00  0.00     0.145 C
HETATM    5  C6  UNL     1      16.641  65.454  19.076  1.00  0.00     0.146 C
HETATM    6  N2  UNL     1      16.932  65.585  20.489  1.00  0.00    -0.344 N
HETATM    7  C5  UNL     1      17.686  64.630  21.214  1.00  0.00     0.267 C
HETATM    8  C18 UNL     1      16.414  66.759  21.173  1.00  0.00     0.151 C
HETATM    9  O1  UNL     1      18.102  63.640  20.577  1.00  0.00    -0.267 OA
HETATM   10  C16 UNL     1      14.962  67.011  20.761  1.00  0.00     0.100 C
HETATM   11  C17 UNL     1      14.517  68.275  21.419  1.00  0.00     0.034 C
BRANCH   7  12
HETATM   12  C4  UNL     1      17.939  64.824  22.616  1.00  0.00     0.288 C
BRANCH  12  13
HETATM   13  N1  UNL     1      17.237  64.001  23.563  1.00  0.00     0.041 N
HETATM   14  C19 UNL     1      17.205  64.770  24.800  1.00  0.00     0.275 C
HETATM   15  C20 UNL     1      18.161  64.119  25.766  1.00  0.00     0.153 C
HETATM   16  N9  UNL     1      18.856  63.108  25.012  1.00  0.00    -0.335 N
HETATM   17  C21 UNL     1      18.089  62.886  23.839  1.00  0.00     0.419 C
ATOM     18  H9  UNL     1      19.726  62.644  25.270  1.00  0.00     0.164 HD
HETATM   19  O3  UNL     1      18.135  61.860  23.121  1.00  0.00    -0.239 OA
BRANCH  13  20
HETATM   20  C3  UNL     1      15.987  63.528  23.103  1.00  0.00     0.255 C
BRANCH  20  21
HETATM   21  C2  UNL     1      14.800  63.776  23.953  1.00  0.00     0.024 C
HETATM   22  C1  UNL     1      13.889  64.880  23.499  1.00  0.00     0.007 C
ENDBRANCH  20  21
ENDBRANCH  13  20
ENDBRANCH  12  13
ENDBRANCH   7  12
ENDBRANCH   1   3
BRANCH   1  23
HETATM   23  N4  UNL     1      13.208  67.775  17.692  1.00  0.00    -0.299 N
HETATM   24  C9  UNL     1      12.105  68.276  18.084  1.00  0.00     0.219 C
ATOM     25  H4  UNL     1      13.217  67.247  16.820  1.00  0.00     0.171 HD
BRANCH  24  26
HETATM   26  O2  UNL     1      10.967  68.068  17.289  1.00  0.00    -0.332 OA
ATOM     27  H2  UNL     1      11.097  67.862  16.370  1.00  0.00     0.220 HD
ENDBRANCH  24  26
BRANCH  24  28
HETATM   28  N5  UNL     1      11.916  69.033  19.264  1.00  0.00    -0.356 N
ATOM     29  H5  UNL     1      12.700  69.591  19.602  1.00  0.00     0.163 HD
BRANCH  28  30
HETATM   30  C10 UNL     1      10.699  69.069  20.014  1.00  0.00     0.125 C
BRANCH  30  31
HETATM   31  C11 UNL     1      10.561  67.952  21.013  1.00  0.00     0.040 C
BRANCH  31  32
HETATM   32  C12 UNL     1      10.132  68.501  22.368  1.00  0.00     0.139 C
BRANCH  32  33
HETATM   33  N6  UNL     1       9.482  67.495  23.165  1.00  0.00    -0.226 N
ATOM     34  H6  UNL     1       8.606  67.095  22.826  1.00  0.00     0.177 HD
BRANCH  33  35
HETATM   35  C13 UNL     1       9.960  67.075  24.296  1.00  0.00     0.677 A
HETATM   36  N7  UNL     1       9.170  66.691  25.318  1.00  0.00    -0.201 N
HETATM   37  C14 UNL     1       9.977  66.314  26.338  1.00  0.00     0.123 A
ATOM     38  H7  UNL     1       8.150  66.685  25.322  1.00  0.00     0.183 HD
HETATM   39  C15 UNL     1      11.288  66.467  25.942  1.00  0.00     0.123 A
HETATM   40  N8  UNL     1      11.231  66.941  24.669  1.00  0.00    -0.201 N
ATOM     41  H8  UNL     1      12.040  67.162  24.087  1.00  0.00     0.183 HD
ENDBRANCH  33  35
ENDBRANCH  32  33
ENDBRANCH  31  32
ENDBRANCH  30  31
ENDBRANCH  28  30
ENDBRANCH  24  28
ENDBRANCH   1  23
TORSDOF 13
ENDMDL