MODEL 5
REMARK VINA RESULT: -6.632295224      2.322      8.212
REMARK  10 active torsions:
REMARK  status: ('A' for Active; 'I' for Inactive)
REMARK    1  A    between atoms: C2_2  and  C4_4
REMARK    2  A    between atoms: C4_4  and  C5_5
REMARK    3  A    between atoms: C11_14  and  C12_15
REMARK       I    between atoms: C12_15  and  N2_17
REMARK    4  A    between atoms: N2_17  and  C13_19
REMARK    5  A    between atoms: C13_19  and  C14_20
REMARK    6  A    between atoms: C18_24  and  O3_25
REMARK    7  A    between atoms: C18_24  and  C19_27
REMARK       I    between atoms: C19_27  and  N3_29
REMARK    8  A    between atoms: N3_29  and  C20_31
REMARK    9  A    between atoms: C20_31  and  C21_32
REMARK   10  A    between atoms: C21_32  and  N4_33
ROOT
HETATM    1  C5  UNL     1      13.382  67.263  20.865  1.00  0.00     0.177 C
HETATM    2  N1  UNL     1      14.401  68.245  21.037  1.00  0.00    -0.347 N
ATOM      3  H1  UNL     1      14.144  69.021  21.646  1.00  0.00     0.163 HD
HETATM    4  C6  UNL     1      15.690  68.319  20.509  1.00  0.00     0.222 C
HETATM    5  O1  UNL     1      15.957  69.383  19.831  1.00  0.00    -0.273 OA
HETATM    6  C7  UNL     1      16.815  67.366  20.605  1.00  0.00     0.078 C
HETATM    7  C8  UNL     1      17.997  68.101  21.187  1.00  0.00     0.020 C
HETATM    8  C9  UNL     1      16.568  66.022  21.113  1.00  0.00     0.012 C
HETATM    9  C10 UNL     1      17.625  65.060  20.500  1.00  0.00     0.012 C
HETATM   10  C11 UNL     1      16.590  65.728  22.564  1.00  0.00     0.148 C
HETATM   11  C18 UNL     1      15.413  66.115  23.381  1.00  0.00     0.230 C
HETATM   12  N5  UNL     1      14.180  65.696  22.774  1.00  0.00    -0.319 N
ATOM     13  H5  UNL     1      13.984  64.699  22.862  1.00  0.00     0.166 HD
HETATM   14  C25 UNL     1      13.205  66.418  22.086  1.00  0.00     0.243 C
HETATM   15  O5  UNL     1      12.009  66.356  22.545  1.00  0.00    -0.271 OA
ENDROOT
BRANCH  11  16
HETATM   16  O3  UNL     1      15.436  67.490  23.700  1.00  0.00    -0.362 OA
ATOM     17  H3  UNL     1      14.567  67.871  23.656  1.00  0.00     0.213 HD
ENDBRANCH  11  16
BRANCH  11  18
HETATM   18  C19 UNL     1      15.478  65.506  24.746  1.00  0.00     0.274 C
HETATM   19  O4  UNL     1      16.538  65.724  25.352  1.00  0.00    -0.268 OA
HETATM   20  N3  UNL     1      14.477  64.746  25.358  1.00  0.00    -0.355 N
ATOM     21  H3  UNL     1      13.626  64.599  24.815  1.00  0.00     0.162 HD
BRANCH  20  22
HETATM   22  C20 UNL     1      14.509  64.159  26.642  1.00  0.00     0.150 C
BRANCH  22  23
HETATM   23  C21 UNL     1      13.618  62.983  26.867  1.00  0.00     0.255 C
BRANCH  23  24
HETATM   24  N4  UNL     1      12.543  63.168  27.773  1.00  0.00    -0.077 N
HETATM   25  C22 UNL     1      11.576  64.171  27.440  1.00  0.00     0.271 C
HETATM   26  C23 UNL     1      13.036  63.384  29.140  1.00  0.00     0.271 C
HETATM   27  C24 UNL     1      11.785  61.907  27.866  1.00  0.00     0.271 C
ENDBRANCH  23  24
ENDBRANCH  22  23
ENDBRANCH  20  22
ENDBRANCH  11  18
BRANCH  10  28
HETATM   28  C12 UNL     1      16.848  64.276  22.725  1.00  0.00     0.227 C
HETATM   29  O2  UNL     1      16.014  63.390  22.308  1.00  0.00    -0.273 OA
HETATM   30  N2  UNL     1      18.020  63.736  23.345  1.00  0.00    -0.360 N
ATOM     31  H2  UNL     1      18.726  64.378  23.707  1.00  0.00     0.162 HD
BRANCH  30  32
HETATM   32  C13 UNL     1      18.236  62.316  23.477  1.00  0.00     0.131 C
BRANCH  32  33
HETATM   33  C14 UNL     1      18.575  61.891  24.864  1.00  0.00    -0.035 C
HETATM   34  C15 UNL     1      19.644  62.707  25.520  1.00  0.00     0.016 C
HETATM   35  C16 UNL     1      18.914  60.405  24.856  1.00  0.00     0.016 C
HETATM   36  C17 UNL     1      17.311  62.025  25.708  1.00  0.00     0.016 C
ENDBRANCH  32  33
ENDBRANCH  30  32
ENDBRANCH  10  28
BRANCH   1  37
HETATM   37  C4  UNL     1      12.072  67.765  20.361  1.00  0.00     0.038 C
BRANCH  37  38
HETATM   38  C2  UNL     1      11.991  68.974  19.524  1.00  0.00    -0.020 C
HETATM   39  C1  UNL     1      10.629  69.690  19.825  1.00  0.00     0.009 C
HETATM   40  C3  UNL     1      11.773  68.562  18.057  1.00  0.00     0.009 C
ENDBRANCH  37  38
ENDBRANCH   1  37
TORSDOF 10
ENDMDL