MODEL 5
REMARK VINA RESULT: -7.418329103      2.388      5.978
REMARK  9 active torsions:
REMARK  status: ('A' for Active; 'I' for Inactive)
REMARK    1  A    between atoms: C2_2  and  C3_3
REMARK    2  A    between atoms: C3_3  and  C4_4
REMARK    3  A    between atoms: C4_4  and  N1_5
REMARK    4  A    between atoms: C9_13  and  C10_14
REMARK    5  A    between atoms: C10_14  and  C11_15
REMARK    6  A    between atoms: C11_15  and  C12_16
REMARK    7  A    between atoms: C12_16  and  N3_17
REMARK    8  A    between atoms: C15_28  and  C16_29
REMARK    9  A    between atoms: C16_29  and  C17_30
ROOT
HETATM    1  N1  UNL     1      16.063  65.147  21.103  1.00  0.00    -0.256 N
HETATM    2  C5  UNL     1      15.089  66.226  21.204  1.00  0.00     0.244 C
HETATM    3  O1  UNL     1      14.601  66.772  20.218  1.00  0.00    -0.271 OA
HETATM    4  C6  UNL     1      14.960  66.362  22.662  1.00  0.00     0.105 C
HETATM    5  C7  UNL     1      14.858  64.862  22.992  1.00  0.00     0.167 C
HETATM    6  N2  UNL     1      16.093  64.468  22.329  1.00  0.00    -0.254 N
HETATM    7  C8  UNL     1      16.985  63.580  22.973  1.00  0.00     0.261 C
HETATM    8  O2  UNL     1      17.841  62.984  22.265  1.00  0.00    -0.269 OA
HETATM    9  C9  UNL     1      16.994  63.290  24.430  1.00  0.00     0.180 C
HETATM   10  N6  UNL     1      17.892  64.113  25.192  1.00  0.00    -0.330 N
ATOM     11  H6  UNL     1      18.619  63.598  25.687  1.00  0.00     0.165 HD
HETATM   12  C14 UNL     1      17.939  65.486  25.369  1.00  0.00     0.317 C
HETATM   13  O3  UNL     1      19.034  66.077  25.016  1.00  0.00    -0.247 OA
HETATM   14  N7  UNL     1      16.958  66.384  25.890  1.00  0.00    -0.330 N
ATOM     15  H7  UNL     1      17.088  67.372  25.673  1.00  0.00     0.165 HD
HETATM   16  C15 UNL     1      15.827  66.055  26.674  1.00  0.00     0.178 C
HETATM   17  C20 UNL     1      14.576  66.784  26.374  1.00  0.00     0.240 C
HETATM   18  O4  UNL     1      13.551  66.271  26.978  1.00  0.00    -0.271 OA
HETATM   19  N8  UNL     1      14.319  67.888  25.584  1.00  0.00    -0.359 N
ATOM     20  H8  UNL     1      13.843  68.647  26.071  1.00  0.00     0.162 HD
HETATM   21  C21 UNL     1      14.597  68.160  24.218  1.00  0.00     0.127 C
HETATM   22  C22 UNL     1      13.915  67.206  23.221  1.00  0.00     0.014 C
HETATM   23  C23 UNL     1      12.741  66.493  23.850  1.00  0.00     0.012 C
ENDROOT
BRANCH   9  24
HETATM   24  C10 UNL     1      17.373  61.800  24.512  1.00  0.00     0.037 C
BRANCH  24  25
HETATM   25  C11 UNL     1      18.278  61.487  25.654  1.00  0.00     0.022 C
BRANCH  25  26
HETATM   26  C12 UNL     1      19.502  60.807  25.053  1.00  0.00     0.122 C
BRANCH  26  27
HETATM   27  N3  UNL     1      19.878  59.631  25.807  1.00  0.00    -0.367 N
HETATM   28  C13 UNL     1      19.576  58.491  25.288  1.00  0.00     0.196 C
HETATM   29  N4  UNL     1      19.934  57.321  26.009  1.00  0.00    -0.067 NA
HETATM   30  N5  UNL     1      18.910  58.318  24.046  1.00  0.00    -0.067 NA
ATOM     31  H3  UNL     1      20.358  59.701  26.704  1.00  0.00     0.161 HD
ENDBRANCH  26  27
ENDBRANCH  25  26
ENDBRANCH  24  25
ENDBRANCH   9  24
BRANCH   1  32
HETATM   32  C4  UNL     1      16.872  64.790  19.970  1.00  0.00     0.152 C
BRANCH  32  33
HETATM   33  C3  UNL     1      18.083  65.640  19.783  1.00  0.00     0.022 C
BRANCH  33  34
HETATM   34  C2  UNL     1      17.820  66.671  18.688  1.00  0.00    -0.003 C
HETATM   35  C1  UNL     1      17.834  68.073  19.262  1.00  0.00     0.005 C
ENDBRANCH  33  34
ENDBRANCH  32  33
ENDBRANCH   1  32
BRANCH  16  36
HETATM   36  C16 UNL     1      16.089  66.166  28.140  1.00  0.00     0.038 C
BRANCH  36  37
HETATM   37  C17 UNL     1      16.398  64.925  28.885  1.00  0.00    -0.020 C
HETATM   38  C18 UNL     1      15.777  63.700  28.163  1.00  0.00     0.009 C
HETATM   39  C19 UNL     1      17.854  64.574  29.018  1.00  0.00     0.009 C
ENDBRANCH  36  37
ENDBRANCH  16  36
TORSDOF 9
ENDMDL