MODEL 1
REMARK VINA RESULT: -8.525303954      0.000      0.000
REMARK  8 active torsions:
REMARK  status: ('A' for Active; 'I' for Inactive)
REMARK    1  A    between atoms: C2_2  and  C4_4
REMARK    2  A    between atoms: C4_4  and  C5_5
REMARK    3  A    between atoms: N2_13  and  C10_14
REMARK    4  A    between atoms: C10_14  and  C11_15
REMARK    5  A    between atoms: C12_16  and  C13_17
REMARK    6  A    between atoms: C13_17  and  C14_18
REMARK    7  A    between atoms: C14_18  and  N3_19
REMARK    8  A    between atoms: C16_30  and  C17_31
REMARK       I    between atoms: C17_31  and  N7_33
ROOT
HETATM    1  C5  UNL     1      15.895  65.294  25.355  1.00  0.00     0.177 C
HETATM    2  N1  UNL     1      17.251  65.538  25.037  1.00  0.00    -0.346 N
ATOM      3  H1  UNL     1      17.445  66.445  24.614  1.00  0.00     0.163 HD
HETATM    4  C6  UNL     1      18.373  64.705  25.223  1.00  0.00     0.246 C
HETATM    5  O1  UNL     1      19.464  65.321  25.361  1.00  0.00    -0.271 OA
HETATM    6  C7  UNL     1      18.460  63.268  25.277  1.00  0.00     0.123 C
HETATM    7  C8  UNL     1      19.956  62.962  25.523  1.00  0.00     0.049 C
HETATM    8  C9  UNL     1      17.824  62.596  26.451  1.00  0.00     0.049 C
HETATM    9  N2  UNL     1      18.066  62.598  24.047  1.00  0.00    -0.197 N
HETATM   10  C15 UNL     1      18.176  63.185  22.752  1.00  0.00     0.673 C
HETATM   11  N5  UNL     1      18.769  62.369  21.893  1.00  0.00    -0.235 N
ATOM     12  H51 UNL     1      18.849  62.788  20.967  1.00  0.00     0.174 HD
ATOM     13  H52 UNL     1      19.050  61.456  22.254  1.00  0.00     0.174 HD
HETATM   14  N6  UNL     1      17.797  64.418  22.265  1.00  0.00    -0.197 N
ATOM     15  H6  UNL     1      18.565  64.970  21.884  1.00  0.00     0.180 HD
HETATM   16  C16 UNL     1      16.475  65.085  22.197  1.00  0.00     0.295 C
HETATM   17  N8  UNL     1      15.499  64.400  22.962  1.00  0.00    -0.330 N
ATOM     18  H8  UNL     1      14.835  63.847  22.421  1.00  0.00     0.165 HD
HETATM   19  C23 UNL     1      15.307  64.368  24.365  1.00  0.00     0.242 C
HETATM   20  O4  UNL     1      14.545  63.449  24.853  1.00  0.00    -0.271 OA
ENDROOT
BRANCH   9  21
HETATM   21  C10 UNL     1      17.558  61.229  24.230  1.00  0.00     0.169 C
BRANCH  21  22
HETATM   22  C11 UNL     1      18.327  60.203  23.560  1.00  0.00    -0.010 C
HETATM   23  C12 UNL     1      19.250  59.413  24.051  1.00  0.00    -0.027 C
BRANCH  23  24
HETATM   24  C13 UNL     1      19.657  59.475  25.458  1.00  0.00     0.048 C
BRANCH  24  25
HETATM   25  C14 UNL     1      19.986  58.091  26.016  1.00  0.00     0.142 C
BRANCH  25  26
HETATM   26  N3  UNL     1      20.740  58.171  27.211  1.00  0.00    -0.343 N
HETATM   27  N4  UNL     1      20.410  57.512  28.229  1.00  0.00    -0.349 N
ATOM     28  H42 UNL     1      19.584  56.916  28.176  1.00  0.00     0.176 HD
ATOM     29  H41 UNL     1      20.954  57.569  29.090  1.00  0.00     0.176 HD
ATOM     30  H3  UNL     1      21.563  58.772  27.246  1.00  0.00     0.179 HD
ENDBRANCH  25  26
ENDBRANCH  24  25
ENDBRANCH  23  24
ENDBRANCH  21  22
ENDBRANCH   9  21
BRANCH  16  31
HETATM   31  C17 UNL     1      16.023  65.080  20.756  1.00  0.00     0.269 C
HETATM   32  O2  UNL     1      16.574  64.127  20.082  1.00  0.00    -0.269 OA
HETATM   33  N7  UNL     1      15.160  65.897  20.079  1.00  0.00    -0.285 N
HETATM   34  C18 UNL     1      14.910  65.584  18.656  1.00  0.00     0.135 C
HETATM   35  C22 UNL     1      14.537  67.012  20.672  1.00  0.00     0.226 C
HETATM   36  C19 UNL     1      14.508  66.781  17.878  1.00  0.00     0.021 C
HETATM   37  C20 UNL     1      13.526  67.672  18.599  1.00  0.00     0.011 C
HETATM   38  C21 UNL     1      14.256  68.220  19.813  1.00  0.00     0.103 C
HETATM   39  O3  UNL     1      14.189  67.098  21.856  1.00  0.00    -0.273 OA
ENDBRANCH  16  31
BRANCH   1  40
HETATM   40  C4  UNL     1      15.103  66.612  25.378  1.00  0.00     0.038 C
BRANCH  40  41
HETATM   41  C2  UNL     1      14.130  66.655  26.537  1.00  0.00    -0.020 C
HETATM   42  C1  UNL     1      12.744  66.224  26.181  1.00  0.00     0.009 C
HETATM   43  C3  UNL     1      14.667  65.825  27.671  1.00  0.00     0.009 C
ENDBRANCH  40  41
ENDBRANCH   1  40
TORSDOF 8
ENDMDL