MODEL 2
REMARK VINA RESULT: -5.596809990      2.786      6.474
REMARK  6 active torsions:
REMARK  status: ('A' for Active; 'I' for Inactive)
REMARK    1  A    between atoms: C2_2  and  N1_3
REMARK    2  A    between atoms: C5_6  and  C6_7
REMARK    3  A    between atoms: C7_8  and  C8_9
REMARK    4  A    between atoms: C8_9  and  O2_11
REMARK    5  A    between atoms: C10_13  and  C11_14
REMARK    6  A    between atoms: C19_23  and  C20_24
ROOT
HETATM    1  C6  UNL     1      45.911  24.376  -4.309  1.00  0.00    -0.057 C
HETATM    2  C7  UNL     1      46.854  25.269  -4.677  1.00  0.00     0.035 C
HETATM    3  C10 UNL     1      47.381  26.077  -3.564  1.00  0.00     0.094 C
HETATM    4  S1  UNL     1      47.839  24.886  -2.233  1.00  0.00    -0.158 SA
HETATM    5  C15 UNL     1      46.252  23.987  -1.894  1.00  0.00     0.079 C
HETATM    6  C16 UNL     1      45.351  24.600  -2.890  1.00  0.00     0.046 C
ENDROOT
BRANCH   1   7
HETATM    7  C5  UNL     1      45.213  23.388  -5.090  1.00  0.00    -0.007 C
HETATM    8  C4  UNL     1      44.811  22.292  -4.012  1.00  0.00     0.042 C
HETATM    9  C3  UNL     1      43.759  21.366  -4.526  1.00  0.00     0.238 C
HETATM   10  N1  UNL     1      43.374  21.751  -5.845  1.00  0.00    -0.067 N
HETATM   11  C18 UNL     1      42.761  23.071  -5.680  1.00  0.00     0.238 C
HETATM   12  C23 UNL     1      44.486  21.770  -6.728  1.00  0.00     0.243 C
HETATM   13  C17 UNL     1      43.921  24.024  -5.555  1.00  0.00     0.042 C
HETATM   14  C19 UNL     1      45.726  22.486  -6.099  1.00  0.00     0.028 C
BRANCH  10  15
HETATM   15  C2  UNL     1      42.372  20.887  -6.386  1.00  0.00     0.233 C
HETATM   16  C1  UNL     1      40.969  21.262  -6.049  1.00  0.00     0.035 C
ENDBRANCH  10  15
BRANCH  14  17
HETATM   17  C20 UNL     1      46.649  21.347  -5.720  1.00  0.00    -0.016 C
HETATM   18  C21 UNL     1      48.095  21.660  -5.658  1.00  0.00     0.010 C
HETATM   19  C22 UNL     1      46.519  20.320  -6.877  1.00  0.00     0.010 C
ENDBRANCH  14  17
ENDBRANCH   1   7
BRANCH   2  20
HETATM   20  C8  UNL     1      47.295  25.362  -6.035  1.00  0.00     0.290 C
HETATM   21  O1  UNL     1      48.315  24.986  -6.564  1.00  0.00    -0.260 OA
BRANCH  20  22
HETATM   22  O2  UNL     1      46.510  25.981  -7.037  1.00  0.00    -0.323 OA
HETATM   23  C9  UNL     1      46.530  25.616  -8.382  1.00  0.00     0.213 C
ENDBRANCH  20  22
ENDBRANCH   2  20
BRANCH   3  24
HETATM   24  C11 UNL     1      48.451  27.051  -3.619  1.00  0.00    -0.035 C
HETATM   25  C12 UNL     1      48.326  28.259  -4.486  1.00  0.00     0.016 C
HETATM   26  C13 UNL     1      48.461  27.646  -2.165  1.00  0.00     0.016 C
HETATM   27  C14 UNL     1      49.851  26.431  -3.711  1.00  0.00     0.016 C
ENDBRANCH   3  24
TORSDOF 6
ENDMDL