MODEL 1
REMARK VINA RESULT: -8.752612782      0.000      0.000
REMARK  5 active torsions:
REMARK  status: ('A' for Active; 'I' for Inactive)
REMARK    1  A    between atoms: O1_2  and  C2_3
REMARK    2  A    between atoms: C13_15  and  C14_16
REMARK    3  A    between atoms: C14_16  and  O3_17
REMARK    4  A    between atoms: O3_17  and  C15_18
REMARK    5  A    between atoms: C15_18  and  C16_20
ROOT
HETATM    1  C2  UNL     1      47.553  23.193  -3.293  1.00  0.00     0.150 C
HETATM    2  C3  UNL     1      47.780  24.650  -2.957  1.00  0.00     0.034 C
HETATM    3  C4  UNL     1      46.503  25.254  -2.407  1.00  0.00     0.003 C
HETATM    4  C5  UNL     1      45.279  24.596  -3.002  1.00  0.00     0.008 C
HETATM    5  C6  UNL     1      45.562  24.176  -4.430  1.00  0.00     0.022 C
HETATM    6  C7  UNL     1      44.286  23.769  -5.122  1.00  0.00     0.001 C
HETATM    7  C8  UNL     1      44.562  23.794  -6.610  1.00  0.00     0.009 C
HETATM    8  C9  UNL     1      45.341  22.517  -6.820  1.00  0.00     0.038 C
HETATM    9  C10 UNL     1      45.194  21.688  -5.581  1.00  0.00     0.064 C
HETATM   10  C11 UNL     1      44.982  20.257  -5.916  1.00  0.00     0.046 C
HETATM   11  O2  UNL     1      46.223  21.864  -4.672  1.00  0.00    -0.372 OA
HETATM   12  C12 UNL     1      46.655  23.154  -4.534  1.00  0.00     0.155 C
HETATM   13  C13 UNL     1      43.960  22.309  -4.908  1.00  0.00     0.049 C
ENDROOT
BRANCH  13  14
HETATM   14  C14 UNL     1      42.751  21.922  -5.709  1.00  0.00     0.186 C
BRANCH  14  15
HETATM   15  O3  UNL     1      41.676  21.458  -4.952  1.00  0.00    -0.320 OA
BRANCH  15  16
HETATM   16  C15 UNL     1      41.420  20.122  -4.683  1.00  0.00     0.267 C
HETATM   17  O4  UNL     1      42.122  19.583  -3.793  1.00  0.00    -0.264 OA
BRANCH  16  18
HETATM   18  C16 UNL     1      40.370  19.351  -5.401  1.00  0.00     0.049 C
HETATM   19  C17 UNL     1      39.267  19.027  -4.418  1.00  0.00     0.024 C
HETATM   20  C18 UNL     1      38.212  18.188  -5.083  1.00  0.00    -0.013 C
HETATM   21  C19 UNL     1      38.814  16.930  -5.657  1.00  0.00     0.009 C
HETATM   22  C23 UNL     1      37.604  18.974  -6.224  1.00  0.00     0.009 C
HETATM   23  C20 UNL     1      39.893  17.290  -6.674  1.00  0.00    -0.013 C
HETATM   24  C21 UNL     1      39.323  18.146  -7.783  1.00  0.00     0.009 C
HETATM   25  C25 UNL     1      40.945  18.087  -5.960  1.00  0.00     0.024 C
HETATM   26  C22 UNL     1      38.685  19.377  -7.181  1.00  0.00    -0.013 C
HETATM   27  C24 UNL     1      39.730  20.208  -6.495  1.00  0.00     0.024 C
ENDBRANCH  16  18
ENDBRANCH  15  16
ENDBRANCH  14  15
ENDBRANCH  13  14
BRANCH   1  28
HETATM   28  O1  UNL     1      46.949  22.502  -2.263  1.00  0.00    -0.388 OA
HETATM   29  C1  UNL     1      47.822  22.237  -1.226  1.00  0.00     0.202 C
ENDBRANCH   1  28
TORSDOF 5
ENDMDL