MODEL 1
REMARK VINA RESULT: -6.217927726      0.000      0.000
REMARK  5 active torsions:
REMARK  status: ('A' for Active; 'I' for Inactive)
REMARK    1  A    between atoms: O1_2  and  C2_3
REMARK    2  A    between atoms: C4_5  and  N1_6
REMARK    3  A    between atoms: C13_15  and  C15_17
REMARK    4  A    between atoms: C15_17  and  O2_18
REMARK    5  A    between atoms: O2_18  and  C16_19
ROOT
HETATM    1  C2  UNL     1      44.524  22.536  -3.630  1.00  0.00     0.261 C
HETATM    2  C3  UNL     1      45.168  23.490  -4.587  1.00  0.00     0.094 C
HETATM    3  C4  UNL     1      45.585  22.827  -5.903  1.00  0.00     0.200 C
HETATM    4  C8  UNL     1      44.359  22.221  -6.534  1.00  0.00     0.047 C
HETATM    5  C9  UNL     1      44.666  21.130  -7.528  1.00  0.00     0.009 C
HETATM    6  C10 UNL     1      45.158  19.876  -6.912  1.00  0.00     0.001 C
HETATM    7  C11 UNL     1      44.174  19.117  -6.088  1.00  0.00     0.006 C
HETATM    8  C12 UNL     1      42.736  19.508  -6.333  1.00  0.00     0.006 C
HETATM    9  C13 UNL     1      41.770  18.401  -5.952  1.00  0.00    -0.018 C
HETATM   10  C14 UNL     1      42.361  17.028  -6.308  1.00  0.00     0.018 C
HETATM   11  C18 UNL     1      41.436  18.351  -4.506  1.00  0.00     0.012 C
HETATM   12  C19 UNL     1      41.796  19.566  -3.725  1.00  0.00     0.002 C
HETATM   13  C20 UNL     1      41.460  20.772  -4.567  1.00  0.00     0.012 C
HETATM   14  C21 UNL     1      42.352  20.832  -5.819  1.00  0.00    -0.013 C
HETATM   15  C22 UNL     1      41.493  21.560  -6.866  1.00  0.00     0.018 C
HETATM   16  C23 UNL     1      43.445  21.788  -5.450  1.00  0.00     0.139 C
HETATM   17  O4  UNL     1      44.130  21.408  -4.294  1.00  0.00    -0.355 OA
ENDROOT
BRANCH   9  18
HETATM   18  C15 UNL     1      40.521  18.474  -6.843  1.00  0.00     0.188 C
BRANCH  18  19
HETATM   19  O2  UNL     1      39.380  18.255  -6.002  1.00  0.00    -0.321 OA
BRANCH  19  20
HETATM   20  C16 UNL     1      38.122  18.285  -6.536  1.00  0.00     0.254 C
HETATM   21  C17 UNL     1      36.896  17.911  -5.756  1.00  0.00     0.126 C
HETATM   22  O3  UNL     1      37.983  18.642  -7.734  1.00  0.00    -0.266 OA
ENDBRANCH  19  20
ENDBRANCH  18  19
ENDBRANCH   9  18
BRANCH   3  23
HETATM   23  N1  UNL     1      46.249  23.814  -6.680  1.00  0.00    -0.074 N
HETATM   24  C5  UNL     1      47.524  23.343  -7.232  1.00  0.00     0.272 C
HETATM   25  C6  UNL     1      45.459  24.353  -7.783  1.00  0.00     0.272 C
HETATM   26  C7  UNL     1      46.618  25.007  -5.892  1.00  0.00     0.272 C
ENDBRANCH   3  23
BRANCH   1  27
HETATM   27  O1  UNL     1      45.289  22.288  -2.503  1.00  0.00    -0.366 OA
HETATM   28  C1  UNL     1      46.169  23.303  -2.192  1.00  0.00     0.204 C
ENDBRANCH   1  27
TORSDOF 5
ENDMDL