MODEL 3
REMARK VINA RESULT: -7.106122162      2.983      6.574
REMARK  4 active torsions:
REMARK  status: ('A' for Active; 'I' for Inactive)
REMARK    1  A    between atoms: C2_2  and  S1_3
REMARK    2  A    between atoms: S1_3  and  N1_6
REMARK    3  A    between atoms: C10_14  and  N2_15
REMARK       I    between atoms: N2_15  and  C12_17
REMARK    4  A    between atoms: C12_17  and  C13_19
ROOT
HETATM    1  N1  UNL     1      46.288  23.648  -7.618  1.00  0.00    -0.244 N
HETATM    2  C3  UNL     1      46.848  22.460  -7.979  1.00  0.00     0.035 A
HETATM    3  C4  UNL     1      46.358  21.504  -7.123  1.00  0.00    -0.024 A
HETATM    4  C5  UNL     1      45.479  22.123  -6.221  1.00  0.00    -0.003 A
HETATM    5  C6  UNL     1      45.465  23.463  -6.564  1.00  0.00     0.037 A
HETATM    6  C7  UNL     1      44.628  24.415  -5.789  1.00  0.00     0.059 C
HETATM    7  C8  UNL     1      44.628  23.952  -4.343  1.00  0.00     0.008 C
HETATM    8  C9  UNL     1      44.099  22.577  -4.180  1.00  0.00     0.031 C
HETATM    9  C10 UNL     1      44.674  21.561  -5.099  1.00  0.00     0.122 C
HETATM   10  C19 UNL     1      46.746  20.072  -7.210  1.00  0.00     0.041 C
HETATM   11  C20 UNL     1      47.828  19.844  -8.208  1.00  0.00     0.005 C
HETATM   12  C21 UNL     1      48.718  21.040  -8.454  1.00  0.00     0.006 C
HETATM   13  C22 UNL     1      47.811  22.122  -9.057  1.00  0.00     0.059 C
ENDROOT
BRANCH   9  14
HETATM   14  N2  UNL     1      43.658  20.620  -5.575  1.00  0.00    -0.347 N
HETATM   15  C11 UNL     1      44.070  19.292  -5.901  1.00  0.00     0.153 C
HETATM   16  C12 UNL     1      42.295  21.006  -5.704  1.00  0.00     0.224 C
HETATM   17  O3  UNL     1      41.981  22.198  -5.385  1.00  0.00    -0.273 OA
BRANCH  16  18
HETATM   18  C13 UNL     1      41.270  20.054  -6.191  1.00  0.00     0.078 C
HETATM   19  C14 UNL     1      40.952  19.082  -5.047  1.00  0.00     0.014 C
HETATM   20  C15 UNL     1      40.037  19.772  -4.089  1.00  0.00     0.001 C
HETATM   21  C16 UNL     1      38.671  19.854  -4.736  1.00  0.00     0.000 C
HETATM   22  C17 UNL     1      38.748  20.137  -6.199  1.00  0.00     0.001 C
HETATM   23  C18 UNL     1      40.048  20.803  -6.613  1.00  0.00     0.014 C
ENDBRANCH  16  18
ENDBRANCH   9  14
BRANCH   1  24
HETATM   24  S1  UNL     1      46.614  25.127  -8.426  1.00  0.00     0.258 S
HETATM   25  O1  UNL     1      47.939  25.135  -9.111  1.00  0.00    -0.201 OA
HETATM   26  O2  UNL     1      46.593  26.273  -7.449  1.00  0.00    -0.201 OA
BRANCH  24  27
HETATM   27  C2  UNL     1      45.378  25.401  -9.641  1.00  0.00     0.122 C
HETATM   28  C1  UNL     1      45.373  26.498 -10.358  1.00  0.00     0.025 C
ENDBRANCH  24  27
ENDBRANCH   1  24
TORSDOF 4
ENDMDL