MODEL 4
REMARK VINA RESULT: -6.641006039      5.818      8.564
REMARK  5 active torsions:
REMARK  status: ('A' for Active; 'I' for Inactive)
REMARK    1  A    between atoms: C8_8  and  C9_9
REMARK    2  A    between atoms: C9_9  and  O1_10
REMARK    3  A    between atoms: O1_10  and  S1_11
REMARK    4  A    between atoms: S1_11  and  C10_14
REMARK    5  A    between atoms: C10_14  and  C11_15
ROOT
HETATM    1  C1  UNL     1      45.801  22.327  -9.356  1.00  0.00     0.015 C
HETATM    2  C2  UNL     1      45.718  23.362  -8.531  1.00  0.00    -0.078 A
HETATM    3  C3  UNL     1      46.340  24.730  -8.224  1.00  0.00     0.027 A
HETATM    4  C4  UNL     1      47.735  24.617  -7.808  1.00  0.00    -0.009 C
HETATM    5  C5  UNL     1      48.501  23.806  -8.832  1.00  0.00     0.010 C
HETATM    6  C6  UNL     1      47.927  23.964  -6.427  1.00  0.00     0.011 C
HETATM    7  C7  UNL     1      46.840  24.419  -5.518  1.00  0.00     0.013 C
HETATM    8  C8  UNL     1      45.536  23.879  -5.982  1.00  0.00    -0.005 C
HETATM    9  C14 UNL     1      44.428  24.621  -5.206  1.00  0.00     0.013 C
HETATM   10  C15 UNL     1      44.592  24.389  -3.730  1.00  0.00     0.010 C
HETATM   11  C16 UNL     1      45.895  24.962  -3.351  1.00  0.00     0.024 C
HETATM   12  C17 UNL     1      46.180  25.052  -1.915  1.00  0.00    -0.024 C
HETATM   13  C18 UNL     1      47.242  25.745  -1.523  1.00  0.00    -0.023 C
HETATM   14  C19 UNL     1      48.054  26.372  -2.640  1.00  0.00     0.106 C
HETATM   15  C20 UNL     1      48.235  25.223  -3.611  1.00  0.00     0.139 C
HETATM   16  O4  UNL     1      49.363  25.052  -3.989  1.00  0.00    -0.297 OA
HETATM   17  C21 UNL     1      47.108  24.377  -4.056  1.00  0.00     0.028 C
HETATM   18  C22 UNL     1      47.396  22.991  -3.510  1.00  0.00     0.024 C
HETATM   19  C23 UNL     1      45.273  24.251  -7.426  1.00  0.00     0.034 A
ENDROOT
BRANCH   8  20
HETATM   20  C9  UNL     1      45.223  22.457  -5.807  1.00  0.00     0.200 C
BRANCH  20  21
HETATM   21  O1  UNL     1      44.078  21.951  -6.353  1.00  0.00    -0.275 OA
BRANCH  21  22
HETATM   22  S1  UNL     1      43.233  21.161  -5.134  1.00  0.00     0.265 S
HETATM   23  O2  UNL     1      43.844  21.320  -3.798  1.00  0.00    -0.199 OA
HETATM   24  O3  UNL     1      41.830  21.744  -5.144  1.00  0.00    -0.199 OA
BRANCH  22  25
HETATM   25  C10 UNL     1      43.066  19.446  -5.599  1.00  0.00     0.174 C
BRANCH  25  26
HETATM   26  C11 UNL     1      41.617  19.012  -5.537  1.00  0.00    -0.007 C
HETATM   27  C12 UNL     1      41.321  17.832  -6.413  1.00  0.00     0.010 C
HETATM   28  C13 UNL     1      41.290  18.674  -4.106  1.00  0.00     0.010 C
ENDBRANCH  25  26
ENDBRANCH  22  25
ENDBRANCH  21  22
ENDBRANCH  20  21
ENDBRANCH   8  20
TORSDOF 5
ENDMDL