MODEL 4
REMARK VINA RESULT: -6.841114901      4.200      8.125
REMARK  5 active torsions:
REMARK  status: ('A' for Active; 'I' for Inactive)
REMARK    1  A    between atoms: O1_2  and  C2_3
REMARK    2  A    between atoms: C2_3  and  C3_5
REMARK    3  A    between atoms: C9_11  and  C10_12
REMARK    4  A    between atoms: C10_12  and  C11_13
REMARK       I    between atoms: C11_13  and  N1_15
REMARK    5  A    between atoms: N1_15  and  C13_17
ROOT
HETATM    1  C3  UNL     1      41.626  19.106  -5.846  1.00  0.00     0.112 C
HETATM    2  C4  UNL     1      42.367  17.829  -6.120  1.00  0.00     0.028 C
HETATM    3  C5  UNL     1      43.739  18.134  -6.742  1.00  0.00     0.007 C
HETATM    4  C6  UNL     1      44.496  19.160  -5.925  1.00  0.00    -0.006 C
HETATM    5  C7  UNL     1      45.889  19.264  -6.373  1.00  0.00    -0.009 C
HETATM    6  C8  UNL     1      46.197  18.986  -7.796  1.00  0.00     0.011 C
HETATM    7  C9  UNL     1      46.559  20.524  -5.811  1.00  0.00     0.006 C
HETATM    8  C16 UNL     1      45.840  21.784  -6.174  1.00  0.00    -0.043 C
HETATM    9  C17 UNL     1      46.510  22.655  -7.182  1.00  0.00     0.015 C
HETATM   10  C18 UNL     1      45.653  22.629  -4.905  1.00  0.00     0.015 C
HETATM   11  C19 UNL     1      44.432  21.534  -6.680  1.00  0.00     0.014 C
HETATM   12  C20 UNL     1      43.740  20.464  -5.864  1.00  0.00    -0.004 C
HETATM   13  C21 UNL     1      42.396  20.253  -6.434  1.00  0.00     0.016 C
HETATM   14  C22 UNL     1      41.423  21.379  -6.345  1.00  0.00     0.014 C
HETATM   15  C23 UNL     1      40.107  20.698  -6.740  1.00  0.00     0.080 C
HETATM   16  C24 UNL     1      40.353  19.239  -6.606  1.00  0.00     0.145 C
HETATM   17  O4  UNL     1      39.654  18.369  -7.029  1.00  0.00    -0.297 OA
ENDROOT
BRANCH   7  18
HETATM   18  C10 UNL     1      47.985  20.425  -6.210  1.00  0.00     0.108 C
BRANCH  18  19
HETATM   19  C11 UNL     1      48.863  19.479  -5.542  1.00  0.00     0.220 C
HETATM   20  O3  UNL     1      48.783  19.222  -4.327  1.00  0.00    -0.273 OA
HETATM   21  N1  UNL     1      49.859  18.821  -6.332  1.00  0.00    -0.352 N
HETATM   22  C12 UNL     1      49.944  19.129  -7.737  1.00  0.00     0.153 C
BRANCH  21  23
HETATM   23  C13 UNL     1      50.770  17.872  -5.779  1.00  0.00     0.078 C
HETATM   24  C14 UNL     1      50.567  16.472  -6.302  1.00  0.00     0.032 C
HETATM   25  C15 UNL     1      52.220  18.258  -6.052  1.00  0.00     0.032 C
ENDBRANCH  21  23
ENDBRANCH  18  19
ENDBRANCH   7  18
BRANCH   1  26
HETATM   26  C2  UNL     1      41.283  19.269  -4.417  1.00  0.00     0.275 C
HETATM   27  O2  UNL     1      41.953  19.881  -3.563  1.00  0.00    -0.264 OA
BRANCH  26  28
HETATM   28  O1  UNL     1      40.090  18.689  -3.949  1.00  0.00    -0.326 OA
HETATM   29  C1  UNL     1      39.068  19.493  -3.397  1.00  0.00     0.213 C
ENDBRANCH  26  28
ENDBRANCH   1  26
TORSDOF 5
ENDMDL