MODEL 5
REMARK VINA RESULT: -6.626889558      2.738      7.403
REMARK  4 active torsions:
REMARK  status: ('A' for Active; 'I' for Inactive)
REMARK    1  A    between atoms: O1_2  and  C2_3
REMARK    2  A    between atoms: C5_6  and  O2_7
REMARK    3  A    between atoms: C7_9  and  O3_10
REMARK    4  A    between atoms: C9_12  and  O4_13
ROOT
HETATM    1  C2  UNL     1      42.885  18.905  -5.851  1.00  0.00     0.111 A
HETATM    2  C3  UNL     1      44.095  19.366  -6.347  1.00  0.00    -0.008 A
HETATM    3  C4  UNL     1      44.276  20.745  -6.520  1.00  0.00     0.020 A
HETATM    4  C5  UNL     1      43.287  21.619  -6.205  1.00  0.00     0.116 A
HETATM    5  C7  UNL     1      42.067  21.113  -5.709  1.00  0.00     0.139 A
HETATM    6  C9  UNL     1      41.870  19.760  -5.533  1.00  0.00     0.138 A
HETATM    7  C11 UNL     1      45.578  21.238  -6.972  1.00  0.00    -0.015 A
HETATM    8  C12 UNL     1      45.739  22.535  -7.402  1.00  0.00     0.026 A
HETATM    9  C13 UNL     1      46.928  22.892  -8.026  1.00  0.00    -0.005 A
HETATM   10  C14 UNL     1      46.941  24.220  -8.396  1.00  0.00     0.069 C
HETATM   11  C15 UNL     1      47.827  24.889  -9.237  1.00  0.00     0.180 C
HETATM   12  O5  UNL     1      47.574  26.105  -9.428  1.00  0.00    -0.288 OA
HETATM   13  C16 UNL     1      48.935  24.380  -9.876  1.00  0.00     0.004 C
HETATM   14  C17 UNL     1      49.581  25.245 -10.919  1.00  0.00     0.054 C
HETATM   15  C18 UNL     1      49.509  23.146  -9.646  1.00  0.00     0.101 C
HETATM   16  N1  UNL     1      49.158  22.153  -8.804  1.00  0.00    -0.360 N
HETATM   17  C19 UNL     1      50.160  21.165  -8.484  1.00  0.00     0.155 C
HETATM   18  C20 UNL     1      47.944  22.001  -8.230  1.00  0.00     0.044 A
HETATM   19  C21 UNL     1      47.766  20.715  -7.796  1.00  0.00     0.038 A
HETATM   20  C22 UNL     1      46.604  20.312  -7.170  1.00  0.00    -0.044 A
HETATM   21  C23 UNL     1      46.497  18.938  -6.630  1.00  0.00     0.044 C
HETATM   22  C24 UNL     1      45.131  18.411  -6.760  1.00  0.00     0.047 C
ENDROOT
BRANCH   1  23
HETATM   23  O1  UNL     1      42.694  17.544  -5.672  1.00  0.00    -0.352 OA
HETATM   24  C1  UNL     1      41.969  16.716  -6.532  1.00  0.00     0.210 C
ENDBRANCH   1  23
BRANCH   6  25
HETATM   25  O4  UNL     1      40.666  19.284  -5.045  1.00  0.00    -0.351 OA
HETATM   26  C10 UNL     1      40.383  19.039  -3.703  1.00  0.00     0.210 C
ENDBRANCH   6  25
BRANCH   5  27
HETATM   27  O3  UNL     1      41.004  21.945  -5.373  1.00  0.00    -0.351 OA
HETATM   28  C8  UNL     1      39.864  22.175  -6.140  1.00  0.00     0.210 C
ENDBRANCH   5  27
BRANCH   4  29
HETATM   29  O2  UNL     1      43.347  22.977  -6.293  1.00  0.00    -0.352 OA
HETATM   30  C6  UNL     1      43.793  23.767  -5.156  1.00  0.00     0.210 C
ENDBRANCH   4  29
TORSDOF 4
ENDMDL