MODEL 3
REMARK VINA RESULT: -7.353210749      1.270      2.182
REMARK  5 active torsions:
REMARK  status: ('A' for Active; 'I' for Inactive)
REMARK    1  A    between atoms: C3_3  and  C4_4
REMARK    2  A    between atoms: C4_4  and  C5_5
REMARK    3  A    between atoms: C5_5  and  C6_7
REMARK    4  A    between atoms: C14_16  and  C15_17
REMARK    5  A    between atoms: C15_17  and  O4_19
ROOT
HETATM    1  C6  UNL     1      45.874  21.814  -5.645  1.00  0.00     0.133 C
HETATM    2  C7  UNL     1      45.873  21.031  -6.930  1.00  0.00     0.139 C
HETATM    3  O2  UNL     1      46.125  21.397  -8.036  1.00  0.00    -0.297 OA
HETATM    4  C8  UNL     1      45.466  19.676  -6.402  1.00  0.00     0.084 C
HETATM    5  C9  UNL     1      44.347  20.071  -5.461  1.00  0.00     0.006 C
HETATM    6  C10 UNL     1      42.993  19.750  -6.062  1.00  0.00    -0.004 C
HETATM    7  C11 UNL     1      42.817  18.275  -6.257  1.00  0.00     0.006 C
HETATM    8  C12 UNL     1      41.396  18.041  -6.779  1.00  0.00     0.007 C
HETATM    9  C13 UNL     1      40.469  18.398  -5.678  1.00  0.00     0.008 C
HETATM   10  C14 UNL     1      39.023  18.187  -5.989  1.00  0.00     0.090 C
HETATM   11  C17 UNL     1      38.460  19.578  -6.324  1.00  0.00     0.016 C
HETATM   12  C18 UNL     1      39.674  20.511  -6.311  1.00  0.00     0.011 C
HETATM   13  C19 UNL     1      40.590  19.857  -5.321  1.00  0.00    -0.036 C
HETATM   14  C20 UNL     1      39.910  20.021  -3.952  1.00  0.00     0.016 C
HETATM   15  C21 UNL     1      41.956  20.400  -5.234  1.00  0.00    -0.002 C
HETATM   16  C22 UNL     1      42.031  21.885  -5.541  1.00  0.00     0.006 C
HETATM   17  C23 UNL     1      43.418  22.325  -5.971  1.00  0.00     0.011 C
HETATM   18  C24 UNL     1      44.459  21.577  -5.216  1.00  0.00    -0.022 C
HETATM   19  C25 UNL     1      44.350  21.930  -3.750  1.00  0.00     0.016 C
ENDROOT
BRANCH   1  20
HETATM   20  C5  UNL     1      46.420  23.125  -5.681  1.00  0.00     0.142 C
HETATM   21  O1  UNL     1      45.882  24.060  -6.257  1.00  0.00    -0.297 OA
BRANCH  20  22
HETATM   22  C4  UNL     1      47.704  23.434  -5.005  1.00  0.00     0.106 C
BRANCH  22  23
HETATM   23  C3  UNL     1      47.612  23.358  -3.527  1.00  0.00    -0.024 C
HETATM   24  C2  UNL     1      46.961  24.298  -2.814  1.00  0.00    -0.035 C
HETATM   25  C1  UNL     1      46.885  24.196  -1.353  1.00  0.00     0.036 C
ENDBRANCH  22  23
ENDBRANCH  20  22
ENDBRANCH   1  20
BRANCH  10  26
HETATM   26  C15 UNL     1      38.702  17.296  -7.100  1.00  0.00     0.263 C
HETATM   27  O3  UNL     1      38.782  16.057  -7.045  1.00  0.00    -0.265 OA
BRANCH  26  28
HETATM   28  O4  UNL     1      38.273  17.819  -8.332  1.00  0.00    -0.326 OA
HETATM   29  C16 UNL     1      39.170  17.815  -9.448  1.00  0.00     0.213 C
ENDBRANCH  26  28
ENDBRANCH  10  26
TORSDOF 5
ENDMDL