MODEL 1
REMARK VINA RESULT: -6.566564938      0.000      0.000
REMARK  5 active torsions:
REMARK  status: ('A' for Active; 'I' for Inactive)
REMARK    1  A    between atoms: C2_2  and  O1_3
REMARK    2  A    between atoms: O1_3  and  C3_4
REMARK    3  A    between atoms: C3_4  and  C4_6
REMARK    4  A    between atoms: N1_12  and  S1_13
REMARK    5  A    between atoms: S1_13  and  C10_16
ROOT
HETATM    1  C4  UNL     1      44.426  23.025  -5.588  1.00  0.00     0.066 C
HETATM    2  C5  UNL     1      44.462  24.447  -6.110  1.00  0.00     0.021 C
HETATM    3  C6  UNL     1      45.849  25.003  -5.855  1.00  0.00     0.001 C
HETATM    4  C7  UNL     1      46.770  24.226  -6.765  1.00  0.00     0.002 C
HETATM    5  C8  UNL     1      46.819  22.805  -6.303  1.00  0.00     0.022 C
HETATM    6  C9  UNL     1      45.467  22.194  -6.314  1.00  0.00     0.092 C
HETATM    7  N1  UNL     1      45.352  20.878  -5.785  1.00  0.00    -0.204 NA
HETATM    8  C12 UNL     1      44.130  20.292  -6.288  1.00  0.00     0.117 C
HETATM    9  C13 UNL     1      42.877  21.029  -5.789  1.00  0.00    -0.026 C
HETATM   10  C14 UNL     1      42.629  20.615  -4.409  1.00  0.00     0.011 C
HETATM   11  C15 UNL     1      42.041  19.283  -4.156  1.00  0.00     0.001 C
HETATM   12  C16 UNL     1      40.696  18.964  -4.580  1.00  0.00     0.000 C
HETATM   13  C17 UNL     1      39.651  20.003  -4.595  1.00  0.00     0.000 C
HETATM   14  C18 UNL     1      39.801  21.209  -5.385  1.00  0.00     0.000 C
HETATM   15  C19 UNL     1      40.495  21.184  -6.677  1.00  0.00     0.001 C
HETATM   16  C20 UNL     1      41.847  20.677  -6.819  1.00  0.00     0.011 C
HETATM   17  C21 UNL     1      43.060  22.517  -5.866  1.00  0.00     0.032 C
ENDROOT
BRANCH   7  18
HETATM   18  S1  UNL     1      46.606  19.786  -6.227  1.00  0.00     0.211 S
HETATM   19  O3  UNL     1      47.820  19.896  -5.338  1.00  0.00    -0.211 OA
HETATM   20  O4  UNL     1      46.091  18.361  -6.234  1.00  0.00    -0.211 OA
BRANCH  18  21
HETATM   21  C10 UNL     1      47.150  20.108  -7.888  1.00  0.00     0.153 C
HETATM   22  C11 UNL     1      48.677  19.941  -7.872  1.00  0.00     0.022 C
ENDBRANCH  18  21
ENDBRANCH   7  18
BRANCH   1  23
HETATM   23  C3  UNL     1      44.719  23.113  -4.135  1.00  0.00     0.269 C
HETATM   24  O2  UNL     1      44.060  23.789  -3.309  1.00  0.00    -0.264 OA
BRANCH  23  25
HETATM   25  O1  UNL     1      45.803  22.397  -3.647  1.00  0.00    -0.321 OA
BRANCH  25  26
HETATM   26  C2  UNL     1      46.498  22.863  -2.501  1.00  0.00     0.174 C
HETATM   27  C1  UNL     1      47.631  23.788  -2.850  1.00  0.00     0.034 C
ENDBRANCH  25  26
ENDBRANCH  23  25
ENDBRANCH   1  23
TORSDOF 5
ENDMDL