MODEL 4
REMARK VINA RESULT: -6.778472803      3.937      8.583
REMARK  4 active torsions:
REMARK  status: ('A' for Active; 'I' for Inactive)
REMARK    1  A    between atoms: C2_2  and  C3_3
REMARK    2  A    between atoms: C2_2  and  C5_6
REMARK    3  A    between atoms: C12_13  and  C13_14
REMARK    4  A    between atoms: N1_16  and  N2_18
ROOT
HETATM    1  C5  UNL     1      47.599  23.950  -7.180  1.00  0.00     0.030 C
HETATM    2  C6  UNL     1      46.722  25.232  -6.990  1.00  0.00     0.010 C
HETATM    3  C7  UNL     1      45.340  24.662  -7.191  1.00  0.00     0.006 C
HETATM    4  C8  UNL     1      45.442  23.478  -6.212  1.00  0.00    -0.001 C
HETATM    5  C9  UNL     1      44.231  22.694  -6.224  1.00  0.00    -0.005 C
HETATM    6  C10 UNL     1      43.713  22.578  -4.781  1.00  0.00     0.006 C
HETATM    7  C11 UNL     1      43.585  21.077  -4.541  1.00  0.00     0.011 C
HETATM    8  C12 UNL     1      43.190  20.635  -5.946  1.00  0.00     0.037 C
HETATM    9  C21 UNL     1      44.245  21.311  -6.754  1.00  0.00    -0.000 C
HETATM   10  C22 UNL     1      45.607  20.743  -6.703  1.00  0.00     0.006 C
HETATM   11  C23 UNL     1      46.473  21.677  -7.581  1.00  0.00     0.010 C
HETATM   12  C24 UNL     1      46.733  22.874  -6.734  1.00  0.00    -0.032 C
HETATM   13  C25 UNL     1      47.421  22.284  -5.459  1.00  0.00     0.016 C
ENDROOT
BRANCH   8  14
HETATM   14  C13 UNL     1      43.001  19.219  -6.087  1.00  0.00     0.004 C
HETATM   15  C14 UNL     1      44.069  18.235  -6.466  1.00  0.00     0.065 C
HETATM   16  N1  UNL     1      41.855  18.697  -5.888  1.00  0.00    -0.311 N
ATOM     17  H1  UNL     1      41.824  17.685  -6.015  1.00  0.00     0.186 HD
BRANCH  16  18
HETATM   18  N2  UNL     1      40.668  19.256  -5.536  1.00  0.00    -0.320 N
HETATM   19  C15 UNL     1      40.165  20.482  -6.098  1.00  0.00     0.173 C
HETATM   20  C16 UNL     1      38.740  20.389  -6.536  1.00  0.00     0.293 C
HETATM   21  N3  UNL     1      38.260  19.042  -6.370  1.00  0.00     0.087 N
HETATM   22  C17 UNL     1      38.837  18.107  -7.285  1.00  0.00     0.310 C
HETATM   23  C18 UNL     1      38.373  18.627  -4.986  1.00  0.00     0.298 C
HETATM   24  C19 UNL     1      39.822  18.590  -4.541  1.00  0.00     0.126 C
HETATM   25  C20 UNL     1      39.914  19.294  -3.208  1.00  0.00     0.036 C
ENDBRANCH  16  18
ENDBRANCH   8  14
BRANCH   1  26
HETATM   26  C2  UNL     1      48.253  24.076  -8.450  1.00  0.00    -0.017 C
HETATM   27  C1  UNL     1      48.004  24.827  -9.450  1.00  0.00     0.023 C
BRANCH  26  28
HETATM   28  C3  UNL     1      49.417  23.147  -8.634  1.00  0.00     0.151 C
HETATM   29  C4  UNL     1      49.477  22.337  -9.856  1.00  0.00     0.096 C
HETATM   30  O1  UNL     1      50.313  23.052  -7.789  1.00  0.00    -0.293 OA
ENDBRANCH  26  28
ENDBRANCH   1  26
TORSDOF 4
ENDMDL