MODEL 1
REMARK VINA RESULT: -6.762474806      0.000      0.000
REMARK  7 active torsions:
REMARK  status: ('A' for Active; 'I' for Inactive)
REMARK    1  A    between atoms: N1_1  and  C1_4
REMARK    2  A    between atoms: C2_7  and  C3_8
REMARK    3  A    between atoms: C3_8  and  N3_9
REMARK    4  A    between atoms: N3_9  and  C4_12
REMARK    5  A    between atoms: C4_12  and  C5_13
REMARK    6  A    between atoms: C5_13  and  C6_14
REMARK    7  A    between atoms: C6_14  and  N4_15
ROOT
HETATM    1  N3  UNL     1      57.036  44.707  35.226  1.00  0.00    -0.070 N
ATOM      2  H31 UNL     1      57.332  45.281  34.436  1.00  0.00     0.277 HD
ATOM      3  H32 UNL     1      56.171  44.322  34.847  1.00  0.00     0.277 HD
ENDROOT
BRANCH   1   4
HETATM    4  C3  UNL     1      56.760  45.523  36.356  1.00  0.00     0.289 C
BRANCH   4   5
HETATM    5  C2  UNL     1      55.256  45.754  36.448  1.00  0.00     0.043 A
HETATM    6  N2  UNL     1      54.443  45.086  35.675  1.00  0.00    -0.339 N
HETATM    7  C1  UNL     1      53.136  45.312  35.786  1.00  0.00     0.142 A
ATOM      8  H2  UNL     1      54.801  44.406  35.003  1.00  0.00     0.168 HD
HETATM    9  S1  UNL     1      53.037  46.493  37.005  1.00  0.00    -0.064 SA
HETATM   10  C11 UNL     1      54.708  46.649  37.327  1.00  0.00     0.080 A
BRANCH   7  11
HETATM   11  N1  UNL     1      52.142  44.775  35.127  1.00  0.00    -0.380 N
ATOM     12  H12 UNL     1      51.548  45.229  34.433  1.00  0.00     0.158 HD
ATOM     13  H11 UNL     1      51.776  43.824  35.172  1.00  0.00     0.158 HD
ENDBRANCH   7  11
ENDBRANCH   4   5
ENDBRANCH   1   4
BRANCH   1  14
HETATM   14  C4  UNL     1      57.981  43.667  35.467  1.00  0.00     0.234 C
BRANCH  14  15
HETATM   15  C5  UNL     1      57.572  42.298  34.998  1.00  0.00     0.057 C
BRANCH  15  16
HETATM   16  C6  UNL     1      57.509  41.303  36.131  1.00  0.00     0.274 C
BRANCH  16  17
HETATM   17  N4  UNL     1      58.758  40.577  36.208  1.00  0.00     0.088 N
HETATM   18  C7  UNL     1      58.545  39.281  36.822  1.00  0.00     0.272 C
HETATM   19  C8  UNL     1      59.248  38.243  36.022  1.00  0.00     0.032 C
HETATM   20  C9  UNL     1      60.117  39.023  35.064  1.00  0.00     0.032 C
HETATM   21  C10 UNL     1      59.304  40.310  34.893  1.00  0.00     0.272 C
ENDBRANCH  16  17
ENDBRANCH  15  16
ENDBRANCH  14  15
ENDBRANCH   1  14
TORSDOF 7
ENDMDL