MODEL 2
REMARK VINA RESULT: -7.177214737      1.662      2.099
REMARK  7 active torsions:
REMARK  status: ('A' for Active; 'I' for Inactive)
REMARK    1  A    between atoms: C4_5  and  C5_6
REMARK    2  A    between atoms: C5_6  and  N2_7
REMARK    3  A    between atoms: N2_7  and  C6_9
REMARK    4  A    between atoms: C6_9  and  C7_10
REMARK    5  A    between atoms: C7_10  and  C8_11
REMARK    6  A    between atoms: C8_11  and  N3_12
REMARK    7  A    between atoms: N3_12  and  C9_14
ROOT
HETATM    1  C6  UNL     1      57.638  43.633  35.239  1.00  0.00     0.115 C
ENDROOT
BRANCH   1   2
HETATM    2  N2  UNL     1      56.950  44.871  35.159  1.00  0.00    -0.417 N
ATOM      3  H2  UNL     1      56.620  45.236  34.266  1.00  0.00     0.153 HD
BRANCH   2   4
HETATM    4  C5  UNL     1      56.737  45.585  36.371  1.00  0.00     0.152 C
BRANCH   4   5
HETATM    5  C4  UNL     1      55.300  45.422  36.733  1.00  0.00    -0.041 A
HETATM    6  C3  UNL     1      54.393  45.907  35.794  1.00  0.00     0.011 A
HETATM    7  C2  UNL     1      53.029  45.831  35.979  1.00  0.00     0.027 A
HETATM    8  C1  UNL     1      52.596  45.245  37.151  1.00  0.00     0.046 A
HETATM    9  N1  UNL     1      51.198  45.130  37.409  1.00  0.00    -0.102 NA
HETATM   10  C13 UNL     1      53.474  44.757  38.099  1.00  0.00     0.027 A
HETATM   11  C12 UNL     1      54.843  44.850  37.878  1.00  0.00     0.011 A
ENDBRANCH   4   5
ENDBRANCH   2   4
ENDBRANCH   1   2
BRANCH   1  12
HETATM   12  C7  UNL     1      56.741  42.426  35.045  1.00  0.00     0.039 C
BRANCH  12  13
HETATM   13  C8  UNL     1      56.693  41.610  36.342  1.00  0.00     0.125 C
BRANCH  13  14
HETATM   14  N3  UNL     1      58.019  41.261  36.744  1.00  0.00    -0.356 N
ATOM     15  H3  UNL     1      58.505  41.868  37.403  1.00  0.00     0.163 HD
BRANCH  14  16
HETATM   16  C9  UNL     1      58.622  40.221  36.313  1.00  0.00     0.223 A
HETATM   17  N4  UNL     1      58.430  38.958  36.747  1.00  0.00    -0.330 N
HETATM   18  C10 UNL     1      59.256  38.179  36.038  1.00  0.00     0.116 A
ATOM     19  H4  UNL     1      57.781  38.655  37.473  1.00  0.00     0.168 HD
HETATM   20  C11 UNL     1      59.940  38.992  35.180  1.00  0.00     0.162 A
HETATM   21  O1  UNL     1      59.528  40.229  35.375  1.00  0.00    -0.290 OA
ENDBRANCH  14  16
ENDBRANCH  13  14
ENDBRANCH  12  13
ENDBRANCH   1  12
TORSDOF 7
ENDMDL