MODEL 1
REMARK VINA RESULT: -7.618495516      0.000      0.000
REMARK  7 active torsions:
REMARK  status: ('A' for Active; 'I' for Inactive)
REMARK    1  A    between atoms: N1_1  and  C1_4
REMARK    2  A    between atoms: C3_8  and  C4_9
REMARK    3  A    between atoms: C4_9  and  N3_10
REMARK    4  A    between atoms: N3_10  and  C5_12
REMARK    5  A    between atoms: C5_12  and  C6_13
REMARK    6  A    between atoms: C6_13  and  C7_14
REMARK    7  A    between atoms: C7_14  and  C8_15
ROOT
HETATM    1  C4  UNL     1      55.794  44.814  36.014  1.00  0.00     0.118 C
ENDROOT
BRANCH   1   2
HETATM    2  C3  UNL     1      54.515  45.636  36.104  1.00  0.00     0.063 A
HETATM    3  N2  UNL     1      53.456  45.353  35.334  1.00  0.00    -0.360 N
HETATM    4  C2  UNL     1      52.314  46.046  35.379  1.00  0.00     0.136 A
ATOM      5  H2  UNL     1      53.525  44.571  34.683  1.00  0.00     0.165 HD
HETATM    6  C1  UNL     1      52.247  47.106  36.276  1.00  0.00     0.114 A
HETATM    7  N5  UNL     1      53.278  47.431  37.070  1.00  0.00    -0.349 N
HETATM    8  C13 UNL     1      54.399  46.692  36.976  1.00  0.00     0.120 A
ATOM      9  H5  UNL     1      53.215  48.211  37.724  1.00  0.00     0.167 HD
BRANCH   6  10
HETATM   10  N1  UNL     1      51.158  47.802  36.349  1.00  0.00    -0.384 N
ATOM     11  H12 UNL     1      50.450  47.688  35.623  1.00  0.00     0.157 HD
ATOM     12  H11 UNL     1      51.031  48.447  37.129  1.00  0.00     0.157 HD
ENDBRANCH   6  10
ENDBRANCH   1   2
BRANCH   1  13
HETATM   13  N3  UNL     1      55.420  43.531  35.600  1.00  0.00    -0.377 N
ATOM     14  H3  UNL     1      54.474  43.403  35.241  1.00  0.00     0.164 HD
BRANCH  13  15
HETATM   15  C5  UNL     1      56.247  42.425  35.648  1.00  0.00     0.061 C
BRANCH  15  16
HETATM   16  C6  UNL     1      57.330  42.185  34.685  1.00  0.00     0.049 C
BRANCH  16  17
HETATM   17  C7  UNL     1      58.724  42.122  35.213  1.00  0.00     0.043 C
BRANCH  17  18
HETATM   18  C8  UNL     1      59.021  40.637  35.458  1.00  0.00    -0.055 A
HETATM   19  C9  UNL     1      59.849  39.941  34.607  1.00  0.00     0.024 A
HETATM   20  C10 UNL     1      60.114  38.597  34.836  1.00  0.00     0.088 A
HETATM   21  N4  UNL     1      59.554  37.986  35.894  1.00  0.00    -0.375 N
HETATM   22  C11 UNL     1      58.741  38.650  36.736  1.00  0.00     0.088 A
ATOM     23  H4  UNL     1      59.748  36.999  36.061  1.00  0.00     0.164 HD
HETATM   24  C12 UNL     1      58.460  39.991  36.533  1.00  0.00     0.024 A
ENDBRANCH  17  18
ENDBRANCH  16  17
ENDBRANCH  15  16
ENDBRANCH  13  15
ENDBRANCH   1  13
TORSDOF 7
ENDMDL