MODEL 4
REMARK VINA RESULT: -6.761720989      2.050      3.012
REMARK  8 active torsions:
REMARK  status: ('A' for Active; 'I' for Inactive)
REMARK    1  A    between atoms: N1_1  and  C1_5
REMARK    2  A    between atoms: C1_5  and  C2_6
REMARK    3  A    between atoms: C2_6  and  N2_7
REMARK    4  A    between atoms: N2_7  and  C3_10
REMARK    5  A    between atoms: C3_10  and  C4_11
REMARK    6  A    between atoms: C4_11  and  C5_12
REMARK    7  A    between atoms: C5_12  and  N3_13
REMARK    8  A    between atoms: N3_13  and  C6_15
ROOT
HETATM    1  C5  UNL     1      53.804  46.711  34.921  1.00  0.00     0.123 C
ENDROOT
BRANCH   1   2
HETATM    2  C4  UNL     1      53.135  47.546  35.974  1.00  0.00     0.047 C
BRANCH   2   3
HETATM    3  C3  UNL     1      51.775  46.998  36.354  1.00  0.00     0.234 C
BRANCH   3   4
HETATM    4  N2  UNL     1      50.755  48.035  36.305  1.00  0.00    -0.073 N
ATOM      5  H22 UNL     1      51.040  48.857  35.774  1.00  0.00     0.277 HD
ATOM      6  H21 UNL     1      50.614  48.504  37.199  1.00  0.00     0.277 HD
BRANCH   4   7
HETATM    7  C2  UNL     1      49.552  47.407  35.789  1.00  0.00     0.259 C
BRANCH   7   8
HETATM    8  C1  UNL     1      49.891  46.308  34.790  1.00  0.00     0.257 C
BRANCH   8   9
HETATM    9  N1  UNL     1      48.710  45.536  34.489  1.00  0.00    -0.078 N
ATOM     10  H13 UNL     1      48.657  44.686  35.050  1.00  0.00     0.274 HD
ATOM     11  H12 UNL     1      47.861  45.989  34.826  1.00  0.00     0.274 HD
ATOM     12  H11 UNL     1      48.670  45.338  33.490  1.00  0.00     0.274 HD
ENDBRANCH   8   9
ENDBRANCH   7   8
ENDBRANCH   4   7
ENDBRANCH   3   4
ENDBRANCH   2   3
ENDBRANCH   1   2
BRANCH   1  13
HETATM   13  N3  UNL     1      55.220  46.550  35.184  1.00  0.00    -0.370 N
ATOM     14  H3  UNL     1      55.842  47.359  35.167  1.00  0.00     0.161 HD
BRANCH  13  15
HETATM   15  C6  UNL     1      55.700  45.348  35.446  1.00  0.00     0.145 A
HETATM   16  N4  UNL     1      56.793  44.786  34.938  1.00  0.00    -0.336 N
HETATM   17  C7  UNL     1      57.106  43.566  35.329  1.00  0.00     0.051 A
ATOM     18  H4  UNL     1      57.373  45.285  34.264  1.00  0.00     0.168 HD
HETATM   19  C8  UNL     1      58.225  42.824  34.893  1.00  0.00     0.031 A
HETATM   20  C12 UNL     1      56.284  42.960  36.233  1.00  0.00     0.035 A
HETATM   21  C9  UNL     1      58.432  41.570  35.380  1.00  0.00     0.002 A
HETATM   22  C10 UNL     1      57.628  40.926  36.289  1.00  0.00     0.002 A
HETATM   23  C11 UNL     1      56.527  41.661  36.715  1.00  0.00     0.021 A
HETATM   24  S1  UNL     1      55.092  44.149  36.495  1.00  0.00    -0.052 SA
ENDBRANCH  13  15
ENDBRANCH   1  13
TORSDOF 8
ENDMDL