MODEL 3
REMARK VINA RESULT: -7.087657265      1.733      6.968
REMARK  8 active torsions:
REMARK  status: ('A' for Active; 'I' for Inactive)
REMARK    1  A    between atoms: N1_1  and  C1_4
REMARK    2  A    between atoms: N3_7  and  C2_8
REMARK    3  A    between atoms: C2_8  and  C3_9
REMARK    4  A    between atoms: C9_17  and  C10_18
REMARK    5  A    between atoms: C10_18  and  C11_19
REMARK    6  A    between atoms: C11_19  and  C12_20
REMARK    7  A    between atoms: C12_20  and  C13_21
REMARK    8  A    between atoms: C13_21  and  N5_22
ROOT
HETATM    1  C1  UNL     1      56.288  42.401  36.514  1.00  0.00     0.121 A
HETATM    2  N2  UNL     1      55.878  43.576  37.057  1.00  0.00    -0.283 N
ATOM      3  H2  UNL     1      55.189  43.681  37.802  1.00  0.00     0.189 HD
HETATM    4  N3  UNL     1      56.524  44.561  36.456  1.00  0.00    -0.297 N
HETATM    5  C8  UNL     1      57.359  44.034  35.517  1.00  0.00     0.121 A
HETATM    6  C9  UNL     1      57.220  42.667  35.543  1.00  0.00     0.004 A
ENDROOT
BRANCH   4   7
HETATM    7  C2  UNL     1      56.347  45.976  36.771  1.00  0.00     0.188 C
BRANCH   7   8
HETATM    8  C3  UNL     1      54.931  46.352  36.545  1.00  0.00    -0.023 A
HETATM    9  C4  UNL     1      54.448  46.310  35.256  1.00  0.00     0.011 A
HETATM   10  C5  UNL     1      53.135  46.656  35.012  1.00  0.00     0.018 A
HETATM   11  C6  UNL     1      52.335  47.036  36.077  1.00  0.00     0.087 A
HETATM   12  N4  UNL     1      52.856  47.058  37.301  1.00  0.00    -0.375 N
HETATM   13  C7  UNL     1      54.117  46.735  37.601  1.00  0.00     0.096 A
ATOM     14  H4  UNL     1      52.248  47.343  38.069  1.00  0.00     0.164 HD
ENDBRANCH   7   8
ENDBRANCH   4   7
BRANCH   1  15
HETATM   15  N1  UNL     1      55.873  41.246  36.849  1.00  0.00    -0.384 N
ATOM     16  H12 UNL     1      54.938  40.876  36.676  1.00  0.00     0.157 HD
ATOM     17  H11 UNL     1      56.420  40.537  37.337  1.00  0.00     0.157 HD
ENDBRANCH   1  15
BRANCH   6  18
HETATM   18  C10 UNL     1      57.980  41.740  34.658  1.00  0.00     0.044 C
BRANCH  18  19
HETATM   19  C11 UNL     1      59.192  41.213  35.320  1.00  0.00     0.006 C
BRANCH  19  20
HETATM   20  C12 UNL     1      59.633  39.866  34.936  1.00  0.00     0.027 C
BRANCH  20  21
HETATM   21  C13 UNL     1      59.653  38.777  35.927  1.00  0.00     0.229 C
BRANCH  21  22
HETATM   22  N5  UNL     1      58.546  38.818  36.815  1.00  0.00    -0.079 N
ATOM     23  H53 UNL     1      58.853  38.982  37.774  1.00  0.00     0.274 HD
ATOM     24  H52 UNL     1      57.994  39.663  36.670  1.00  0.00     0.274 HD
ATOM     25  H51 UNL     1      57.960  37.985  36.758  1.00  0.00     0.274 HD
ENDBRANCH  21  22
ENDBRANCH  20  21
ENDBRANCH  19  20
ENDBRANCH  18  19
ENDBRANCH   6  18
TORSDOF 8
ENDMDL