MODEL 2
REMARK VINA RESULT: -7.379677788      2.627      3.488
REMARK  7 active torsions:
REMARK  status: ('A' for Active; 'I' for Inactive)
REMARK    1  A    between atoms: C4_7  and  C5_8
REMARK    2  A    between atoms: C5_8  and  C6_9
REMARK    3  A    between atoms: C7_13  and  C8_14
REMARK    4  A    between atoms: C8_14  and  C9_15
REMARK    5  A    between atoms: C9_15  and  C10_16
REMARK    6  A    between atoms: C10_16  and  C11_17
REMARK    7  A    between atoms: C11_17  and  N3_18
ROOT
HETATM    1  C6  UNL     1      55.359  45.485  35.590  1.00  0.00     0.108 A
HETATM    2  N2  UNL     1      54.982  46.104  34.458  1.00  0.00    -0.247 N
ATOM      3  H2  UNL     1      55.610  46.487  33.751  1.00  0.00     0.196 HD
HETATM    4  O1  UNL     1      53.705  46.132  34.416  1.00  0.00    -0.223 OA
HETATM    5  C7  UNL     1      53.216  45.552  35.485  1.00  0.00     0.148 A
HETATM    6  N4  UNL     1      54.245  45.144  36.227  1.00  0.00    -0.327 N
ATOM      7  H4  UNL     1      54.188  44.657  37.121  1.00  0.00     0.169 HD
ENDROOT
BRANCH   1   8
HETATM    8  C5  UNL     1      56.781  45.293  35.932  1.00  0.00     0.118 C
BRANCH   8   9
HETATM    9  C4  UNL     1      57.184  43.906  36.093  1.00  0.00    -0.035 A
HETATM   10  C3  UNL     1      57.164  43.064  35.000  1.00  0.00     0.012 A
HETATM   11  C2  UNL     1      57.535  41.732  35.088  1.00  0.00     0.048 A
HETATM   12  C1  UNL     1      57.932  41.245  36.300  1.00  0.00     0.098 A
HETATM   13  N1  UNL     1      58.283  40.015  36.418  1.00  0.00    -0.385 N
HETATM   14  N5  UNL     1      57.958  42.051  37.375  1.00  0.00    -0.352 N
ATOM     15  H12 UNL     1      58.264  39.404  35.603  1.00  0.00     0.157 HD
ATOM     16  H11 UNL     1      58.580  39.652  37.324  1.00  0.00     0.157 HD
HETATM   17  C12 UNL     1      57.593  43.364  37.293  1.00  0.00     0.097 A
ATOM     18  H5  UNL     1      58.257  41.672  38.273  1.00  0.00     0.166 HD
ENDBRANCH   8   9
ENDBRANCH   1   8
BRANCH   5  19
HETATM   19  C8  UNL     1      51.751  45.426  35.728  1.00  0.00     0.087 C
BRANCH  19  20
HETATM   20  C9  UNL     1      51.133  46.742  35.313  1.00  0.00     0.010 C
BRANCH  20  21
HETATM   21  C10 UNL     1      49.646  46.785  35.467  1.00  0.00     0.027 C
BRANCH  21  22
HETATM   22  C11 UNL     1      48.986  46.452  34.147  1.00  0.00     0.229 C
BRANCH  22  23
HETATM   23  N3  UNL     1      48.239  45.198  34.314  1.00  0.00    -0.079 N
ATOM     24  H33 UNL     1      48.841  44.410  34.556  1.00  0.00     0.274 HD
ATOM     25  H32 UNL     1      47.662  45.191  35.156  1.00  0.00     0.274 HD
ATOM     26  H31 UNL     1      47.699  45.036  33.464  1.00  0.00     0.274 HD
ENDBRANCH  22  23
ENDBRANCH  21  22
ENDBRANCH  20  21
ENDBRANCH  19  20
ENDBRANCH   5  19
TORSDOF 7
ENDMDL