MODEL 3
REMARK VINA RESULT: -7.411090314      1.388      2.088
REMARK  6 active torsions:
REMARK  status: ('A' for Active; 'I' for Inactive)
REMARK    1  A    between atoms: N3_8  and  C5_10
REMARK    2  A    between atoms: C5_10  and  C6_11
REMARK    3  A    between atoms: C6_11  and  C7_12
REMARK    4  A    between atoms: C7_12  and  N4_13
REMARK    5  A    between atoms: N4_13  and  C8_16
REMARK    6  A    between atoms: C8_16  and  C9_17
ROOT
HETATM    1  C5  UNL     1      56.340  45.476  38.769  1.00  0.00     0.123 C
ENDROOT
BRANCH   1   2
HETATM    2  N3  UNL     1      56.081  45.629  37.381  1.00  0.00    -0.376 N
HETATM    3  C4  UNL     1      55.012  46.076  36.817  1.00  0.00     0.102 A
HETATM    4  N2  UNL     1      53.928  46.483  37.499  1.00  0.00    -0.352 N
HETATM    5  C13 UNL     1      55.003  46.130  35.414  1.00  0.00     0.074 A
HETATM    6  C3  UNL     1      52.875  46.929  36.801  1.00  0.00     0.091 A
ATOM      7  H2  UNL     1      53.908  46.454  38.518  1.00  0.00     0.166 HD
HETATM    8  C2  UNL     1      52.826  46.999  35.432  1.00  0.00     0.043 A
HETATM    9  C1  UNL     1      53.922  46.587  34.701  1.00  0.00     0.051 A
HETATM   10  N1  UNL     1      53.924  46.638  33.280  1.00  0.00    -0.102 NA
ATOM     11  H3  UNL     1      56.835  45.351  36.752  1.00  0.00     0.161 HD
ENDBRANCH   1   2
BRANCH   1  12
HETATM   12  C6  UNL     1      57.542  44.543  38.909  1.00  0.00     0.047 C
BRANCH  12  13
HETATM   13  C7  UNL     1      58.004  43.990  37.601  1.00  0.00     0.234 C
BRANCH  13  14
HETATM   14  N4  UNL     1      58.045  42.545  37.722  1.00  0.00    -0.069 N
ATOM     15  H42 UNL     1      59.001  42.213  37.851  1.00  0.00     0.277 HD
ATOM     16  H41 UNL     1      57.644  42.239  38.609  1.00  0.00     0.277 HD
BRANCH  14  17
HETATM   17  C8  UNL     1      57.414  41.885  36.615  1.00  0.00     0.296 C
BRANCH  17  18
HETATM   18  C9  UNL     1      58.308  40.747  36.201  1.00  0.00     0.078 A
HETATM   19  C10 UNL     1      59.131  40.761  35.110  1.00  0.00     0.036 A
HETATM   20  C11 UNL     1      59.777  39.551  35.070  1.00  0.00     0.027 A
HETATM   21  C12 UNL     1      59.315  38.837  36.154  1.00  0.00     0.142 A
HETATM   22  O1  UNL     1      58.451  39.596  36.782  1.00  0.00    -0.325 OA
ENDBRANCH  17  18
ENDBRANCH  14  17
ENDBRANCH  13  14
ENDBRANCH  12  13
ENDBRANCH   1  12
TORSDOF 6
ENDMDL