MODEL 5
REMARK VINA RESULT: -7.159679995      1.635      8.290
REMARK  6 active torsions:
REMARK  status: ('A' for Active; 'I' for Inactive)
REMARK    1  A    between atoms: N2_7  and  C4_8
REMARK    2  A    between atoms: C4_8  and  C5_9
REMARK    3  A    between atoms: C5_9  and  C6_10
REMARK    4  A    between atoms: C6_10  and  C7_11
REMARK    5  A    between atoms: C7_11  and  N3_12
REMARK    6  A    between atoms: N3_12  and  C8_15
ROOT
HETATM    1  C6  UNL     1      56.613  43.458  35.589  1.00  0.00     0.029 C
ENDROOT
BRANCH   1   2
HETATM    2  C5  UNL     1      55.603  43.002  36.565  1.00  0.00     0.022 C
BRANCH   2   3
HETATM    3  C4  UNL     1      55.212  43.926  37.655  1.00  0.00     0.129 C
BRANCH   3   4
HETATM    4  N2  UNL     1      54.342  45.011  37.256  1.00  0.00    -0.353 N
HETATM    5  C3  UNL     1      53.089  44.765  36.793  1.00  0.00     0.095 A
HETATM    6  C2  UNL     1      52.254  45.792  36.423  1.00  0.00     0.065 A
HETATM    7  C1  UNL     1      52.666  47.110  36.511  1.00  0.00     0.100 A
HETATM    8  N1  UNL     1      51.868  48.058  36.158  1.00  0.00    -0.385 N
HETATM    9  N5  UNL     1      53.908  47.328  36.970  1.00  0.00    -0.339 N
ATOM     10  H12 UNL     1      50.924  47.893  35.809  1.00  0.00     0.157 HD
ATOM     11  H11 UNL     1      52.172  49.030  36.223  1.00  0.00     0.157 HD
HETATM   12  C13 UNL     1      54.711  46.287  37.329  1.00  0.00     0.184 A
ATOM     13  H5  UNL     1      54.255  48.283  37.050  1.00  0.00     0.168 HD
ENDBRANCH   3   4
ENDBRANCH   2   3
ENDBRANCH   1   2
BRANCH   1  14
HETATM   14  C7  UNL     1      57.998  42.935  35.760  1.00  0.00     0.235 C
BRANCH  14  15
HETATM   15  N3  UNL     1      58.094  41.938  36.809  1.00  0.00    -0.046 N
ATOM     16  H32 UNL     1      58.552  42.326  37.634  1.00  0.00     0.279 HD
ATOM     17  H31 UNL     1      57.174  41.740  37.203  1.00  0.00     0.279 HD
BRANCH  15  18
HETATM   18  C8  UNL     1      58.733  40.736  36.398  1.00  0.00     0.382 C
HETATM   19  C9  UNL     1      58.931  40.623  34.914  1.00  0.00     0.062 C
HETATM   20  C10 UNL     1      60.118  39.691  34.661  1.00  0.00     0.005 C
HETATM   21  C11 UNL     1      60.104  38.634  35.720  1.00  0.00     0.028 C
HETATM   22  C12 UNL     1      58.739  38.382  36.276  1.00  0.00     0.235 C
HETATM   23  N4  UNL     1      58.127  39.526  36.872  1.00  0.00    -0.046 N
ATOM     24  H42 UNL     1      58.140  39.473  37.891  1.00  0.00     0.279 HD
ATOM     25  H41 UNL     1      57.117  39.530  36.730  1.00  0.00     0.279 HD
ENDBRANCH  15  18
ENDBRANCH  14  15
ENDBRANCH   1  14
TORSDOF 6
ENDMDL