MODEL 2
REMARK VINA RESULT: -6.940366392      1.789      2.857
REMARK  8 active torsions:
REMARK  status: ('A' for Active; 'I' for Inactive)
REMARK    1  A    between atoms: N1_1  and  C1_5
REMARK    2  A    between atoms: C1_5  and  C2_6
REMARK    3  A    between atoms: C2_6  and  C3_7
REMARK    4  A    between atoms: C3_7  and  C4_8
REMARK    5  A    between atoms: C4_8  and  N2_9
REMARK    6  A    between atoms: N2_9  and  C5_12
REMARK    7  A    between atoms: N4_18  and  C8_19
REMARK    8  A    between atoms: C8_19  and  C9_20
ROOT
HETATM    1  C5  UNL     1      55.740  43.626  36.647  1.00  0.00     0.487 C
HETATM    2  N3  UNL     1      55.676  44.223  37.957  1.00  0.00    -0.027 N
ATOM      3  H31 UNL     1      55.082  43.696  38.597  1.00  0.00     0.281 HD
ATOM      4  H32 UNL     1      55.150  45.098  37.963  1.00  0.00     0.281 HD
HETATM    5  C6  UNL     1      57.012  44.384  38.456  1.00  0.00     0.257 C
HETATM    6  C7  UNL     1      57.871  43.527  37.539  1.00  0.00     0.153 C
HETATM    7  N4  UNL     1      56.963  42.878  36.665  1.00  0.00    -0.339 N
ENDROOT
BRANCH   1   8
HETATM    8  N2  UNL     1      55.857  44.582  35.569  1.00  0.00    -0.029 N
ATOM      9  H22 UNL     1      55.367  44.251  34.738  1.00  0.00     0.281 HD
ATOM     10  H21 UNL     1      56.811  44.601  35.207  1.00  0.00     0.281 HD
BRANCH   8  11
HETATM   11  C4  UNL     1      55.417  45.919  35.926  1.00  0.00     0.237 C
BRANCH  11  12
HETATM   12  C3  UNL     1      54.359  46.293  34.917  1.00  0.00     0.029 C
BRANCH  12  13
HETATM   13  C2  UNL     1      53.192  46.942  35.599  1.00  0.00     0.029 C
BRANCH  13  14
HETATM   14  C1  UNL     1      51.923  46.201  35.323  1.00  0.00     0.229 C
BRANCH  14  15
HETATM   15  N1  UNL     1      52.160  44.761  35.191  1.00  0.00    -0.079 N
ATOM     16  H13 UNL     1      51.757  44.394  34.329  1.00  0.00     0.274 HD
ATOM     17  H12 UNL     1      53.142  44.560  35.004  1.00  0.00     0.274 HD
ATOM     18  H11 UNL     1      51.824  44.250  36.007  1.00  0.00     0.274 HD
ENDBRANCH  14  15
ENDBRANCH  13  14
ENDBRANCH  12  13
ENDBRANCH  11  12
ENDBRANCH   8  11
ENDBRANCH   1   8
BRANCH   7  19
HETATM   19  C8  UNL     1      56.867  41.476  36.701  1.00  0.00     0.100 C
BRANCH  19  20
HETATM   20  C9  UNL     1      57.981  40.697  36.163  1.00  0.00    -0.021 A
HETATM   21  C10 UNL     1      58.715  41.119  35.052  1.00  0.00     0.013 A
HETATM   22  C11 UNL     1      59.772  40.387  34.534  1.00  0.00     0.001 A
HETATM   23  C12 UNL     1      60.118  39.195  35.136  1.00  0.00     0.000 A
HETATM   24  C13 UNL     1      59.394  38.780  36.233  1.00  0.00     0.001 A
HETATM   25  C14 UNL     1      58.341  39.504  36.753  1.00  0.00     0.013 A
ENDBRANCH  19  20
ENDBRANCH   7  19
TORSDOF 8
ENDMDL