MODEL 5
REMARK VINA RESULT: -6.613071306      5.000      7.317
REMARK  10 active torsions:
REMARK  status: ('A' for Active; 'I' for Inactive)
REMARK    1  A    between atoms: N1_1  and  C1_4
REMARK    2  A    between atoms: C3_8  and  O1_9
REMARK    3  A    between atoms: N3_11  and  C4_12
REMARK    4  A    between atoms: C4_12  and  N4_13
REMARK    5  A    between atoms: N4_13  and  S1_15
REMARK    6  A    between atoms: S1_15  and  N5_18
REMARK       I    between atoms: N5_18  and  C5_20
REMARK    7  A    between atoms: C5_20  and  C6_22
REMARK    8  A    between atoms: C6_22  and  N6_23
REMARK    9  A    between atoms: C6_22  and  C7_27
REMARK   10  A    between atoms: C7_27  and  O5_28
ROOT
HETATM    1  C1  UNL     1     -13.010  26.991   6.358  1.00  0.00     0.169 C
HETATM    2  N2  UNL     1     -12.402  28.122   6.798  1.00  0.00    -0.334 N
ATOM      3  H2  UNL     1     -12.188  28.157   7.794  1.00  0.00     0.168 HD
HETATM    4  C2  UNL     1     -12.047  29.203   6.079  1.00  0.00     0.102 A
HETATM    5  C3  UNL     1     -11.140  30.179   6.482  1.00  0.00     0.172 A
HETATM    6  N3  UNL     1     -11.098  31.062   5.490  1.00  0.00    -0.318 N
HETATM    7  C8  UNL     1     -11.933  30.687   4.485  1.00  0.00     0.114 A
HETATM    8  C9  UNL     1     -12.547  29.511   4.835  1.00  0.00     0.079 A
HETATM    9  C10 UNL     1     -13.481  28.851   4.028  1.00  0.00     0.262 C
HETATM   10  O6  UNL     1     -13.787  29.414   2.953  1.00  0.00    -0.267 OA
HETATM   11  N7  UNL     1     -14.106  27.686   4.251  1.00  0.00    -0.287 N
ATOM     12  H7  UNL     1     -14.859  27.429   3.613  1.00  0.00     0.172 HD
HETATM   13  C11 UNL     1     -13.820  26.821   5.256  1.00  0.00     0.292 C
HETATM   14  O7  UNL     1     -14.394  25.710   5.127  1.00  0.00    -0.264 OA
ENDROOT
BRANCH   6  15
HETATM   15  C4  UNL     1     -10.299  32.290   5.463  1.00  0.00     0.266 C
BRANCH  15  16
HETATM   16  N4  UNL     1     -11.139  33.351   5.832  1.00  0.00    -0.285 N
ATOM     17  H4  UNL     1     -11.540  33.361   6.770  1.00  0.00     0.175 HD
BRANCH  16  18
HETATM   18  S1  UNL     1     -11.502  34.597   4.785  1.00  0.00     0.322 S
HETATM   19  O2  UNL     1     -10.354  35.620   4.732  1.00  0.00    -0.182 OA
HETATM   20  O3  UNL     1     -12.639  35.449   5.438  1.00  0.00    -0.182 OA
BRANCH  18  21
HETATM   21  N5  UNL     1     -12.036  34.159   3.232  1.00  0.00    -0.235 N
HETATM   22  C5  UNL     1     -13.235  33.538   2.915  1.00  0.00     0.265 C
HETATM   23  O4  UNL     1     -14.065  33.261   3.822  1.00  0.00    -0.270 OA
ATOM     24  H5  UNL     1     -11.412  34.375   2.454  1.00  0.00     0.183 HD
BRANCH  22  25
HETATM   25  C6  UNL     1     -13.653  33.152   1.546  1.00  0.00     0.298 C
BRANCH  25  26
HETATM   26  N6  UNL     1     -14.013  31.784   1.387  1.00  0.00    -0.064 N
ATOM     27  H63 UNL     1     -14.837  31.570   1.948  1.00  0.00     0.275 HD
ATOM     28  H62 UNL     1     -14.389  31.627   0.451  1.00  0.00     0.275 HD
ATOM     29  H61 UNL     1     -13.270  31.114   1.585  1.00  0.00     0.275 HD
ENDBRANCH  25  26
BRANCH  25  30
HETATM   30  C7  UNL     1     -14.597  34.052   0.850  1.00  0.00     0.206 C
BRANCH  30  31
HETATM   31  O5  UNL     1     -15.855  33.892   1.508  1.00  0.00    -0.398 OA
ATOM     32  H5  UNL     1     -16.465  33.598   0.841  1.00  0.00     0.209 HD
ENDBRANCH  30  31
ENDBRANCH  25  30
ENDBRANCH  22  25
ENDBRANCH  18  21
ENDBRANCH  16  18
ENDBRANCH  15  16
ENDBRANCH   6  15
BRANCH   5  33
HETATM   33  O1  UNL     1     -10.443  30.175   7.694  1.00  0.00    -0.344 OA
ATOM     34  H1  UNL     1      -9.587  29.788   7.829  1.00  0.00     0.219 HD
ENDBRANCH   5  33
BRANCH   1  35
HETATM   35  N1  UNL     1     -12.777  25.957   7.087  1.00  0.00    -0.381 N
ATOM     36  H12 UNL     1     -12.063  26.044   7.810  1.00  0.00     0.157 HD
ATOM     37  H11 UNL     1     -13.353  25.148   6.852  1.00  0.00     0.157 HD
ENDBRANCH   1  35
TORSDOF 10
ENDMDL