MODEL 5
REMARK VINA RESULT: -6.885794570      3.534      6.913
REMARK  11 active torsions:
REMARK  status: ('A' for Active; 'I' for Inactive)
REMARK    1  A    between atoms: N1_1  and  C1_4
REMARK    2  A    between atoms: C3_8  and  C4_9
REMARK    3  A    between atoms: C5_12  and  C6_13
REMARK    4  A    between atoms: C6_13  and  C7_14
REMARK    5  A    between atoms: C7_14  and  C8_15
REMARK    6  A    between atoms: C8_15  and  C9_16
REMARK    7  A    between atoms: C10_17  and  C11_18
REMARK    8  A    between atoms: C11_18  and  O1_19
REMARK    9  A    between atoms: C11_18  and  N4_21
REMARK   10  A    between atoms: N4_21  and  N5_23
REMARK   11  A    between atoms: N7_32  and  N8_33
ROOT
HETATM    1  C7  UNL     1     -10.055  29.061   6.686  1.00  0.00     0.013 C
ENDROOT
BRANCH   1   2
HETATM    2  C6  UNL     1      -9.450  27.784   6.148  1.00  0.00     0.079 C
BRANCH   2   3
HETATM    3  C5  UNL     1      -9.633  26.730   7.195  1.00  0.00     0.104 A
HETATM    4  N3  UNL     1      -9.237  26.780   8.563  1.00  0.00    -0.323 N
HETATM    5  C4  UNL     1      -9.562  25.681   9.171  1.00  0.00     0.189 A
ATOM      6  H3  UNL     1      -8.765  27.569   9.003  1.00  0.00     0.169 HD
HETATM    7  O4  UNL     1     -10.184  24.870   8.223  1.00  0.00    -0.217 OA
HETATM    8  N9  UNL     1     -10.189  25.571   7.058  1.00  0.00    -0.247 N
ATOM      9  H9  UNL     1     -10.583  25.225   6.183  1.00  0.00     0.196 HD
BRANCH   5  10
HETATM   10  C3  UNL     1      -9.352  25.304  10.550  1.00  0.00     0.102 A
HETATM   11  C2  UNL     1      -9.561  24.023  11.010  1.00  0.00     0.127 A
HETATM   12  N2  UNL     1      -9.341  23.746  12.329  1.00  0.00    -0.201 N
HETATM   13  C1  UNL     1      -8.927  24.704  13.183  1.00  0.00     0.678 A
ATOM     14  H2  UNL     1      -9.492  22.798  12.674  1.00  0.00     0.183 HD
HETATM   15  N10 UNL     1      -8.717  25.963  12.757  1.00  0.00    -0.156 N
HETATM   16  C14 UNL     1      -8.931  26.246  11.454  1.00  0.00     0.275 A
ATOM     17  H10 UNL     1      -8.403  26.687  13.404  1.00  0.00     0.187 HD
HETATM   18  O5  UNL     1      -8.724  27.436  11.094  1.00  0.00    -0.267 OA
BRANCH  13  19
HETATM   19  N1  UNL     1      -8.730  24.414  14.415  1.00  0.00    -0.234 N
ATOM     20  H12 UNL     1      -9.185  24.967  15.141  1.00  0.00     0.174 HD
ATOM     21  H11 UNL     1      -8.120  23.634  14.660  1.00  0.00     0.174 HD
ENDBRANCH  13  19
ENDBRANCH   5  10
ENDBRANCH   2   3
ENDBRANCH   1   2
BRANCH   1  22
HETATM   22  C8  UNL     1     -11.560  28.994   6.777  1.00  0.00     0.061 C
BRANCH  22  23
HETATM   23  C9  UNL     1     -12.309  29.139   5.564  1.00  0.00     0.058 A
HETATM   24  C10 UNL     1     -12.965  28.156   4.910  1.00  0.00     0.109 A
HETATM   25  C12 UNL     1     -13.644  28.447   3.692  1.00  0.00     0.266 A
HETATM   26  O2  UNL     1     -14.256  27.552   3.072  1.00  0.00    -0.267 OA
HETATM   27  N6  UNL     1     -13.646  29.671   3.185  1.00  0.00    -0.273 N
HETATM   28  C13 UNL     1     -12.992  30.636   3.845  1.00  0.00     0.348 A
ATOM     29  H6  UNL     1     -14.133  29.874   2.311  1.00  0.00     0.173 HD
HETATM   30  O3  UNL     1     -13.009  31.792   3.341  1.00  0.00    -0.245 OA
HETATM   31  N7  UNL     1     -12.342  30.390   4.996  1.00  0.00    -0.215 N
BRANCH  24  32
HETATM   32  C11 UNL     1     -13.069  26.818   5.384  1.00  0.00     0.172 C
BRANCH  32  33
HETATM   33  O1  UNL     1     -12.284  25.976   4.763  1.00  0.00    -0.344 OA
ATOM     34  H1  UNL     1     -11.393  26.288   4.661  1.00  0.00     0.219 HD
ENDBRANCH  32  33
BRANCH  32  35
HETATM   35  N4  UNL     1     -13.835  26.218   6.365  1.00  0.00    -0.286 N
ATOM     36  H4  UNL     1     -14.852  26.279   6.318  1.00  0.00     0.188 HD
BRANCH  35  37
HETATM   37  N5  UNL     1     -13.217  25.505   7.458  1.00  0.00    -0.343 N
ATOM     38  H52 UNL     1     -13.334  24.493   7.507  1.00  0.00     0.176 HD
ATOM     39  H51 UNL     1     -12.674  25.998   8.166  1.00  0.00     0.176 HD
ENDBRANCH  35  37
ENDBRANCH  32  35
ENDBRANCH  24  32
BRANCH  31  40
HETATM   40  N8  UNL     1     -11.698  31.443   5.603  1.00  0.00    -0.334 N
ATOM     41  H82 UNL     1     -12.126  32.366   5.529  1.00  0.00     0.177 HD
ATOM     42  H81 UNL     1     -10.824  31.289   6.105  1.00  0.00     0.177 HD
ENDBRANCH  31  40
ENDBRANCH  22  23
ENDBRANCH   1  22
TORSDOF 11
ENDMDL