MODEL 4
REMARK VINA RESULT: -6.477769189      2.245      5.201
REMARK  10 active torsions:
REMARK  status: ('A' for Active; 'I' for Inactive)
REMARK    1  A    between atoms: C2_3  and  C3_4
REMARK    2  A    between atoms: C3_4  and  O1_5
REMARK    3  A    between atoms: C3_4  and  C13_32
REMARK    4  A    between atoms: O1_5  and  C4_6
REMARK    5  A    between atoms: C4_6  and  N2_7
REMARK    6  A    between atoms: C8_16  and  N4_17
REMARK    7  A    between atoms: C11_25  and  N6_26
REMARK    8  A    between atoms: C13_32  and  O6_33
REMARK    9  A    between atoms: C13_32  and  C14_35
REMARK   10  A    between atoms: C14_35  and  O7_36
ROOT
HETATM    1  N1  UNL     1      -9.386  27.114   0.388  1.00  0.00    -0.197 NA
HETATM    2  C1  UNL     1     -10.302  27.473   0.992  1.00  0.00     0.061 C
HETATM    3  C2  UNL     1     -11.438  27.946   1.731  1.00  0.00     0.159 C
ENDROOT
BRANCH   3   4
HETATM    4  C3  UNL     1     -11.333  27.746   3.240  1.00  0.00     0.173 C
BRANCH   4   5
HETATM    5  O1  UNL     1     -11.018  28.779   3.956  1.00  0.00    -0.337 OA
BRANCH   5   6
HETATM    6  C4  UNL     1     -11.714  29.525   4.818  1.00  0.00     0.240 C
BRANCH   6   7
HETATM    7  N2  UNL     1     -11.427  29.476   6.196  1.00  0.00    -0.238 N
HETATM    8  C5  UNL     1     -10.957  30.605   6.823  1.00  0.00     0.336 C
HETATM    9  O2  UNL     1     -11.292  31.606   6.119  1.00  0.00    -0.246 OA
HETATM   10  N3  UNL     1     -10.269  30.918   7.930  1.00  0.00    -0.272 N
HETATM   11  C6  UNL     1      -9.449  30.228   8.733  1.00  0.00     0.302 C
ATOM     12  H3  UNL     1     -10.398  31.887   8.223  1.00  0.00     0.174 HD
HETATM   13  O3  UNL     1      -8.683  30.955   9.423  1.00  0.00    -0.264 OA
HETATM   14  C7  UNL     1      -9.242  28.871   8.989  1.00  0.00     0.266 C
HETATM   15  O4  UNL     1      -8.283  28.608   9.750  1.00  0.00    -0.280 OA
HETATM   16  C8  UNL     1      -9.885  27.736   8.570  1.00  0.00     0.102 C
HETATM   17  C9  UNL     1     -10.988  27.531   7.765  1.00  0.00     0.108 A
HETATM   18  C10 UNL     1     -11.499  26.301   8.095  1.00  0.00     0.276 A
HETATM   19  C12 UNL     1     -11.639  28.264   6.770  1.00  0.00     0.151 A
HETATM   20  O5  UNL     1     -10.907  25.651   8.988  1.00  0.00    -0.267 OA
HETATM   21  N5  UNL     1     -12.593  25.876   7.442  1.00  0.00    -0.155 N
HETATM   22  C11 UNL     1     -13.202  26.593   6.493  1.00  0.00     0.680 A
ATOM     23  H5  UNL     1     -12.977  24.963   7.683  1.00  0.00     0.187 HD
HETATM   24  N7  UNL     1     -12.726  27.800   6.148  1.00  0.00    -0.175 N
ATOM     25  H7  UNL     1     -13.186  28.352   5.424  1.00  0.00     0.186 HD
BRANCH  16  26
HETATM   26  N4  UNL     1      -9.416  26.609   8.974  1.00  0.00    -0.395 N
ATOM     27  H42 UNL     1      -9.570  26.504   9.977  1.00  0.00     0.156 HD
ATOM     28  H41 UNL     1      -8.978  26.007   8.277  1.00  0.00     0.156 HD
ENDBRANCH  16  26
BRANCH  22  29
HETATM   29  N6  UNL     1     -14.239  26.141   5.902  1.00  0.00    -0.234 N
ATOM     30  H62 UNL     1     -14.513  25.169   6.052  1.00  0.00     0.174 HD
ATOM     31  H61 UNL     1     -14.791  26.741   5.289  1.00  0.00     0.174 HD
ENDBRANCH  22  29
ENDBRANCH   6   7
ENDBRANCH   5   6
ENDBRANCH   4   5
BRANCH   4  32
HETATM   32  C13 UNL     1     -10.698  26.413   3.572  1.00  0.00     0.172 C
BRANCH  32  33
HETATM   33  O6  UNL     1     -11.689  25.624   4.179  1.00  0.00    -0.391 OA
ATOM     34  H6  UNL     1     -11.892  24.919   3.575  1.00  0.00     0.210 HD
ENDBRANCH  32  33
BRANCH  32  35
HETATM   35  C14 UNL     1      -9.488  26.425   4.424  1.00  0.00     0.198 C
BRANCH  35  36
HETATM   36  O7  UNL     1      -9.643  25.331   5.315  1.00  0.00    -0.398 OA
ATOM     37  H7  UNL     1     -10.517  25.421   5.676  1.00  0.00     0.209 HD
ENDBRANCH  35  36
ENDBRANCH  32  35
ENDBRANCH   4  32
ENDBRANCH   3   4
TORSDOF 10
ENDMDL