MODEL 3
REMARK VINA RESULT: -6.161192454      1.514      1.752
REMARK  13 active torsions:
REMARK  status: ('A' for Active; 'I' for Inactive)
REMARK    1  A    between atoms: O1_2  and  C2_3
REMARK    2  A    between atoms: C2_3  and  C3_5
REMARK    3  A    between atoms: C3_5  and  N1_6
REMARK    4  A    between atoms: C3_5  and  C12_35
REMARK    5  A    between atoms: N1_6  and  C4_8
REMARK    6  A    between atoms: C4_8  and  O3_9
REMARK    7  A    between atoms: C4_8  and  N2_11
REMARK       I    between atoms: N2_11  and  C5_13
REMARK    8  A    between atoms: C5_13  and  C6_15
REMARK    9  A    between atoms: N5_23  and  N6_24
REMARK   10  A    between atoms: N7_28  and  C10_29
REMARK   11  A    between atoms: C10_29  and  C11_30
REMARK   12  A    between atoms: C11_30  and  O6_31
REMARK   13  A    between atoms: C11_30  and  O7_33
ROOT
HETATM    1  C6  UNL     1     -11.680  29.398   5.583  1.00  0.00     0.180 A
HETATM    2  N3  UNL     1     -10.981  29.884   6.666  1.00  0.00    -0.321 N
ATOM      3  H3  UNL     1     -10.703  30.858   6.781  1.00  0.00     0.169 HD
HETATM    4  C7  UNL     1     -10.715  28.920   7.539  1.00  0.00     0.158 A
HETATM    5  N4  UNL     1     -10.158  28.558   8.704  1.00  0.00    -0.290 N
ATOM      6  H4  UNL     1      -9.670  29.186   9.343  1.00  0.00     0.172 HD
HETATM    7  C8  UNL     1     -10.343  27.243   8.897  1.00  0.00     0.348 A
HETATM    8  O5  UNL     1      -9.944  26.570   9.893  1.00  0.00    -0.245 OA
HETATM    9  N5  UNL     1     -11.023  26.771   7.842  1.00  0.00    -0.191 N
HETATM   10  C9  UNL     1     -11.259  27.784   7.003  1.00  0.00     0.180 A
HETATM   11  N7  UNL     1     -11.847  28.100   5.802  1.00  0.00    -0.305 N
ENDROOT
BRANCH   1  12
HETATM   12  C5  UNL     1     -12.068  30.325   4.540  1.00  0.00     0.293 C
HETATM   13  N2  UNL     1     -11.338  30.793   3.458  1.00  0.00    -0.286 N
ATOM     14  H2  UNL     1     -10.380  30.452   3.376  1.00  0.00     0.172 HD
HETATM   15  O4  UNL     1     -13.279  30.771   4.647  1.00  0.00    -0.264 OA
BRANCH  13  16
HETATM   16  C4  UNL     1     -11.773  31.689   2.460  1.00  0.00     0.221 C
BRANCH  16  17
HETATM   17  N1  UNL     1     -12.847  32.571   2.446  1.00  0.00    -0.335 N
ATOM     18  H1  UNL     1     -13.773  32.204   2.231  1.00  0.00     0.164 HD
BRANCH  17  19
HETATM   19  C3  UNL     1     -12.713  34.003   2.725  1.00  0.00     0.274 C
BRANCH  19  20
HETATM   20  C2  UNL     1     -13.949  34.518   3.371  1.00  0.00     0.290 C
HETATM   21  O2  UNL     1     -14.821  33.699   3.736  1.00  0.00    -0.262 OA
BRANCH  20  22
HETATM   22  O1  UNL     1     -14.185  35.850   3.589  1.00  0.00    -0.325 OA
HETATM   23  C1  UNL     1     -15.483  36.371   3.810  1.00  0.00     0.213 C
ENDBRANCH  20  22
ENDBRANCH  19  20
BRANCH  19  24
HETATM   24  C12 UNL     1     -11.597  34.171   3.680  1.00  0.00     0.263 C
HETATM   25  N8  UNL     1     -11.685  33.785   5.045  1.00  0.00    -0.060 NA
HETATM   26  O8  UNL     1     -10.509  34.675   3.297  1.00  0.00    -0.274 OA
ENDBRANCH  19  24
ENDBRANCH  17  19
ENDBRANCH  16  17
BRANCH  16  27
HETATM   27  O3  UNL     1     -11.074  31.716   1.360  1.00  0.00    -0.332 OA
ATOM     28  H3  UNL     1     -10.709  32.572   1.171  1.00  0.00     0.220 HD
ENDBRANCH  16  27
ENDBRANCH  13  16
ENDBRANCH   1  12
BRANCH  11  29
HETATM   29  C10 UNL     1     -12.486  27.129   4.988  1.00  0.00     0.193 C
BRANCH  29  30
HETATM   30  C11 UNL     1     -13.979  27.032   5.139  1.00  0.00     0.272 C
BRANCH  30  31
HETATM   31  O6  UNL     1     -14.500  25.803   5.371  1.00  0.00    -0.370 OA
ATOM     32  H6  UNL     1     -15.056  25.432   4.696  1.00  0.00     0.212 HD
ENDBRANCH  30  31
BRANCH  30  33
HETATM   33  O7  UNL     1     -14.614  27.546   3.982  1.00  0.00    -0.370 OA
ATOM     34  H7  UNL     1     -14.915  26.830   3.435  1.00  0.00     0.212 HD
ENDBRANCH  30  33
ENDBRANCH  29  30
ENDBRANCH  11  29
BRANCH   9  35
HETATM   35  N6  UNL     1     -11.391  25.425   7.711  1.00  0.00    -0.333 N
ATOM     36  H62 UNL     1     -11.317  24.676   8.400  1.00  0.00     0.177 HD
ATOM     37  H61 UNL     1     -11.795  25.040   6.858  1.00  0.00     0.177 HD
ENDBRANCH   9  35
TORSDOF 13
ENDMDL