MODEL 5
REMARK VINA RESULT: -6.371689102      1.123      1.407
REMARK  11 active torsions:
REMARK  status: ('A' for Active; 'I' for Inactive)
REMARK    1  A    between atoms: O1_2  and  C2_3
REMARK    2  A    between atoms: C2_3  and  C3_5
REMARK    3  A    between atoms: C3_5  and  O3_6
REMARK    4  A    between atoms: C3_5  and  C4_14
REMARK    5  A    between atoms: O3_6  and  N1_7
REMARK    6  A    between atoms: N1_7  and  N2_8
REMARK    7  A    between atoms: N1_7  and  N3_11
REMARK    8  A    between atoms: C4_14  and  O4_15
REMARK    9  A    between atoms: C4_14  and  C5_17
REMARK   10  A    between atoms: C5_17  and  C6_18
REMARK   11  A    between atoms: C5_17  and  N4_21
ROOT
HETATM    1  C5  UNL     1     -10.265  27.789   4.759  1.00  0.00     0.222 C
ENDROOT
BRANCH   1   2
HETATM    2  C4  UNL     1     -11.147  26.583   5.007  1.00  0.00     0.192 C
BRANCH   2   3
HETATM    3  C3  UNL     1     -12.251  26.761   5.995  1.00  0.00     0.280 C
BRANCH   3   4
HETATM    4  C2  UNL     1     -11.684  26.840   7.400  1.00  0.00     0.292 C
HETATM    5  O2  UNL     1     -11.321  27.936   7.895  1.00  0.00    -0.262 OA
BRANCH   4   6
HETATM    6  O1  UNL     1     -11.545  25.710   8.193  1.00  0.00    -0.324 OA
HETATM    7  C1  UNL     1     -10.338  25.313   8.787  1.00  0.00     0.213 C
ENDBRANCH   4   6
ENDBRANCH   3   4
BRANCH   3   8
HETATM    8  O3  UNL     1     -13.149  27.759   5.775  1.00  0.00    -0.248 OA
BRANCH   8   9
HETATM    9  N1  UNL     1     -14.314  27.332   5.225  1.00  0.00    -0.015 NA
BRANCH   9  10
HETATM   10  N2  UNL     1     -14.405  27.644   3.864  1.00  0.00    -0.322 NA
ATOM     11  H22 UNL     1     -15.330  27.339   3.560  1.00  0.00     0.175 HD
ATOM     12  H21 UNL     1     -13.721  27.136   3.303  1.00  0.00     0.175 HD
ENDBRANCH   9  10
BRANCH   9  13
HETATM   13  N3  UNL     1     -14.324  25.935   5.312  1.00  0.00    -0.322 NA
ATOM     14  H32 UNL     1     -14.450  25.709   6.299  1.00  0.00     0.175 HD
ATOM     15  H31 UNL     1     -15.099  25.603   4.737  1.00  0.00     0.175 HD
ENDBRANCH   9  13
ENDBRANCH   8   9
ENDBRANCH   3   8
ENDBRANCH   2   3
BRANCH   2  16
HETATM   16  O4  UNL     1     -11.757  26.144   3.824  1.00  0.00    -0.390 OA
ATOM     17  H4  UNL     1     -11.050  25.872   3.252  1.00  0.00     0.210 HD
ENDBRANCH   2  16
ENDBRANCH   1   2
BRANCH   1  18
HETATM   18  C6  UNL     1      -8.889  27.414   5.165  1.00  0.00     0.200 C
HETATM   19  O5  UNL     1      -7.911  28.159   5.273  1.00  0.00    -0.646 OA
HETATM   20  O6  UNL     1      -8.710  26.043   5.451  1.00  0.00    -0.646 OA
ENDBRANCH   1  18
BRANCH   1  21
HETATM   21  N4  UNL     1     -10.366  28.055   3.337  1.00  0.00    -0.334 N
HETATM   22  C7  UNL     1      -9.773  27.304   2.393  1.00  0.00     0.093 A
HETATM   23  C8  UNL     1     -10.078  27.832   1.157  1.00  0.00     0.037 A
HETATM   24  C9  UNL     1     -10.876  28.933   1.344  1.00  0.00     0.066 A
HETATM   25  C10 UNL     1     -11.409  29.752   0.354  1.00  0.00     0.272 C
HETATM   26  C13 UNL     1     -11.028  29.036   2.711  1.00  0.00     0.120 A
HETATM   27  O7  UNL     1     -10.900  29.559  -0.769  1.00  0.00    -0.267 OA
HETATM   28  N5  UNL     1     -12.383  30.698   0.480  1.00  0.00    -0.156 N
HETATM   29  C11 UNL     1     -13.082  31.055   1.581  1.00  0.00     0.681 C
ATOM     30  H5  UNL     1     -12.617  31.205  -0.373  1.00  0.00     0.187 HD
HETATM   31  N6  UNL     1     -14.151  31.743   1.350  1.00  0.00    -0.234 N
HETATM   32  N7  UNL     1     -12.768  30.766   2.864  1.00  0.00    -0.154 N
ATOM     33  H62 UNL     1     -14.388  31.962   0.383  1.00  0.00     0.174 HD
ATOM     34  H61 UNL     1     -14.679  32.013   2.181  1.00  0.00     0.174 HD
HETATM   35  C12 UNL     1     -11.765  30.025   3.360  1.00  0.00     0.287 C
ATOM     36  H7  UNL     1     -13.390  31.173   3.562  1.00  0.00     0.187 HD
HETATM   37  O8  UNL     1     -11.461  30.247   4.526  1.00  0.00    -0.265 OA
ENDBRANCH   1  21
TORSDOF 11
ENDMDL