MODEL 5
REMARK VINA RESULT: -6.631383873      1.255      1.449
REMARK  9 active torsions:
REMARK  status: ('A' for Active; 'I' for Inactive)
REMARK    1  A    between atoms: C2_7  and  C3_8
REMARK       I    between atoms: C3_8  and  N4_10
REMARK    2  A    between atoms: N4_10  and  C4_12
REMARK    3  A    between atoms: C4_12  and  C5_13
REMARK    4  A    between atoms: C4_12  and  C7_20
REMARK       I    between atoms: C5_13  and  N5_15
REMARK    5  A    between atoms: N5_15  and  C6_17
REMARK    6  A    between atoms: C7_20  and  O3_21
REMARK    7  A    between atoms: C7_20  and  C8_23
REMARK    8  A    between atoms: C8_23  and  N7_24
REMARK    9  A    between atoms: C12_34  and  O4_35
ROOT
HETATM    1  C4  UNL     1     -12.125  30.299   3.790  1.00  0.00     0.207 C
ENDROOT
BRANCH   1   2
HETATM    2  N4  UNL     1     -13.010  31.284   3.176  1.00  0.00    -0.340 N
HETATM    3  C3  UNL     1     -12.923  31.624   1.808  1.00  0.00     0.274 C
HETATM    4  O1  UNL     1     -12.058  31.060   1.099  1.00  0.00    -0.266 OA
ATOM      5  H4  UNL     1     -13.714  31.742   3.754  1.00  0.00     0.163 HD
BRANCH   3   6
HETATM    6  C2  UNL     1     -13.796  32.600   1.186  1.00  0.00     0.170 A
HETATM    7  N3  UNL     1     -14.821  33.258   1.763  1.00  0.00    -0.277 N
HETATM    8  N2  UNL     1     -15.375  34.064   0.866  1.00  0.00    -0.238 N
ATOM      9  H3  UNL     1     -15.123  33.153   2.733  1.00  0.00     0.189 HD
HETATM   10  N1  UNL     1     -14.754  33.968  -0.293  1.00  0.00    -0.259 N
ATOM     11  H2  UNL     1     -16.171  34.674   1.048  1.00  0.00     0.208 HD
HETATM   12  C1  UNL     1     -15.032  34.671  -1.544  1.00  0.00     0.181 C
HETATM   13  C12 UNL     1     -13.764  33.059  -0.117  1.00  0.00     0.192 A
BRANCH  13  14
HETATM   14  O4  UNL     1     -12.865  32.654  -1.082  1.00  0.00    -0.343 OA
ATOM     15  H4  UNL     1     -13.066  32.098  -1.825  1.00  0.00     0.219 HD
ENDBRANCH  13  14
ENDBRANCH   3   6
ENDBRANCH   1   2
BRANCH   1  16
HETATM   16  C5  UNL     1     -11.343  30.940   4.868  1.00  0.00     0.249 C
HETATM   17  O2  UNL     1     -10.336  31.608   4.541  1.00  0.00    -0.271 OA
HETATM   18  N5  UNL     1     -11.659  30.846   6.243  1.00  0.00    -0.304 N
ATOM     19  H5  UNL     1     -12.475  30.305   6.530  1.00  0.00     0.170 HD
BRANCH  18  20
HETATM   20  C6  UNL     1     -10.870  31.485   7.234  1.00  0.00     0.187 C
HETATM   21  N6  UNL     1     -11.178  32.824   7.594  1.00  0.00    -0.070 NA
HETATM   22  S1  UNL     1      -9.612  30.701   7.966  1.00  0.00    -0.044 SA
ENDBRANCH  18  20
ENDBRANCH   1  16
BRANCH   1  23
HETATM   23  C7  UNL     1     -12.913  29.092   4.242  1.00  0.00     0.168 C
BRANCH  23  24
HETATM   24  O3  UNL     1     -14.208  29.048   3.751  1.00  0.00    -0.391 OA
ATOM     25  H3  UNL     1     -14.335  29.546   2.952  1.00  0.00     0.210 HD
ENDBRANCH  23  24
BRANCH  23  26
HETATM   26  C8  UNL     1     -12.247  27.789   3.953  1.00  0.00     0.161 C
BRANCH  26  27
HETATM   27  N7  UNL     1     -12.108  27.109   5.254  1.00  0.00    -0.329 N
HETATM   28  C9  UNL     1     -10.815  27.179   5.889  1.00  0.00     0.361 C
HETATM   29  N8  UNL     1     -10.662  26.141   6.877  1.00  0.00    -0.043 N
HETATM   30  C10 UNL     1     -11.798  26.106   7.788  1.00  0.00     0.358 C
ATOM     31  H82 UNL     1     -10.501  25.233   6.443  1.00  0.00     0.281 HD
ATOM     32  H81 UNL     1      -9.780  26.232   7.381  1.00  0.00     0.281 HD
HETATM   33  N9  UNL     1     -13.044  25.955   7.036  1.00  0.00    -0.341 N
HETATM   34  C11 UNL     1     -13.172  26.431   5.848  1.00  0.00     0.189 C
ATOM     35  H9  UNL     1     -13.828  25.461   7.463  1.00  0.00     0.163 HD
HETATM   36  N10 UNL     1     -14.397  26.275   5.120  1.00  0.00    -0.064 NA
ENDBRANCH  26  27
ENDBRANCH  23  26
ENDBRANCH   1  23
TORSDOF 9
ENDMDL