MODEL 5
REMARK VINA RESULT: -7.222407628      3.311      6.003
REMARK  9 active torsions:
REMARK  status: ('A' for Active; 'I' for Inactive)
REMARK    1  A    between atoms: C4_8  and  C5_9
REMARK    2  A    between atoms: C5_9  and  N3_10
REMARK    3  A    between atoms: N6_20  and  C8_22
REMARK    4  A    between atoms: C8_22  and  C9_23
REMARK    5  A    between atoms: C9_23  and  O3_24
REMARK    6  A    between atoms: C9_23  and  C10_26
REMARK    7  A    between atoms: C10_26  and  O4_27
REMARK    8  A    between atoms: C10_26  and  C11_29
REMARK    9  A    between atoms: C11_29  and  N7_30
ROOT
HETATM    1  C1  UNL     1      -9.954  27.099   9.470  1.00  0.00     0.164 C
HETATM    2  N1  UNL     1     -10.696  27.587   8.326  1.00  0.00    -0.270 N
HETATM    3  C2  UNL     1     -11.537  26.743   7.728  1.00  0.00     0.329 A
HETATM    4  O1  UNL     1     -11.677  25.563   8.149  1.00  0.00    -0.246 OA
HETATM    5  N2  UNL     1     -12.262  27.111   6.664  1.00  0.00    -0.307 N
ATOM      6  H2  UNL     1     -12.897  26.444   6.226  1.00  0.00     0.170 HD
HETATM    7  C3  UNL     1     -12.156  28.346   6.176  1.00  0.00     0.068 A
HETATM    8  C4  UNL     1     -12.898  28.733   5.081  1.00  0.00     0.065 A
HETATM    9  C6  UNL     1     -12.748  30.007   4.627  1.00  0.00     0.277 A
HETATM   10  O2  UNL     1     -13.417  30.387   3.626  1.00  0.00    -0.266 OA
HETATM   11  N4  UNL     1     -11.919  30.893   5.190  1.00  0.00    -0.212 N
HETATM   12  N5  UNL     1     -11.809  32.114   4.712  1.00  0.00    -0.255 N
ATOM     13  H5  UNL     1     -12.361  32.392   3.901  1.00  0.00     0.191 HD
HETATM   14  C7  UNL     1     -10.976  32.993   5.283  1.00  0.00     0.241 A
HETATM   15  N6  UNL     1     -10.909  34.174   4.775  1.00  0.00    -0.352 N
ATOM     16  H6  UNL     1     -10.281  34.861   5.192  1.00  0.00     0.163 HD
HETATM   17  O5  UNL     1     -10.255  32.676   6.317  1.00  0.00    -0.259 OA
HETATM   18  C12 UNL     1     -10.320  31.442   6.854  1.00  0.00     0.175 A
HETATM   19  N8  UNL     1      -9.570  31.286   7.842  1.00  0.00    -0.378 N
ATOM     20  H81 UNL     1      -9.620  30.352   8.248  1.00  0.00     0.158 HD
ATOM     21  H82 UNL     1      -8.936  31.960   8.273  1.00  0.00     0.158 HD
HETATM   22  C13 UNL     1     -11.155  30.554   6.286  1.00  0.00     0.129 A
HETATM   23  C14 UNL     1     -11.269  29.257   6.795  1.00  0.00     0.093 A
HETATM   24  C15 UNL     1     -10.542  28.876   7.868  1.00  0.00     0.266 A
HETATM   25  O6  UNL     1      -9.756  29.531   8.496  1.00  0.00    -0.267 OA
ENDROOT
BRANCH  15  26
HETATM   26  C8  UNL     1     -11.704  34.546   3.628  1.00  0.00     0.157 C
BRANCH  26  27
HETATM   27  C9  UNL     1     -13.022  35.167   4.065  1.00  0.00     0.166 C
BRANCH  27  28
HETATM   28  O3  UNL     1     -13.009  36.545   3.821  1.00  0.00    -0.391 OA
ATOM     29  H3  UNL     1     -13.895  36.861   3.692  1.00  0.00     0.210 HD
ENDBRANCH  27  28
BRANCH  27  30
HETATM   30  C10 UNL     1     -14.141  34.479   3.314  1.00  0.00     0.173 C
BRANCH  30  31
HETATM   31  O4  UNL     1     -14.377  33.252   3.887  1.00  0.00    -0.391 OA
ATOM     32  H4  UNL     1     -14.534  33.370   4.816  1.00  0.00     0.210 HD
ENDBRANCH  30  31
BRANCH  30  33
HETATM   33  C11 UNL     1     -15.382  35.366   3.339  1.00  0.00     0.263 C
BRANCH  33  34
HETATM   34  N7  UNL     1     -15.433  36.075   2.073  1.00  0.00    -0.077 N
ATOM     35  H73 UNL     1     -14.581  36.598   1.875  1.00  0.00     0.274 HD
ATOM     36  H72 UNL     1     -15.398  35.452   1.266  1.00  0.00     0.274 HD
ATOM     37  H71 UNL     1     -16.266  36.663   2.087  1.00  0.00     0.274 HD
ENDBRANCH  33  34
ENDBRANCH  30  33
ENDBRANCH  27  30
ENDBRANCH  26  27
ENDBRANCH  15  26
BRANCH   8  38
HETATM   38  C5  UNL     1     -13.805  27.730   4.483  1.00  0.00     0.276 C
BRANCH  38  39
HETATM   39  N3  UNL     1     -13.766  27.673   3.061  1.00  0.00    -0.075 N
ATOM     40  H33 UNL     1     -13.772  26.703   2.744  1.00  0.00     0.274 HD
ATOM     41  H32 UNL     1     -14.652  27.991   2.668  1.00  0.00     0.274 HD
ATOM     42  H31 UNL     1     -12.988  28.180   2.638  1.00  0.00     0.274 HD
ENDBRANCH  38  39
ENDBRANCH   8  38
TORSDOF 9
ENDMDL