MODEL 2
REMARK VINA RESULT: -6.307983230      2.384      6.456
REMARK  8 active torsions:
REMARK  status: ('A' for Active; 'I' for Inactive)
REMARK       I    between atoms: C1_4  and  N3_6
REMARK    1  A    between atoms: N3_6  and  C2_8
REMARK       I    between atoms: N5_13  and  C4_14
REMARK    2  A    between atoms: C4_14  and  C5_16
REMARK    3  A    between atoms: C5_16  and  N6_17
REMARK    4  A    between atoms: C6_21  and  N7_22
REMARK    5  A    between atoms: C8_24  and  C9_25
REMARK       I    between atoms: C9_25  and  N8_27
REMARK    6  A    between atoms: N8_27  and  O4_29
REMARK    7  A    between atoms: C10_33  and  O5_34
REMARK    8  A    between atoms: O5_34  and  S1_35
ROOT
HETATM    1  C2  UNL     1     -12.572  31.040   2.515  1.00  0.00     0.151 A
HETATM    2  N4  UNL     1     -13.266  29.901   2.445  1.00  0.00    -0.291 N
ATOM      3  H4  UNL     1     -13.795  29.699   1.597  1.00  0.00     0.172 HD
HETATM    4  C3  UNL     1     -13.292  29.014   3.451  1.00  0.00     0.336 A
HETATM    5  O1  UNL     1     -13.989  27.991   3.244  1.00  0.00    -0.246 OA
HETATM    6  N5  UNL     1     -12.606  29.222   4.614  1.00  0.00    -0.212 N
HETATM    7  C4  UNL     1     -12.643  28.243   5.643  1.00  0.00     0.259 C
HETATM    8  O2  UNL     1     -12.042  28.513   6.721  1.00  0.00    -0.271 OA
HETATM    9  C6  UNL     1     -11.913  30.359   4.684  1.00  0.00     0.179 A
HETATM   10  C10 UNL     1     -11.867  31.302   3.655  1.00  0.00     0.182 A
ENDROOT
BRANCH   9  11
HETATM   11  N7  UNL     1     -11.144  30.716   5.823  1.00  0.00    -0.245 N
HETATM   12  C7  UNL     1      -9.881  30.538   6.285  1.00  0.00     0.155 A
HETATM   13  C8  UNL     1     -10.148  31.193   7.466  1.00  0.00     0.136 A
HETATM   14  N9  UNL     1     -11.389  31.348   6.968  1.00  0.00    -0.286 N
ATOM     15  H9  UNL     1     -12.227  31.796   7.340  1.00  0.00     0.188 HD
BRANCH  13  16
HETATM   16  C9  UNL     1      -9.427  31.552   8.686  1.00  0.00     0.294 C
HETATM   17  O3  UNL     1      -9.208  30.708   9.593  1.00  0.00    -0.264 OA
HETATM   18  N8  UNL     1      -8.955  32.870   8.876  1.00  0.00    -0.232 N
ATOM     19  H8  UNL     1      -9.124  33.568   8.151  1.00  0.00     0.197 HD
BRANCH  18  20
HETATM   20  O4  UNL     1      -8.293  33.225   9.982  1.00  0.00    -0.287 OA
ATOM     21  H4  UNL     1      -8.189  32.626  10.713  1.00  0.00     0.244 HD
ENDBRANCH  18  20
ENDBRANCH  13  16
ENDBRANCH   9  11
BRANCH  10  22
HETATM   22  O5  UNL     1     -11.144  32.462   3.760  1.00  0.00    -0.206 OA
BRANCH  22  23
HETATM   23  S1  UNL     1     -11.695  33.989   4.148  1.00  0.00     0.257 S
HETATM   24  O6  UNL     1     -10.916  35.109   3.521  1.00  0.00    -0.572 OA
HETATM   25  O7  UNL     1     -11.523  34.149   5.655  1.00  0.00    -0.572 OA
HETATM   26  O8  UNL     1     -13.331  34.144   3.855  1.00  0.00    -0.572 OA
ENDBRANCH  22  23
ENDBRANCH  10  22
BRANCH   7  27
HETATM   27  C5  UNL     1     -13.305  26.938   5.607  1.00  0.00     0.333 C
BRANCH  27  28
HETATM   28  N6  UNL     1     -12.488  25.984   4.855  1.00  0.00    -0.071 N
ATOM     29  H63 UNL     1     -13.001  25.571   4.077  1.00  0.00     0.274 HD
ATOM     30  H62 UNL     1     -11.754  26.448   4.320  1.00  0.00     0.274 HD
ATOM     31  H61 UNL     1     -12.113  25.276   5.485  1.00  0.00     0.274 HD
ENDBRANCH  27  28
ENDBRANCH   7  27
BRANCH   1  32
HETATM   32  N3  UNL     1     -12.553  31.887   1.543  1.00  0.00    -0.314 N
HETATM   33  C1  UNL     1     -13.717  32.253   0.815  1.00  0.00     0.187 C
HETATM   34  N1  UNL     1     -14.620  33.029   1.291  1.00  0.00    -0.373 N
HETATM   35  N2  UNL     1     -13.875  31.731  -0.494  1.00  0.00    -0.064 NA
ATOM     36  H12 UNL     1     -15.455  33.292   0.768  1.00  0.00     0.158 HD
ATOM     37  H11 UNL     1     -14.506  33.404   2.233  1.00  0.00     0.158 HD
ATOM     38  H3  UNL     1     -11.663  32.314   1.286  1.00  0.00     0.170 HD
ENDBRANCH   1  32
TORSDOF 8
ENDMDL