MODEL 4
REMARK VINA RESULT: -6.668364936      4.220      8.631
REMARK  10 active torsions:
REMARK  status: ('A' for Active; 'I' for Inactive)
REMARK    1  A    between atoms: C2_2  and  N1_4
REMARK    2  A    between atoms: C2_2  and  C13_25
REMARK       I    between atoms: N1_4  and  C4_6
REMARK    3  A    between atoms: C4_6  and  C5_8
REMARK    4  A    between atoms: C11_21  and  C12_22
REMARK    5  A    between atoms: C13_25  and  O4_26
REMARK    6  A    between atoms: C13_25  and  C14_28
REMARK    7  A    between atoms: C14_28  and  C15_30
REMARK    8  A    between atoms: C15_30  and  C16_32
REMARK    9  A    between atoms: C16_32  and  N6_33
REMARK   10  A    between atoms: C16_32  and  O7_37
ROOT
HETATM    1  N1  UNL     1      -8.850  26.612  10.952  1.00  0.00    -0.345 N
ATOM      2  H1  UNL     1      -8.905  27.619  10.801  1.00  0.00     0.163 HD
HETATM    3  C4  UNL     1      -9.545  25.864  10.001  1.00  0.00     0.253 C
HETATM    4  O1  UNL     1      -9.574  24.614  10.024  1.00  0.00    -0.268 OA
ENDROOT
BRANCH   1   5
HETATM    5  C2  UNL     1      -8.091  26.254  12.076  1.00  0.00     0.059 C
HETATM    6  C1  UNL     1      -6.929  25.312  11.631  1.00  0.00     0.041 C
HETATM    7  C3  UNL     1      -8.867  25.448  13.091  1.00  0.00     0.041 C
BRANCH   5   8
HETATM    8  C13 UNL     1      -7.398  27.403  12.813  1.00  0.00     0.223 C
BRANCH   8   9
HETATM    9  O4  UNL     1      -6.905  28.244  11.786  1.00  0.00    -0.385 OA
ATOM     10  H4  UNL     1      -6.141  28.663  12.163  1.00  0.00     0.210 HD
ENDBRANCH   8   9
BRANCH   8  11
HETATM   11  C14 UNL     1      -8.409  28.211  13.542  1.00  0.00     0.230 C
HETATM   12  O5  UNL     1      -9.341  28.752  12.842  1.00  0.00    -0.286 OA
BRANCH  11  13
HETATM   13  C15 UNL     1      -8.472  28.468  14.950  1.00  0.00     0.253 C
HETATM   14  O6  UNL     1      -7.515  28.236  15.743  1.00  0.00    -0.284 OA
BRANCH  13  15
HETATM   15  C16 UNL     1      -9.686  29.036  15.624  1.00  0.00     0.395 C
BRANCH  15  16
HETATM   16  N6  UNL     1      -9.764  30.437  15.267  1.00  0.00    -0.045 N
ATOM     17  H63 UNL     1      -8.973  30.749  14.705  1.00  0.00     0.277 HD
ATOM     18  H62 UNL     1     -10.497  30.635  14.584  1.00  0.00     0.277 HD
ATOM     19  H61 UNL     1      -9.872  30.967  16.132  1.00  0.00     0.277 HD
ENDBRANCH  15  16
BRANCH  15  20
HETATM   20  O7  UNL     1     -10.822  28.336  15.289  1.00  0.00    -0.364 OA
ATOM     21  H7  UNL     1     -11.471  28.374  15.982  1.00  0.00     0.212 HD
ENDBRANCH  15  20
ENDBRANCH  13  15
ENDBRANCH  11  13
ENDBRANCH   8  11
ENDBRANCH   5   8
ENDBRANCH   1   5
BRANCH   3  22
HETATM   22  C5  UNL     1     -10.311  26.523   8.905  1.00  0.00     0.049 A
HETATM   23  C6  UNL     1     -11.392  25.786   8.367  1.00  0.00     0.050 A
HETATM   24  C7  UNL     1     -12.225  26.367   7.434  1.00  0.00     0.066 A
HETATM   25  N2  UNL     1     -13.282  25.705   6.897  1.00  0.00    -0.285 N
HETATM   26  C9  UNL     1     -11.966  27.661   7.057  1.00  0.00     0.062 A
HETATM   27  N3  UNL     1     -14.075  26.312   6.002  1.00  0.00    -0.239 N
ATOM     28  H2  UNL     1     -13.475  24.743   7.177  1.00  0.00     0.188 HD
HETATM   29  N4  UNL     1     -13.860  27.556   5.613  1.00  0.00    -0.251 N
ATOM     30  H3  UNL     1     -14.865  25.799   5.610  1.00  0.00     0.208 HD
HETATM   31  C8  UNL     1     -12.821  28.231   6.127  1.00  0.00     0.273 A
ATOM     32  H4  UNL     1     -14.476  27.998   4.930  1.00  0.00     0.192 HD
HETATM   33  O2  UNL     1     -12.576  29.420   5.788  1.00  0.00    -0.266 OA
HETATM   34  C10 UNL     1     -10.910  28.365   7.584  1.00  0.00     0.037 A
HETATM   35  C11 UNL     1     -10.036  27.798   8.543  1.00  0.00     0.046 A
BRANCH  35  36
HETATM   36  C12 UNL     1      -8.909  28.589   9.002  1.00  0.00     0.266 C
HETATM   37  N5  UNL     1      -7.612  28.277   8.557  1.00  0.00    -0.057 NA
HETATM   38  O3  UNL     1      -9.031  29.548   9.786  1.00  0.00    -0.271 OA
ENDBRANCH  35  36
ENDBRANCH   3  22
TORSDOF 10
ENDMDL