MODEL 3
REMARK VINA RESULT: -6.303498483      1.781      4.179
REMARK  9 active torsions:
REMARK  status: ('A' for Active; 'I' for Inactive)
REMARK    1  A    between atoms: N1_1  and  C1_5
REMARK    2  A    between atoms: C1_5  and  C2_6
REMARK    3  A    between atoms: C1_5  and  C14_32
REMARK    4  A    between atoms: C2_6  and  N2_7
REMARK    5  A    between atoms: N4_16  and  O2_17
REMARK    6  A    between atoms: O2_17  and  C8_18
REMARK    7  A    between atoms: C14_32  and  O6_33
REMARK    8  A    between atoms: C14_32  and  C15_35
REMARK    9  A    between atoms: C15_35  and  O7_36
ROOT
HETATM    1  N2  UNL     1     -11.001  28.266   7.308  1.00  0.00    -0.324 N
HETATM    2  C3  UNL     1     -10.823  29.598   7.340  1.00  0.00     0.122 A
HETATM    3  C4  UNL     1      -9.968  29.918   8.359  1.00  0.00     0.085 A
HETATM    4  C5  UNL     1      -9.598  28.741   8.988  1.00  0.00     0.129 A
HETATM    5  C6  UNL     1     -10.249  27.729   8.324  1.00  0.00     0.143 A
HETATM    6  N3  UNL     1      -9.916  26.577   8.904  1.00  0.00    -0.290 N
ATOM      7  H3  UNL     1     -10.253  25.659   8.617  1.00  0.00     0.172 HD
HETATM    8  C7  UNL     1      -9.064  26.805   9.934  1.00  0.00     0.353 A
HETATM    9  O1  UNL     1      -8.538  25.961  10.711  1.00  0.00    -0.244 OA
HETATM   10  N4  UNL     1      -8.886  28.136   9.963  1.00  0.00    -0.165 N
HETATM   11  C11 UNL     1      -9.600  31.296   8.646  1.00  0.00     0.254 A
HETATM   12  O3  UNL     1      -8.806  31.558   9.594  1.00  0.00    -0.281 OA
HETATM   13  C12 UNL     1     -10.114  32.422   7.878  1.00  0.00     0.299 A
HETATM   14  O4  UNL     1      -9.812  33.612   8.106  1.00  0.00    -0.264 OA
HETATM   15  N6  UNL     1     -11.004  32.088   6.823  1.00  0.00    -0.285 N
ATOM     16  H6  UNL     1     -11.400  32.830   6.246  1.00  0.00     0.172 HD
HETATM   17  C13 UNL     1     -11.351  30.736   6.556  1.00  0.00     0.276 A
HETATM   18  O5  UNL     1     -12.150  30.546   5.602  1.00  0.00    -0.266 OA
ENDROOT
BRANCH   1  19
HETATM   19  C2  UNL     1     -11.776  27.561   6.349  1.00  0.00     0.166 C
BRANCH  19  20
HETATM   20  C1  UNL     1     -13.109  27.069   6.769  1.00  0.00     0.232 C
BRANCH  20  21
HETATM   21  N1  UNL     1     -13.037  25.707   7.216  1.00  0.00    -0.071 N
ATOM     22  H13 UNL     1     -13.277  25.053   6.471  1.00  0.00     0.274 HD
ATOM     23  H12 UNL     1     -12.073  25.414   7.373  1.00  0.00     0.274 HD
ATOM     24  H11 UNL     1     -13.614  25.564   8.044  1.00  0.00     0.274 HD
ENDBRANCH  20  21
BRANCH  20  25
HETATM   25  C14 UNL     1     -14.089  27.078   5.582  1.00  0.00     0.173 C
BRANCH  25  26
HETATM   26  O6  UNL     1     -14.468  25.756   5.292  1.00  0.00    -0.391 OA
ATOM     27  H6  UNL     1     -14.102  25.507   4.451  1.00  0.00     0.210 HD
ENDBRANCH  25  26
BRANCH  25  28
HETATM   28  C15 UNL     1     -13.371  27.609   4.351  1.00  0.00     0.197 C
BRANCH  28  29
HETATM   29  O7  UNL     1     -14.298  27.743   3.287  1.00  0.00    -0.398 OA
ATOM     30  H7  UNL     1     -14.789  28.549   3.397  1.00  0.00     0.209 HD
ENDBRANCH  28  29
ENDBRANCH  25  28
ENDBRANCH  20  25
ENDBRANCH  19  20
ENDBRANCH   1  19
BRANCH  10  31
HETATM   31  O2  UNL     1      -8.101  28.834  10.840  1.00  0.00    -0.260 OA
BRANCH  31  32
HETATM   32  C8  UNL     1      -8.504  29.234  12.114  1.00  0.00     0.204 C
HETATM   33  C9  UNL     1      -7.888  28.374  13.223  1.00  0.00     0.268 C
HETATM   34  N5  UNL     1      -7.728  29.586  13.994  1.00  0.00    -0.070 N
HETATM   35  C10 UNL     1      -7.681  30.333  12.755  1.00  0.00     0.268 C
ATOM     36  H52 UNL     1      -8.401  29.830  14.720  1.00  0.00     0.277 HD
ATOM     37  H51 UNL     1      -6.975  29.669  14.678  1.00  0.00     0.277 HD
ENDBRANCH  31  32
ENDBRANCH  10  31
TORSDOF 9
ENDMDL