MODEL 2
REMARK VINA RESULT: -7.984959477      3.554      6.902
REMARK  3 active torsions:
REMARK  status: ('A' for Active; 'I' for Inactive)
REMARK    1  A    between atoms: C3_3  and  C4_4
REMARK    2  A    between atoms: N1_9  and  C7_10
REMARK    3  A    between atoms: C7_10  and  C8_11
ROOT
HETATM    1  C1  UNL     1     -64.638  50.373  -0.008  1.00  0.00     0.070 C
HETATM    2  C2  UNL     1     -65.353  49.241  -0.702  1.00  0.00     0.035 A
HETATM    3  C3  UNL     1     -66.295  48.521  -0.051  1.00  0.00     0.056 A
HETATM    4  N2  UNL     1     -66.895  47.476  -0.767  1.00  0.00    -0.350 N
ATOM      5  H2  UNL     1     -67.605  46.921  -0.288  1.00  0.00     0.166 HD
HETATM    6  C10 UNL     1     -66.579  47.126  -2.138  1.00  0.00     0.112 A
HETATM    7  C11 UNL     1     -67.195  46.120  -2.747  1.00  0.00     0.119 C
HETATM    8 CL1  UNL     1     -68.404  45.200  -1.891  1.00  0.00    -0.094 Cl
HETATM    9  C12 UNL     1     -65.565  47.925  -2.804  1.00  0.00     0.273 A
HETATM   10  O4  UNL     1     -65.253  47.666  -3.991  1.00  0.00    -0.266 OA
HETATM   11  N3  UNL     1     -64.986  48.967  -2.040  1.00  0.00    -0.324 N
ATOM     12  H3  UNL     1     -64.270  49.548  -2.475  1.00  0.00     0.169 HD
ENDROOT
BRANCH   3  13
HETATM   13  C4  UNL     1     -66.610  48.837   1.307  1.00  0.00     0.056 C
HETATM   14  C5  UNL     1     -67.333  48.370   2.246  1.00  0.00     0.078 C
HETATM   15  S1  UNL     1     -67.324  49.264   3.896  1.00  0.00    -0.055 SA
HETATM   16  C9  UNL     1     -68.265  47.329   2.564  1.00  0.00     0.266 C
HETATM   17  C6  UNL     1     -67.465  47.666   4.784  1.00  0.00     0.149 C
HETATM   18  S2  UNL     1     -66.747  47.297   6.165  1.00  0.00    -0.052 SA
HETATM   19  N1  UNL     1     -68.332  46.946   3.929  1.00  0.00    -0.288 N
HETATM   20  O3  UNL     1     -69.001  46.773   1.678  1.00  0.00    -0.266 OA
BRANCH  19  21
HETATM   21  C7  UNL     1     -69.202  45.880   4.428  1.00  0.00     0.246 C
BRANCH  21  22
HETATM   22  C8  UNL     1     -68.616  44.544   4.145  1.00  0.00     0.192 C
HETATM   23  O1  UNL     1     -67.665  44.115   4.847  1.00  0.00    -0.647 OA
HETATM   24  O2  UNL     1     -69.073  43.728   3.125  1.00  0.00    -0.647 OA
ENDBRANCH  21  22
ENDBRANCH  19  21
ENDBRANCH   3  13
TORSDOF 3
ENDMDL