MODEL 2
REMARK VINA RESULT: -7.351268253      3.891      6.959
REMARK  5 active torsions:
REMARK  status: ('A' for Active; 'I' for Inactive)
REMARK    1  A    between atoms: C3_5  and  N2_6
REMARK    2  A    between atoms: C4_11  and  N4_12
REMARK    3  A    between atoms: N4_12  and  N5_14
REMARK    4  A    between atoms: N5_14  and  S1_16
REMARK    5  A    between atoms: S1_16  and  C5_19
ROOT
HETATM    1  C1  UNL     1     -65.318  48.563   5.373  1.00  0.00     0.070 C
HETATM    2  C2  UNL     1     -64.490  48.995   4.237  1.00  0.00     0.044 A
HETATM    3  N1  UNL     1     -63.195  49.371   4.373  1.00  0.00    -0.195 N
ATOM      4  H1  UNL     1     -62.741  49.367   5.287  1.00  0.00     0.184 HD
HETATM    5  C3  UNL     1     -62.525  49.749   3.274  1.00  0.00     0.677 A
HETATM    6  N3  UNL     1     -63.070  49.772   2.052  1.00  0.00    -0.174 N
ATOM      7  H3  UNL     1     -62.500  50.071   1.261  1.00  0.00     0.186 HD
HETATM    8  C4  UNL     1     -64.376  49.405   1.832  1.00  0.00     0.155 A
HETATM    9  C9  UNL     1     -65.053  49.018   2.970  1.00  0.00     0.079 A
HETATM   10 BR1  UNL     1     -66.894  48.476   2.817  1.00  0.00    -0.045 Br
ENDROOT
BRANCH   8  11
HETATM   11  N4  UNL     1     -64.854  49.441   0.652  1.00  0.00    -0.274 N
ATOM     12  H4  UNL     1     -65.529  50.190   0.495  1.00  0.00     0.189 HD
BRANCH  11  13
HETATM   13  N5  UNL     1     -64.621  48.654  -0.437  1.00  0.00    -0.221 N
ATOM     14  H5  UNL     1     -63.817  48.026  -0.412  1.00  0.00     0.200 HD
BRANCH  13  15
HETATM   15  S1  UNL     1     -65.609  48.657  -1.860  1.00  0.00     0.282 S
HETATM   16  O1  UNL     1     -64.728  48.473  -3.041  1.00  0.00    -0.198 OA
HETATM   17  O2  UNL     1     -66.410  49.903  -1.930  1.00  0.00    -0.198 OA
BRANCH  15  18
HETATM   18  C5  UNL     1     -66.723  47.276  -1.795  1.00  0.00     0.121 A
HETATM   19  C6  UNL     1     -67.092  46.450  -2.815  1.00  0.00     0.033 A
HETATM   20  C7  UNL     1     -67.962  45.457  -2.524  1.00  0.00     0.009 A
HETATM   21  C8  UNL     1     -68.395  45.367  -1.234  1.00  0.00     0.051 A
HETATM   22  S2  UNL     1     -67.591  46.653  -0.464  1.00  0.00    -0.088 SA
ENDBRANCH  15  18
ENDBRANCH  13  15
ENDBRANCH  11  13
ENDBRANCH   8  11
BRANCH   5  23
HETATM   23  N2  UNL     1     -61.277  50.116   3.379  1.00  0.00    -0.234 N
ATOM     24  H22 UNL     1     -61.036  51.053   3.057  1.00  0.00     0.174 HD
ATOM     25  H21 UNL     1     -60.597  49.466   3.773  1.00  0.00     0.174 HD
ENDBRANCH   5  23
TORSDOF 5
ENDMDL