MODEL 3
REMARK VINA RESULT: -6.982931170      3.271      6.127
REMARK  4 active torsions:
REMARK  status: ('A' for Active; 'I' for Inactive)
REMARK    1  A    between atoms: C2_2  and  C4_4
REMARK    2  A    between atoms: N1_7  and  O2_8
REMARK    3  A    between atoms: C8_12  and  S1_13
REMARK    4  A    between atoms: S1_13  and  N2_14
ROOT
HETATM    1  C4  UNL     1     -68.259  45.983   2.339  1.00  0.00     0.043 A
HETATM    2  C5  UNL     1     -69.105  45.186   1.551  1.00  0.00     0.280 A
HETATM    3  O1  UNL     1     -69.858  44.394   2.133  1.00  0.00    -0.265 OA
HETATM    4  N1  UNL     1     -69.144  45.230   0.218  1.00  0.00    -0.198 N
HETATM    5  C6  UNL     1     -68.350  46.070  -0.454  1.00  0.00     0.142 A
HETATM    6  C7  UNL     1     -67.484  46.897   0.226  1.00  0.00     0.035 A
HETATM    7  C8  UNL     1     -66.612  47.850  -0.241  1.00  0.00     0.127 A
HETATM    8  C9  UNL     1     -66.046  48.382   0.883  1.00  0.00     0.104 A
HETATM    9 BR1  UNL     1     -64.736  49.768   0.937  1.00  0.00    -0.029 Br
HETATM   10  N3  UNL     1     -66.561  47.768   1.991  1.00  0.00    -0.348 N
ATOM     11  H3  UNL     1     -66.303  47.985   2.953  1.00  0.00     0.166 HD
HETATM   12  C10 UNL     1     -67.443  46.850   1.630  1.00  0.00     0.058 A
ENDROOT
BRANCH   7  13
HETATM   13  S1  UNL     1     -66.222  48.331  -1.872  1.00  0.00     0.260 S
HETATM   14  O3  UNL     1     -66.986  49.595  -2.257  1.00  0.00    -0.201 OA
HETATM   15  O4  UNL     1     -64.777  48.689  -2.027  1.00  0.00    -0.201 OA
BRANCH  13  16
HETATM   16  N2  UNL     1     -66.634  47.136  -3.028  1.00  0.00    -0.324 N
ATOM     17  H22 UNL     1     -67.356  46.434  -2.866  1.00  0.00     0.169 HD
ATOM     18  H21 UNL     1     -66.080  47.209  -3.882  1.00  0.00     0.169 HD
ENDBRANCH  13  16
ENDBRANCH   7  13
BRANCH   4  19
HETATM   19  O2  UNL     1     -70.017  44.412  -0.494  1.00  0.00    -0.280 OA
ATOM     20  H2  UNL     1     -70.021  44.418  -1.444  1.00  0.00     0.245 HD
ENDBRANCH   4  19
BRANCH   1  21
HETATM   21  C2  UNL     1     -68.307  45.870   3.781  1.00  0.00     0.018 C
HETATM   22  C1  UNL     1     -68.395  47.124   4.592  1.00  0.00     0.015 C
HETATM   23  C3  UNL     1     -67.275  44.987   4.427  1.00  0.00     0.015 C
ENDBRANCH   1  21
TORSDOF 4
ENDMDL