MODEL 3
REMARK VINA RESULT: -5.885470583      2.433      3.489
REMARK  7 active torsions:
REMARK  status: ('A' for Active; 'I' for Inactive)
REMARK    1  A    between atoms: C2_2  and  C5_5
REMARK    2  A    between atoms: C5_5  and  S1_6
REMARK    3  A    between atoms: S1_6  and  O1_7
REMARK    4  A    between atoms: S1_6  and  O2_9
REMARK    5  A    between atoms: S1_6  and  N1_11
REMARK    6  A    between atoms: S1_6  and  C10_24
REMARK    7  A    between atoms: N1_11  and  N2_13
ROOT
HETATM    1  S1  UNL     1     -66.334  46.861   3.798  1.00  0.00     0.004 SA
ENDROOT
BRANCH   1   2
HETATM    2  C5  UNL     1     -66.980  45.765   2.545  1.00  0.00     0.068 C
BRANCH   2   3
HETATM    3  C2  UNL     1     -68.100  46.188   1.570  1.00  0.00    -0.025 C
HETATM    4  C1  UNL     1     -68.774  47.458   1.874  1.00  0.00     0.019 C
HETATM    5  C3  UNL     1     -69.104  45.052   1.633  1.00  0.00     0.019 C
HETATM    6  C4  UNL     1     -67.613  46.216   0.144  1.00  0.00     0.019 C
ENDBRANCH   2   3
ENDBRANCH   1   2
BRANCH   1   7
HETATM    7  O1  UNL     1     -65.990  48.004   2.536  1.00  0.00    -0.318 OA
ATOM      8  H1  UNL     1     -65.185  47.528   2.370  1.00  0.00     0.229 HD
ENDBRANCH   1   7
BRANCH   1   9
HETATM    9  O2  UNL     1     -65.046  45.558   4.290  1.00  0.00    -0.318 OA
ATOM     10  H2  UNL     1     -65.526  45.377   5.090  1.00  0.00     0.229 HD
ENDBRANCH   1   9
BRANCH   1  11
HETATM   11  N1  UNL     1     -67.811  46.893   4.894  1.00  0.00    -0.245 N
ATOM     12  H1  UNL     1     -68.474  47.654   4.746  1.00  0.00     0.198 HD
BRANCH  11  13
HETATM   13  N2  UNL     1     -68.102  46.021   5.863  1.00  0.00    -0.176 N
HETATM   14  C6  UNL     1     -68.360  44.612   5.695  1.00  0.00     0.293 C
HETATM   15  O3  UNL     1     -68.412  43.872   4.679  1.00  0.00    -0.264 OA
HETATM   16  C7  UNL     1     -68.589  44.023   7.016  1.00  0.00     0.101 C
HETATM   17  N3  UNL     1     -68.473  42.829   7.441  1.00  0.00    -0.396 N
HETATM   18  C8  UNL     1     -69.027  45.171   7.886  1.00  0.00     0.231 C
ATOM     19  H32 UNL     1     -68.177  42.051   6.851  1.00  0.00     0.156 HD
ATOM     20  H31 UNL     1     -68.632  42.419   8.361  1.00  0.00     0.156 HD
HETATM   21 CL1  UNL     1     -70.717  45.546   7.672  1.00  0.00    -0.108 Cl
HETATM   22  C9  UNL     1     -68.181  46.238   7.291  1.00  0.00     0.271 C
HETATM   23  O4  UNL     1     -67.650  47.149   7.984  1.00  0.00    -0.269 OA
ENDBRANCH  11  13
ENDBRANCH   1  11
BRANCH   1  24
HETATM   24  C10 UNL     1     -65.440  47.965   4.850  1.00  0.00     0.036 C
HETATM   25  C11 UNL     1     -66.288  49.087   5.502  1.00  0.00     0.030 C
HETATM   26  C12 UNL     1     -64.723  47.426   6.072  1.00  0.00     0.030 C
HETATM   27  C13 UNL     1     -64.272  48.769   4.196  1.00  0.00     0.030 C
ENDBRANCH   1  24
TORSDOF 7
ENDMDL