MODEL 5
REMARK VINA RESULT: -6.238945928      1.820      2.807
REMARK  10 active torsions:
REMARK  status: ('A' for Active; 'I' for Inactive)
REMARK    1  A    between atoms: C2_2  and  N1_3
REMARK    2  A    between atoms: N1_3  and  C3_5
REMARK    3  A    between atoms: C3_5  and  S2_7
REMARK    4  A    between atoms: S2_7  and  C4_8
REMARK    5  A    between atoms: C4_8  and  O1_10
REMARK    6  A    between atoms: C4_8  and  C6_12
REMARK    7  A    between atoms: C7_13  and  C8_14
REMARK    8  A    between atoms: C8_14  and  N2_15
REMARK    9  A    between atoms: N2_15  and  C9_17
REMARK   10  A    between atoms: C9_17  and  N3_19
ROOT
HETATM    1  C6  UNL     1     -66.471  49.254   2.074  1.00  0.00    -0.055 C
HETATM    2  C7  UNL     1     -65.731  49.466   1.144  1.00  0.00    -0.083 C
ENDROOT
BRANCH   1   3
HETATM    3  C4  UNL     1     -67.399  49.012   3.206  1.00  0.00     0.173 C
HETATM    4  C5  UNL     1     -68.361  47.895   2.780  1.00  0.00     0.073 C
BRANCH   3   5
HETATM    5  S2  UNL     1     -66.408  48.550   4.608  1.00  0.00    -0.050 SA
BRANCH   5   6
HETATM    6  C3  UNL     1     -65.219  47.290   4.299  1.00  0.00     0.138 C
HETATM    7  S1  UNL     1     -65.711  45.754   4.148  1.00  0.00    -0.053 SA
BRANCH   6   8
HETATM    8  N1  UNL     1     -63.853  47.621   4.185  1.00  0.00    -0.376 N
ATOM      9  H1  UNL     1     -63.162  46.871   4.220  1.00  0.00     0.160 HD
BRANCH   8  10
HETATM   10  C2  UNL     1     -63.392  48.984   4.021  1.00  0.00     0.116 C
HETATM   11  C1  UNL     1     -62.237  49.274   4.968  1.00  0.00     0.026 C
ENDBRANCH   8  10
ENDBRANCH   6   8
ENDBRANCH   5   6
ENDBRANCH   3   5
BRANCH   3  12
HETATM   12  O1  UNL     1     -68.149  50.158   3.366  1.00  0.00    -0.368 OA
ATOM     13  H1  UNL     1     -68.779  50.331   2.676  1.00  0.00     0.212 HD
ENDBRANCH   3  12
ENDBRANCH   1   3
BRANCH   2  14
HETATM   14  C8  UNL     1     -64.855  49.717   0.000  1.00  0.00     0.216 C
BRANCH  14  15
HETATM   15  N2  UNL     1     -64.835  48.611  -0.939  1.00  0.00    -0.357 N
ATOM     16  H2  UNL     1     -64.219  47.816  -0.768  1.00  0.00     0.162 HD
BRANCH  15  17
HETATM   17  C9  UNL     1     -65.661  48.623  -2.089  1.00  0.00     0.170 C
HETATM   18  S3  UNL     1     -67.285  48.759  -1.908  1.00  0.00    -0.041 SA
BRANCH  17  19
HETATM   19  N3  UNL     1     -65.054  48.517  -3.364  1.00  0.00    -0.354 N
HETATM   20  C10 UNL     1     -64.994  47.184  -3.954  1.00  0.00     0.151 C
HETATM   21  C11 UNL     1     -64.215  47.145  -5.229  1.00  0.00     0.187 C
HETATM   22  O2  UNL     1     -63.181  48.060  -5.149  1.00  0.00    -0.388 OA
HETATM   23  C12 UNL     1     -63.640  49.374  -5.178  1.00  0.00     0.187 C
HETATM   24  C13 UNL     1     -64.534  49.688  -4.003  1.00  0.00     0.151 C
ENDBRANCH  17  19
ENDBRANCH  15  17
ENDBRANCH  14  15
ENDBRANCH   2  14
TORSDOF 10
ENDMDL