MODEL 3
REMARK VINA RESULT: -7.138032340      2.838      4.983
REMARK  6 active torsions:
REMARK  status: ('A' for Active; 'I' for Inactive)
REMARK    1  A    between atoms: C2_2  and  N1_3
REMARK    2  A    between atoms: N1_3  and  C3_5
REMARK    3  A    between atoms: N3_9  and  C5_11
REMARK    4  A    between atoms: C5_11  and  N4_13
REMARK    5  A    between atoms: N8_25  and  C10_26
REMARK    6  A    between atoms: C10_26  and  C12_28
ROOT
HETATM    1  C3  UNL     1     -62.032  49.698   4.035  1.00  0.00     0.147 A
HETATM    2  N2  UNL     1     -62.392  49.906   2.758  1.00  0.00    -0.174 N
ATOM      3  H2  UNL     1     -61.770  50.416   2.131  1.00  0.00     0.186 HD
HETATM    4  C4  UNL     1     -63.583  49.438   2.298  1.00  0.00     0.687 A
HETATM    5  N3  UNL     1     -63.906  49.647   1.077  1.00  0.00    -0.165 N
ATOM      6  H3  UNL     1     -63.250  50.162   0.490  1.00  0.00     0.186 HD
HETATM    7  N5  UNL     1     -64.395  48.766   3.133  1.00  0.00    -0.174 N
ATOM      8  H5  UNL     1     -65.287  48.417   2.782  1.00  0.00     0.186 HD
HETATM    9  C6  UNL     1     -64.060  48.538   4.436  1.00  0.00     0.156 A
HETATM   10  C7  UNL     1     -62.866  49.012   4.880  1.00  0.00     0.124 A
HETATM   11  N6  UNL     1     -62.756  48.676   6.158  1.00  0.00    -0.327 N
ATOM     12  H6  UNL     1     -61.970  48.889   6.772  1.00  0.00     0.168 HD
HETATM   13  C8  UNL     1     -63.887  47.993   6.499  1.00  0.00     0.193 A
HETATM   14  C9  UNL     1     -64.106  47.473   7.829  1.00  0.00     0.137 C
HETATM   15  N7  UNL     1     -64.294  47.047   8.889  1.00  0.00    -0.188 NA
HETATM   16  N8  UNL     1     -64.702  47.904   5.431  1.00  0.00    -0.303 N
ENDROOT
BRANCH  16  17
HETATM   17  C10 UNL     1     -65.985  47.267   5.364  1.00  0.00     0.089 C
HETATM   18  C11 UNL     1     -67.068  48.283   5.147  1.00  0.00     0.033 C
BRANCH  17  19
HETATM   19  C12 UNL     1     -66.032  46.152   4.344  1.00  0.00     0.021 C
HETATM   20  C13 UNL     1     -67.269  45.314   4.475  1.00  0.00     0.007 C
ENDBRANCH  17  19
ENDBRANCH  16  17
BRANCH   1  21
HETATM   21  N1  UNL     1     -60.922  50.138   4.452  1.00  0.00    -0.374 N
ATOM     22  H1  UNL     1     -60.665  49.880   5.404  1.00  0.00     0.161 HD
BRANCH  21  23
HETATM   23  C2  UNL     1     -59.986  50.956   3.743  1.00  0.00     0.116 C
HETATM   24  C1  UNL     1     -59.764  52.212   4.592  1.00  0.00     0.026 C
ENDBRANCH  21  23
ENDBRANCH   1  21
BRANCH   5  25
HETATM   25  C5  UNL     1     -65.114  49.209   0.490  1.00  0.00     0.201 C
HETATM   26  S1  UNL     1     -65.112  48.779  -1.081  1.00  0.00    -0.039 SA
BRANCH  25  27
HETATM   27  N4  UNL     1     -66.324  49.131   1.225  1.00  0.00    -0.275 N
HETATM   28 CL1  UNL     1     -67.296  47.696   1.165  1.00  0.00     0.013 Cl
ATOM     29  H4  UNL     1     -66.624  49.924   1.793  1.00  0.00     0.183 HD
ENDBRANCH  25  27
ENDBRANCH   5  25
TORSDOF 6
ENDMDL