MODEL 5
REMARK VINA RESULT: -9.692229081      1.835      7.881
REMARK  4 active torsions:
REMARK  status: ('A' for Active; 'I' for Inactive)
REMARK    1  A    between atoms: O1_2  and  C2_3
REMARK    2  A    between atoms: C3_6  and  N2_7
REMARK    3  A    between atoms: N2_7  and  C4_9
REMARK    4  A    between atoms: C4_9  and  C5_10
ROOT
HETATM    1  C5  UNL     1     -67.371  47.637   0.580  1.00  0.00    -0.039 A
HETATM    2  C6  UNL     1     -67.836  46.575  -0.159  1.00  0.00     0.018 A
HETATM    3  C7  UNL     1     -67.374  46.397  -1.453  1.00  0.00    -0.034 A
HETATM    4  C8  UNL     1     -67.838  45.268  -2.304  1.00  0.00     0.050 C
HETATM    5  C9  UNL     1     -66.455  47.274  -1.997  1.00  0.00     0.058 A
HETATM    6  N3  UNL     1     -65.982  47.137  -3.247  1.00  0.00    -0.307 N
ATOM      7  H3  UNL     1     -66.318  46.354  -3.808  1.00  0.00     0.170 HD
HETATM    8  C10 UNL     1     -65.089  47.979  -3.794  1.00  0.00     0.327 A
HETATM    9  O2  UNL     1     -64.656  47.825  -4.983  1.00  0.00    -0.247 OA
HETATM   10  N4  UNL     1     -64.625  49.023  -3.084  1.00  0.00    -0.275 N
ATOM     11  H4  UNL     1     -63.947  49.667  -3.492  1.00  0.00     0.173 HD
HETATM   12  C11 UNL     1     -65.069  49.203  -1.824  1.00  0.00     0.261 A
HETATM   13  O3  UNL     1     -64.668  50.170  -1.100  1.00  0.00    -0.267 OA
HETATM   14  C12 UNL     1     -65.984  48.348  -1.252  1.00  0.00     0.060 A
HETATM   15  C13 UNL     1     -66.453  48.513   0.036  1.00  0.00     0.028 A
ENDROOT
BRANCH   1  16
HETATM   16  C4  UNL     1     -67.867  47.828   1.968  1.00  0.00     0.160 C
BRANCH  16  17
HETATM   17  N2  UNL     1     -67.063  48.844   2.619  1.00  0.00    -0.370 N
ATOM     18  H2  UNL     1     -67.050  49.795   2.250  1.00  0.00     0.161 HD
BRANCH  17  19
HETATM   19  C3  UNL     1     -66.366  48.549   3.663  1.00  0.00     0.128 A
HETATM   20  N1  UNL     1     -66.964  47.942   4.717  1.00  0.00    -0.307 N
HETATM   21  C2  UNL     1     -66.288  47.611   5.827  1.00  0.00     0.225 A
ATOM     22  H1  UNL     1     -67.960  47.729   4.664  1.00  0.00     0.171 HD
HETATM   23  N5  UNL     1     -64.968  47.901   5.877  1.00  0.00    -0.324 N
HETATM   24  C15 UNL     1     -64.326  48.500   4.868  1.00  0.00     0.034 A
ATOM     25  H5  UNL     1     -64.443  47.655   6.715  1.00  0.00     0.169 HD
HETATM   26  C14 UNL     1     -65.014  48.842   3.723  1.00  0.00     0.100 A
HETATM   27  C16 UNL     1     -62.877  48.815   4.930  1.00  0.00     0.070 C
HETATM   28 CL1  UNL     1     -64.238  49.628   2.360  1.00  0.00    -0.078 Cl
BRANCH  21  29
HETATM   29  O1  UNL     1     -66.939  46.991   6.884  1.00  0.00    -0.327 OA
HETATM   30  C1  UNL     1     -68.064  46.172   6.627  1.00  0.00     0.213 C
ENDBRANCH  21  29
ENDBRANCH  17  19
ENDBRANCH  16  17
ENDBRANCH   1  16
TORSDOF 4
ENDMDL