MODEL 2
REMARK VINA RESULT: -7.382608773      2.972      3.849
REMARK  7 active torsions:
REMARK  status: ('A' for Active; 'I' for Inactive)
REMARK    1  A    between atoms: C2_2  and  C3_3
REMARK    2  A    between atoms: C7_10  and  N2_11
REMARK    3  A    between atoms: N2_11  and  N3_13
REMARK    4  A    between atoms: N3_13  and  C8_15
REMARK    5  A    between atoms: C8_15  and  N4_17
REMARK    6  A    between atoms: N5_20  and  C10_21
REMARK    7  A    between atoms: N6_23  and  C12_24
ROOT
HETATM    1  C3  UNL     1     -67.274  47.710   1.525  1.00  0.00     0.034 A
HETATM    2  C4  UNL     1     -66.542  47.695   2.700  1.00  0.00     0.077 A
HETATM    3 CL1  UNL     1     -67.167  46.857   4.108  1.00  0.00    -0.081 Cl
HETATM    4  C5  UNL     1     -65.319  48.353   2.784  1.00  0.00     0.119 A
HETATM    5  C6  UNL     1     -64.912  49.008   1.613  1.00  0.00     0.155 A
HETATM    6  N1  UNL     1     -63.726  49.566   1.939  1.00  0.00    -0.172 N
ATOM      7  H1  UNL     1     -63.151  50.123   1.309  1.00  0.00     0.186 HD
HETATM    8  C7  UNL     1     -63.419  49.284   3.199  1.00  0.00     0.701 A
HETATM    9  N5  UNL     1     -64.398  48.531   3.734  1.00  0.00    -0.177 N
HETATM   10  N6  UNL     1     -65.631  49.018   0.475  1.00  0.00    -0.298 N
HETATM   11  C14 UNL     1     -66.808  48.375   0.421  1.00  0.00     0.257 A
HETATM   12  O1  UNL     1     -67.530  48.345  -0.617  1.00  0.00    -0.267 OA
ENDROOT
BRANCH   8  13
HETATM   13  N2  UNL     1     -62.375  49.650   3.828  1.00  0.00    -0.130 N
ATOM     14  H2  UNL     1     -62.333  49.509   4.837  1.00  0.00     0.205 HD
BRANCH  13  15
HETATM   15  N3  UNL     1     -61.292  50.232   3.188  1.00  0.00    -0.262 N
ATOM     16  H3  UNL     1     -61.179  50.137   2.179  1.00  0.00     0.190 HD
BRANCH  15  17
HETATM   17  C8  UNL     1     -60.348  50.956   3.944  1.00  0.00     0.186 C
HETATM   18  S1  UNL     1     -60.567  51.147   5.547  1.00  0.00    -0.040 SA
BRANCH  17  19
HETATM   19  N4  UNL     1     -59.212  51.512   3.301  1.00  0.00    -0.370 N
HETATM   20  C9  UNL     1     -59.092  52.949   3.214  1.00  0.00     0.148 C
ATOM     21  H4  UNL     1     -58.492  50.906   2.906  1.00  0.00     0.161 HD
ENDBRANCH  17  19
ENDBRANCH  15  17
ENDBRANCH  13  15
ENDBRANCH   8  13
BRANCH   9  22
HETATM   22  C10 UNL     1     -64.441  47.979   5.070  1.00  0.00     0.143 C
HETATM   23  C11 UNL     1     -64.972  48.886   6.116  1.00  0.00     0.027 C
ENDBRANCH   9  22
BRANCH  10  24
HETATM   24  C12 UNL     1     -65.135  49.722  -0.689  1.00  0.00     0.129 C
HETATM   25  C13 UNL     1     -64.896  48.808  -1.864  1.00  0.00     0.027 C
ENDBRANCH  10  24
BRANCH   1  26
HETATM   26  C2  UNL     1     -68.572  46.983   1.533  1.00  0.00     0.041 C
HETATM   27  C1  UNL     1     -68.303  45.566   1.079  1.00  0.00     0.010 C
ENDBRANCH   1  26
TORSDOF 7
ENDMDL