MODEL 4
REMARK VINA RESULT: -7.132702457      1.287      2.511
REMARK  5 active torsions:
REMARK  status: ('A' for Active; 'I' for Inactive)
REMARK    1  A    between atoms: C2_2  and  C4_5
REMARK    2  A    between atoms: C4_5  and  C5_6
REMARK    3  A    between atoms: C5_6  and  O1_7
REMARK    4  A    between atoms: N1_12  and  C9_13
REMARK    5  A    between atoms: C11_19  and  N4_20
ROOT
HETATM    1  C9  UNL     1     -67.932  46.437   0.178  1.00  0.00     0.129 A
HETATM    2  N2  UNL     1     -68.884  45.814   0.944  1.00  0.00    -0.337 N
ATOM      3  H2  UNL     1     -68.971  46.051   1.932  1.00  0.00     0.168 HD
HETATM    4  C10 UNL     1     -69.702  44.897   0.411  1.00  0.00     0.183 A
HETATM    5  N3  UNL     1     -69.614  44.565  -0.875  1.00  0.00    -0.338 N
ATOM      6  H3  UNL     1     -70.250  43.863  -1.253  1.00  0.00     0.168 HD
HETATM    7  C11 UNL     1     -68.710  45.133  -1.686  1.00  0.00     0.124 A
HETATM    8  C12 UNL     1     -67.853  46.092  -1.131  1.00  0.00     0.132 A
HETATM    9  C13 UNL     1     -66.913  46.686  -1.997  1.00  0.00     0.107 C
HETATM   10  N5  UNL     1     -66.148  47.168  -2.732  1.00  0.00    -0.191 NA
ENDROOT
BRANCH   1  11
HETATM   11  N1  UNL     1     -67.080  47.411   0.775  1.00  0.00    -0.365 N
HETATM   12  C8  UNL     1     -66.880  48.602  -0.011  1.00  0.00     0.124 C
HETATM   13  C7  UNL     1     -65.760  49.473   0.351  1.00  0.00     0.021 C
HETATM   14  C6  UNL     1     -65.121  49.239   1.684  1.00  0.00     0.016 C
HETATM   15  C4  UNL     1     -66.028  48.542   2.662  1.00  0.00     0.014 C
HETATM   16  C14 UNL     1     -66.443  47.250   2.034  1.00  0.00     0.137 C
BRANCH  15  17
HETATM   17  C2  UNL     1     -65.287  48.287   3.965  1.00  0.00     0.022 C
HETATM   18  C1  UNL     1     -63.800  48.422   3.849  1.00  0.00     0.028 C
HETATM   19  C3  UNL     1     -65.759  49.111   5.108  1.00  0.00     0.028 C
HETATM   20 BR1  UNL     1     -65.588  46.419   4.505  1.00  0.00    -0.085 Br
ENDBRANCH  15  17
BRANCH  15  21
HETATM   21  C5  UNL     1     -67.159  49.475   2.979  1.00  0.00     0.176 C
BRANCH  21  22
HETATM   22  O1  UNL     1     -68.365  48.847   3.268  1.00  0.00    -0.400 OA
ATOM     23  H1  UNL     1     -68.695  48.284   2.577  1.00  0.00     0.209 HD
ENDBRANCH  21  22
ENDBRANCH  15  21
ENDBRANCH   1  11
BRANCH   7  24
HETATM   24  N4  UNL     1     -68.601  44.835  -2.929  1.00  0.00    -0.384 N
ATOM     25  H42 UNL     1     -69.409  44.457  -3.426  1.00  0.00     0.157 HD
ATOM     26  H41 UNL     1     -67.737  44.959  -3.457  1.00  0.00     0.157 HD
ENDBRANCH   7  24
TORSDOF 5
ENDMDL