MODEL 1
REMARK VINA RESULT: -6.772889624      0.000      0.000
REMARK  6 active torsions:
REMARK  status: ('A' for Active; 'I' for Inactive)
REMARK    1  A    between atoms: C2_2  and  C3_3
REMARK    2  A    between atoms: C2_2  and  S1_5
REMARK    3  A    between atoms: S1_5  and  C4_8
REMARK    4  A    between atoms: C4_8  and  C5_9
REMARK    5  A    between atoms: C10_17  and  O3_18
REMARK    6  A    between atoms: C14_24  and  O5_25
ROOT
HETATM    1  C5  UNL     1     -65.135  48.612   1.889  1.00  0.00     0.057 C
HETATM    2  C6  UNL     1     -64.079  49.600   2.297  1.00  0.00     0.240 C
HETATM    3  N1  UNL     1     -63.030  48.829   2.953  1.00  0.00    -0.072 N
ATOM      4  H11 UNL     1     -62.172  49.374   3.041  1.00  0.00     0.277 HD
ATOM      5  H12 UNL     1     -62.685  48.083   2.347  1.00  0.00     0.277 HD
HETATM    6  C7  UNL     1     -63.454  48.312   4.225  1.00  0.00     0.273 C
HETATM    7  C8  UNL     1     -64.949  48.293   4.395  1.00  0.00     0.114 C
HETATM    8  C9  UNL     1     -65.239  47.136   5.368  1.00  0.00     0.077 C
HETATM    9  C10 UNL     1     -64.670  47.774   6.644  1.00  0.00     0.155 C
HETATM   10  C11 UNL     1     -65.180  49.195   6.443  1.00  0.00     0.081 C
HETATM   11  C12 UNL     1     -66.484  49.274   7.249  1.00  0.00     0.048 C
HETATM   12  C13 UNL     1     -64.248  50.212   7.051  1.00  0.00     0.048 C
HETATM   13  O4  UNL     1     -65.409  49.368   5.108  1.00  0.00    -0.363 OA
HETATM   14  C14 UNL     1     -65.703  48.001   3.152  1.00  0.00     0.161 C
ENDROOT
BRANCH   1  15
HETATM   15  C4  UNL     1     -66.195  49.119   0.984  1.00  0.00     0.149 C
BRANCH  15  16
HETATM   16  S1  UNL     1     -66.075  48.601  -0.679  1.00  0.00     0.149 S
HETATM   17  O1  UNL     1     -66.802  49.556  -1.616  1.00  0.00    -0.227 OA
HETATM   18  O2  UNL     1     -64.653  48.491  -1.124  1.00  0.00    -0.227 OA
BRANCH  16  19
HETATM   19  C2  UNL     1     -66.871  47.022  -0.943  1.00  0.00     0.118 C
HETATM   20  C1  UNL     1     -66.993  46.737  -2.425  1.00  0.00     0.027 C
BRANCH  19  21
HETATM   21  C3  UNL     1     -68.228  46.975  -0.305  1.00  0.00     0.134 C
HETATM   22 CL1  UNL     1     -68.270  45.558   0.769  1.00  0.00    -0.129 Cl
ENDBRANCH  19  21
ENDBRANCH  16  19
ENDBRANCH  15  16
ENDBRANCH   1  15
BRANCH  14  23
HETATM   23  O5  UNL     1     -65.882  46.640   2.910  1.00  0.00    -0.392 OA
ATOM     24  H5  UNL     1     -66.202  46.249   3.715  1.00  0.00     0.210 HD
ENDBRANCH  14  23
BRANCH   9  25
HETATM   25  O3  UNL     1     -65.227  47.195   7.778  1.00  0.00    -0.392 OA
ATOM     26  H3  UNL     1     -65.329  47.837   8.470  1.00  0.00     0.210 HD
ENDBRANCH   9  25
TORSDOF 6
ENDMDL