MODEL 3
REMARK VINA RESULT: -6.007644114      1.796      2.473
REMARK  6 active torsions:
REMARK  status: ('A' for Active; 'I' for Inactive)
REMARK    1  A    between atoms: C2_2  and  C3_3
REMARK    2  A    between atoms: C4_6  and  N2_7
REMARK    3  A    between atoms: N2_7  and  C5_9
REMARK    4  A    between atoms: C5_9  and  C6_10
REMARK    5  A    between atoms: C6_10  and  N3_11
REMARK    6  A    between atoms: C8_18  and  N7_19
ROOT
HETATM    1  C3  UNL     1      37.073  67.844  85.495  1.00  0.00     0.047 A
HETATM    2  N1  UNL     1      37.334  66.591  85.864  1.00  0.00    -0.194 N
ATOM      3  H1  UNL     1      38.150  66.131  85.459  1.00  0.00     0.184 HD
HETATM    4  C4  UNL     1      36.575  65.887  86.754  1.00  0.00     0.680 A
HETATM    5  N6  UNL     1      35.507  66.503  87.283  1.00  0.00    -0.176 N
ATOM      6  H6  UNL     1      34.931  65.992  87.951  1.00  0.00     0.186 HD
HETATM    7  C8  UNL     1      35.165  67.756  86.974  1.00  0.00     0.134 A
HETATM    8  C9  UNL     1      35.959  68.432  86.069  1.00  0.00     0.078 A
HETATM    9 BR1  UNL     1      35.515  70.242  85.572  1.00  0.00    -0.045 Br
ENDROOT
BRANCH   4  10
HETATM   10  N2  UNL     1      36.871  64.698  87.039  1.00  0.00    -0.221 N
ATOM     11  H2  UNL     1      37.402  64.598  87.905  1.00  0.00     0.178 HD
BRANCH  10  12
HETATM   12  C5  UNL     1      36.606  63.474  86.384  1.00  0.00     0.182 C
BRANCH  12  13
HETATM   13  C6  UNL     1      37.524  63.181  85.200  1.00  0.00     0.083 C
BRANCH  13  14
HETATM   14  N3  UNL     1      36.897  62.959  83.989  1.00  0.00    -0.345 N
HETATM   15  C7  UNL     1      36.220  63.628  83.214  1.00  0.00     0.200 C
HETATM   16  N4  UNL     1      35.864  64.998  83.425  1.00  0.00    -0.067 NA
HETATM   17  N5  UNL     1      35.755  63.000  81.996  1.00  0.00    -0.067 NA
ATOM     18  H3  UNL     1      37.029  62.005  83.656  1.00  0.00     0.167 HD
ENDBRANCH  13  14
ENDBRANCH  12  13
ENDBRANCH  10  12
ENDBRANCH   4  10
BRANCH   1  19
HETATM   19  C2  UNL     1      37.885  68.608  84.530  1.00  0.00     0.055 C
HETATM   20  C1  UNL     1      38.667  67.715  83.598  1.00  0.00     0.011 C
ENDBRANCH   1  19
BRANCH   7  21
HETATM   21  N7  UNL     1      34.121  68.317  87.524  1.00  0.00    -0.384 N
ATOM     22  H72 UNL     1      33.509  67.804  88.157  1.00  0.00     0.157 HD
ATOM     23  H71 UNL     1      33.886  69.289  87.323  1.00  0.00     0.157 HD
ENDBRANCH   7  21
TORSDOF 6
ENDMDL