MODEL 3
REMARK VINA RESULT: -6.535622819      5.257      7.709
REMARK  6 active torsions:
REMARK  status: ('A' for Active; 'I' for Inactive)
REMARK    1  A    between atoms: C3_3  and  N1_4
REMARK    2  A    between atoms: N1_4  and  C6_7
REMARK    3  A    between atoms: C6_7  and  C7_8
REMARK    4  A    between atoms: C7_8  and  N2_9
REMARK    5  A    between atoms: N2_9  and  C8_11
REMARK    6  A    between atoms: C10_18  and  N5_19
REMARK       I    between atoms: N5_19  and  C11_21
ROOT
HETATM    1  C1  UNL     1      45.086  69.572  86.771  1.00  0.00     0.013 C
HETATM    2  C2  UNL     1      43.895  69.523  86.881  1.00  0.00    -0.089 C
HETATM    3  C3  UNL     1      42.443  69.466  87.040  1.00  0.00     0.329 C
ENDROOT
BRANCH   3   4
HETATM    4  N1  UNL     1      41.776  69.105  85.802  1.00  0.00    -0.063 N
HETATM    5  C4  UNL     1      42.148  67.747  85.449  1.00  0.00     0.273 C
HETATM    6  C5  UNL     1      42.207  69.965  84.705  1.00  0.00     0.273 C
BRANCH   4   7
HETATM    7  C6  UNL     1      40.359  69.133  86.003  1.00  0.00     0.257 C
BRANCH   7   8
HETATM    8  C7  UNL     1      39.646  67.968  85.362  1.00  0.00     0.166 C
BRANCH   8   9
HETATM    9  N2  UNL     1      38.331  68.371  84.958  1.00  0.00    -0.224 N
ATOM     10  H2  UNL     1      38.240  68.885  84.082  1.00  0.00     0.177 HD
BRANCH   9  11
HETATM   11  C8  UNL     1      37.258  68.130  85.623  1.00  0.00     0.695 A
HETATM   12  N3  UNL     1      36.397  69.093  86.011  1.00  0.00    -0.165 N
HETATM   13  C9  UNL     1      35.291  68.829  86.699  1.00  0.00     0.208 A
ATOM     14  H3  UNL     1      36.603  70.062  85.768  1.00  0.00     0.186 HD
HETATM   15 CL1  UNL     1      34.146  70.045  87.223  1.00  0.00    -0.044 Cl
HETATM   16  N4  UNL     1      35.041  67.541  87.009  1.00  0.00    -0.164 N
HETATM   17  C10 UNL     1      35.879  66.563  86.637  1.00  0.00     0.701 A
ATOM     18  H4  UNL     1      34.201  67.306  87.537  1.00  0.00     0.186 HD
HETATM   19  N8  UNL     1      37.005  66.849  85.935  1.00  0.00    -0.022 N
ATOM     20  H8  UNL     1      37.645  66.107  85.650  1.00  0.00     0.203 HD
BRANCH  17  21
HETATM   21  N5  UNL     1      35.683  65.322  86.910  1.00  0.00    -0.163 N
HETATM   22  C11 UNL     1      36.284  64.315  86.141  1.00  0.00     0.200 C
HETATM   23  N6  UNL     1      37.263  63.640  86.678  1.00  0.00    -0.373 N
HETATM   24  N7  UNL     1      35.848  64.033  84.826  1.00  0.00    -0.063 NA
ATOM     25  H62 UNL     1      37.577  63.843  87.628  1.00  0.00     0.158 HD
ATOM     26  H61 UNL     1      37.699  62.906  86.119  1.00  0.00     0.158 HD
ATOM     27  H5  UNL     1      35.084  65.067  87.695  1.00  0.00     0.187 HD
ENDBRANCH  17  21
ENDBRANCH   9  11
ENDBRANCH   8   9
ENDBRANCH   7   8
ENDBRANCH   4   7
ENDBRANCH   3   4
TORSDOF 6
ENDMDL