MODEL 4
REMARK VINA RESULT: -5.698266775      4.653      5.908
REMARK  8 active torsions:
REMARK  status: ('A' for Active; 'I' for Inactive)
REMARK    1  A    between atoms: N1_2  and  C3_4
REMARK    2  A    between atoms: C3_4  and  C4_5
REMARK    3  A    between atoms: C4_5  and  N2_6
REMARK       I    between atoms: N2_6  and  C5_8
REMARK       I    between atoms: C5_8  and  N4_12
REMARK    4  A    between atoms: N4_12  and  N5_14
REMARK    5  A    between atoms: N5_14  and  C6_16
REMARK    6  A    between atoms: C6_16  and  N6_18
REMARK    7  A    between atoms: N6_18  and  N7_20
REMARK       I    between atoms: N7_20  and  C7_22
REMARK    8  A    between atoms: C7_22  and  C8_24
ROOT
HETATM    1  N2  UNL     1      42.387  70.466  81.925  1.00  0.00    -0.221 N
ATOM      2  H2  UNL     1      41.907  70.627  81.040  1.00  0.00     0.178 HD
HETATM    3  C5  UNL     1      42.102  71.305  83.019  1.00  0.00     0.686 C
HETATM    4  N3  UNL     1      41.246  72.250  82.900  1.00  0.00    -0.234 N
ATOM      5  H31 UNL     1      41.039  72.858  83.692  1.00  0.00     0.174 HD
ATOM      6  H32 UNL     1      40.777  72.386  82.004  1.00  0.00     0.174 HD
HETATM    7  N4  UNL     1      42.750  71.116  84.258  1.00  0.00    -0.131 N
ATOM      8  H4  UNL     1      42.160  70.923  85.067  1.00  0.00     0.205 HD
ENDROOT
BRANCH   7   9
HETATM    9  N5  UNL     1      44.122  71.170  84.474  1.00  0.00    -0.261 N
ATOM     10  H5  UNL     1      44.763  71.241  83.684  1.00  0.00     0.190 HD
BRANCH   9  11
HETATM   11  C6  UNL     1      44.628  71.125  85.800  1.00  0.00     0.205 C
HETATM   12  S1  UNL     1      45.152  69.699  86.416  1.00  0.00    -0.038 SA
BRANCH  11  13
HETATM   13  N6  UNL     1      44.698  72.268  86.630  1.00  0.00    -0.272 N
ATOM     14  H6  UNL     1      45.183  73.102  86.299  1.00  0.00     0.189 HD
BRANCH  13  15
HETATM   15  N7  UNL     1      44.119  72.271  87.882  1.00  0.00    -0.267 N
HETATM   16  C7  UNL     1      44.072  73.442  88.662  1.00  0.00     0.249 C
HETATM   17  O1  UNL     1      44.543  74.539  88.278  1.00  0.00    -0.271 OA
ATOM     18  H7  UNL     1      43.718  71.408  88.249  1.00  0.00     0.190 HD
BRANCH  16  19
HETATM   19  C8  UNL     1      43.436  73.413  90.026  1.00  0.00     0.219 C
HETATM   20 CL1  UNL     1      44.221  72.243  91.077  1.00  0.00    -0.121 Cl
ENDBRANCH  16  19
ENDBRANCH  13  15
ENDBRANCH  11  13
ENDBRANCH   9  11
ENDBRANCH   7   9
BRANCH   1  21
HETATM   21  C4  UNL     1      43.358  69.366  82.021  1.00  0.00     0.182 C
BRANCH  21  22
HETATM   22  C3  UNL     1      44.657  69.796  81.375  1.00  0.00     0.077 C
BRANCH  22  23
HETATM   23  N1  UNL     1      44.798  69.378  80.037  1.00  0.00    -0.400 N
HETATM   24  C1  UNL     1      44.529  68.032  79.712  1.00  0.00     0.148 C
HETATM   25  C2  UNL     1      45.645  70.114  79.179  1.00  0.00     0.148 C
ENDBRANCH  22  23
ENDBRANCH  21  22
ENDBRANCH   1  21
TORSDOF 8
ENDMDL