MODEL 2
REMARK VINA RESULT: -6.276401359      6.246      8.369
REMARK  4 active torsions:
REMARK  status: ('A' for Active; 'I' for Inactive)
REMARK    1  A    between atoms: C2_2  and  C6_8
REMARK    2  A    between atoms: N1_3  and  C3_5
REMARK    3  A    between atoms: C8_15  and  N4_16
REMARK    4  A    between atoms: C8_15  and  C10_20
REMARK       I    between atoms: N4_16  and  C9_17
ROOT
HETATM    1  C6  UNL     1      44.810  72.027  89.006  1.00  0.00     0.201 C
HETATM    2  N2  UNL     1      44.335  71.770  90.324  1.00  0.00    -0.352 N
ATOM      3  H2  UNL     1      43.663  71.067  90.633  1.00  0.00     0.162 HD
HETATM    4  C7  UNL     1      45.046  72.758  91.117  1.00  0.00     0.171 C
HETATM    5  S1  UNL     1      45.237  72.795  92.735  1.00  0.00    -0.041 SA
HETATM    6  N3  UNL     1      45.588  73.752  90.226  1.00  0.00    -0.320 N
ATOM      7  H3  UNL     1      46.345  74.416  90.389  1.00  0.00     0.166 HD
HETATM    8  C8  UNL     1      44.748  73.559  88.995  1.00  0.00     0.275 C
ENDROOT
BRANCH   1   9
HETATM    9  C2  UNL     1      44.218  71.347  87.891  1.00  0.00     0.007 C
HETATM   10  C1  UNL     1      42.918  70.647  88.016  1.00  0.00     0.065 C
HETATM   11  N1  UNL     1      44.798  71.302  86.764  1.00  0.00    -0.391 N
ATOM     12  H1  UNL     1      45.693  71.786  86.687  1.00  0.00     0.159 HD
BRANCH  11  13
HETATM   13  C3  UNL     1      44.326  70.648  85.606  1.00  0.00     0.073 C
HETATM   14  C4  UNL     1      44.921  69.305  85.348  1.00  0.00     0.031 C
HETATM   15  C5  UNL     1      44.619  71.525  84.381  1.00  0.00     0.031 C
ENDBRANCH  11  13
ENDBRANCH   1   9
BRANCH   8  16
HETATM   16  N4  UNL     1      45.241  74.113  87.889  1.00  0.00    -0.375 NA
HETATM   17  C9  UNL     1      45.672  74.619  86.914  1.00  0.00     0.273 C
HETATM   18  N5  UNL     1      46.377  73.860  85.882  1.00  0.00    -0.053 NA
HETATM   19  N6  UNL     1      45.576  76.017  86.595  1.00  0.00    -0.053 NA
ENDBRANCH   8  16
BRANCH   8  20
HETATM   20  C10 UNL     1      43.401  74.047  89.412  1.00  0.00     0.296 C
HETATM   21  N7  UNL     1      43.215  75.104  90.309  1.00  0.00    -0.057 NA
HETATM   22  O1  UNL     1      42.380  73.498  88.953  1.00  0.00    -0.271 OA
ENDBRANCH   8  20
TORSDOF 4
ENDMDL