MODEL 3
REMARK VINA RESULT: -6.604940187      3.281      6.631
REMARK  5 active torsions:
REMARK  status: ('A' for Active; 'I' for Inactive)
REMARK       I    between atoms: C2_5  and  N3_6
REMARK       I    between atoms: C2_5  and  N4_11
REMARK    1  A    between atoms: N3_6  and  C3_8
REMARK    2  A    between atoms: C3_8  and  C4_9
REMARK    3  A    between atoms: N4_11  and  C5_13
REMARK    4  A    between atoms: C5_13  and  C6_14
REMARK    5  A    between atoms: C13_23  and  O1_24
ROOT
HETATM    1  N1  UNL     1      43.355  66.901  85.702  1.00  0.00    -0.171 NA
HETATM    2  C1  UNL     1      43.447  67.974  86.146  1.00  0.00     0.196 C
HETATM    3  N2  UNL     1      43.563  69.203  86.691  1.00  0.00    -0.126 N
ATOM      4  H2  UNL     1      43.858  69.199  87.668  1.00  0.00     0.197 HD
HETATM    5  C2  UNL     1      43.377  70.344  86.220  1.00  0.00     0.682 C
HETATM    6  N3  UNL     1      42.975  70.727  84.915  1.00  0.00    -0.225 N
ATOM      7  H3  UNL     1      42.500  71.626  84.826  1.00  0.00     0.177 HD
HETATM    8  N4  UNL     1      43.584  71.427  87.165  1.00  0.00    -0.225 N
ATOM      9  H4  UNL     1      43.895  72.346  86.850  1.00  0.00     0.177 HD
ENDROOT
BRANCH   6  10
HETATM   10  C3  UNL     1      43.168  69.986  83.723  1.00  0.00     0.153 C
BRANCH  10  11
HETATM   11  C4  UNL     1      44.553  69.955  83.159  1.00  0.00     0.135 C
HETATM   12 CL1  UNL     1      44.495  69.902  81.363  1.00  0.00    -0.129 Cl
ENDBRANCH  10  11
ENDBRANCH   6  10
BRANCH   8  13
HETATM   13  C5  UNL     1      43.342  71.173  88.532  1.00  0.00     0.150 C
BRANCH  13  14
HETATM   14  C6  UNL     1      43.826  72.207  89.476  1.00  0.00     0.010 C
HETATM   15  C7  UNL     1      44.146  71.718  90.869  1.00  0.00     0.039 C
HETATM   16  C8  UNL     1      45.057  72.881  91.299  1.00  0.00     0.078 C
HETATM   17  C9  UNL     1      46.058  72.809  90.135  1.00  0.00     0.030 C
HETATM   18  N5  UNL     1      44.341  74.118  91.295  1.00  0.00    -0.410 N
HETATM   19  C10 UNL     1      45.073  72.920  88.985  1.00  0.00     0.002 C
HETATM   20  C11 UNL     1      44.702  74.399  88.913  1.00  0.00     0.033 C
HETATM   21  C12 UNL     1      43.696  74.453  90.062  1.00  0.00     0.106 C
HETATM   22  C13 UNL     1      42.783  73.303  89.664  1.00  0.00     0.151 C
ATOM     23  H5  UNL     1      44.294  74.722  92.116  1.00  0.00     0.154 HD
BRANCH  22  24
HETATM   24  O1  UNL     1      42.038  73.548  88.541  1.00  0.00    -0.393 OA
ATOM     25  H1  UNL     1      41.703  72.761  88.128  1.00  0.00     0.210 HD
ENDBRANCH  22  24
ENDBRANCH  13  14
ENDBRANCH   8  13
TORSDOF 5
ENDMDL