MODEL 2
REMARK VINA RESULT: -4.760987584      6.959      9.054
REMARK  10 active torsions:
REMARK  status: ('A' for Active; 'I' for Inactive)
REMARK    1  A    between atoms: N1_1  and  C1_5
REMARK    2  A    between atoms: C1_5  and  C2_6
REMARK    3  A    between atoms: C2_6  and  N2_7
REMARK    4  A    between atoms: N2_7  and  C3_9
REMARK    5  A    between atoms: C3_9  and  N3_11
REMARK    6  A    between atoms: N3_11  and  N4_13
REMARK    7  A    between atoms: N4_13  and  C4_15
REMARK    8  A    between atoms: C4_15  and  N5_17
REMARK    9  A    between atoms: N5_17  and  C5_19
REMARK   10  A    between atoms: C5_19  and  C6_20
ROOT
HETATM    1  N3  UNL     1      46.089  72.157  88.670  1.00  0.00    -0.274 N
ATOM      2  H3  UNL     1      46.357  71.177  88.756  1.00  0.00     0.189 HD
ENDROOT
BRANCH   1   3
HETATM    3  C3  UNL     1      45.462  72.549  87.482  1.00  0.00     0.186 C
HETATM    4  S1  UNL     1      45.886  73.927  86.744  1.00  0.00    -0.040 SA
BRANCH   3   5
HETATM    5  N2  UNL     1      44.441  71.779  86.899  1.00  0.00    -0.364 N
ATOM      6  H2  UNL     1      43.504  71.811  87.301  1.00  0.00     0.162 HD
BRANCH   5   7
HETATM    7  C2  UNL     1      44.685  70.935  85.735  1.00  0.00     0.149 C
BRANCH   7   8
HETATM    8  C1  UNL     1      44.720  69.494  86.177  1.00  0.00     0.249 C
BRANCH   8   9
HETATM    9  N1  UNL     1      46.097  69.044  86.279  1.00  0.00    -0.078 N
ATOM     10  H13 UNL     1      46.193  68.053  86.062  1.00  0.00     0.274 HD
ATOM     11  H12 UNL     1      46.679  69.417  85.528  1.00  0.00     0.274 HD
ATOM     12  H11 UNL     1      46.467  69.273  87.201  1.00  0.00     0.274 HD
ENDBRANCH   8   9
ENDBRANCH   7   8
ENDBRANCH   5   7
ENDBRANCH   3   5
ENDBRANCH   1   3
BRANCH   1  13
HETATM   13  N4  UNL     1      46.376  72.992  89.736  1.00  0.00    -0.274 N
ATOM     14  H4  UNL     1      47.034  73.757  89.588  1.00  0.00     0.189 HD
BRANCH  13  15
HETATM   15  C4  UNL     1      45.798  72.838  91.035  1.00  0.00     0.186 C
HETATM   16  S2  UNL     1      44.386  72.036  91.264  1.00  0.00    -0.040 SA
BRANCH  15  17
HETATM   17  N5  UNL     1      46.451  73.363  92.162  1.00  0.00    -0.365 N
ATOM     18  H5  UNL     1      47.311  72.922  92.489  1.00  0.00     0.161 HD
BRANCH  17  19
HETATM   19  C5  UNL     1      45.937  74.506  92.866  1.00  0.00     0.133 C
BRANCH  19  20
HETATM   20  C6  UNL     1      46.026  75.769  91.960  1.00  0.00     0.104 C
HETATM   21 BR1  UNL     1      44.270  76.384  91.512  1.00  0.00    -0.095 Br
ENDBRANCH  19  20
ENDBRANCH  17  19
ENDBRANCH  15  17
ENDBRANCH  13  15
ENDBRANCH   1  13
TORSDOF 10
ENDMDL