MODEL 2
REMARK VINA RESULT: -6.935210222      1.139      1.139
REMARK  6 active torsions:
REMARK  status: ('A' for Active; 'I' for Inactive)
REMARK    1  A    between atoms: C2_2  and  C3_3
REMARK    2  A    between atoms: C4_4  and  C5_5
REMARK    3  A    between atoms: C5_5  and  N1_6
REMARK       I    between atoms: N1_6  and  C6_8
REMARK       I    between atoms: C6_8  and  N2_10
REMARK    4  A    between atoms: N2_10  and  C7_12
REMARK    5  A    between atoms: C7_12  and  C8_13
REMARK    6  A    between atoms: C8_13  and  N3_14
REMARK       I    between atoms: N3_14  and  C9_16
REMARK       I    between atoms: C9_16  and  N6_21
REMARK       I    between atoms: N6_21  and  C11_23
ROOT
HETATM    1  N3  UNL     1      44.313  71.370  84.667  1.00  0.00    -0.224 N
ATOM      2  H3  UNL     1      43.867  72.282  84.778  1.00  0.00     0.177 HD
HETATM    3  C9  UNL     1      44.617  70.872  83.376  1.00  0.00     0.689 C
HETATM    4  N4  UNL     1      45.330  71.433  82.490  1.00  0.00    -0.126 N
ATOM      5  H4  UNL     1      45.453  70.942  81.605  1.00  0.00     0.197 HD
HETATM    6  C10 UNL     1      45.948  72.652  82.631  1.00  0.00     0.196 C
HETATM    7  N5  UNL     1      46.465  73.694  82.732  1.00  0.00    -0.171 NA
HETATM    8  N6  UNL     1      44.042  69.589  83.040  1.00  0.00    -0.163 N
ATOM      9  H6  UNL     1      44.571  68.725  83.158  1.00  0.00     0.187 HD
HETATM   10  C11 UNL     1      42.732  69.577  82.548  1.00  0.00     0.202 C
HETATM   11  N7  UNL     1      41.857  70.659  82.830  1.00  0.00    -0.063 NA
HETATM   12  N8  UNL     1      42.272  68.619  81.841  1.00  0.00    -0.368 N
ATOM     13  H8  UNL     1      41.307  68.676  81.515  1.00  0.00     0.161 HD
HETATM   14  C12 UNL     1      43.043  67.470  81.485  1.00  0.00     0.148 C
ENDROOT
BRANCH   1  15
HETATM   15  C8  UNL     1      44.643  70.570  85.823  1.00  0.00     0.157 C
BRANCH  15  16
HETATM   16  C7  UNL     1      43.456  70.352  86.724  1.00  0.00     0.144 C
BRANCH  16  17
HETATM   17  N2  UNL     1      42.254  70.389  85.919  1.00  0.00    -0.342 N
HETATM   18  C6  UNL     1      41.266  69.386  86.141  1.00  0.00     0.316 C
HETATM   19  N1  UNL     1      40.074  69.355  85.384  1.00  0.00    -0.333 N
HETATM   20  O1  UNL     1      41.443  68.513  87.016  1.00  0.00    -0.247 OA
ATOM     21  H1  UNL     1      39.923  70.062  84.665  1.00  0.00     0.165 HD
ATOM     22  H2  UNL     1      42.118  71.113  85.214  1.00  0.00     0.164 HD
BRANCH  19  23
HETATM   23  C5  UNL     1      39.080  68.362  85.601  1.00  0.00     0.218 C
BRANCH  23  24
HETATM   24  C4  UNL     1      37.770  69.059  85.650  1.00  0.00    -0.087 C
HETATM   25  C3  UNL     1      36.719  69.646  85.696  1.00  0.00    -0.105 C
BRANCH  25  26
HETATM   26  C2  UNL     1      35.443  70.390  85.758  1.00  0.00     0.089 C
HETATM   27  C1  UNL     1      34.638  69.945  86.981  1.00  0.00     0.018 C
ENDBRANCH  25  26
ENDBRANCH  23  24
ENDBRANCH  19  23
ENDBRANCH  16  17
ENDBRANCH  15  16
ENDBRANCH   1  15
TORSDOF 6
ENDMDL