MODEL 1
REMARK VINA RESULT: -5.763619307      0.000      0.000
REMARK  7 active torsions:
REMARK  status: ('A' for Active; 'I' for Inactive)
REMARK    1  A    between atoms: C2_2  and  N1_3
REMARK    2  A    between atoms: N1_3  and  C4_5
REMARK    3  A    between atoms: C4_5  and  N2_7
REMARK    4  A    between atoms: N2_7  and  N3_8
REMARK       I    between atoms: N3_8  and  C5_10
REMARK       I    between atoms: C5_10  and  N4_12
REMARK    5  A    between atoms: N4_12  and  N5_14
REMARK       I    between atoms: C6_16  and  N7_18
REMARK    6  A    between atoms: N7_18  and  C7_20
REMARK    7  A    between atoms: C7_20  and  C8_21
ROOT
HETATM    1  N3  UNL     1      39.582  69.351  85.447  1.00  0.00    -0.180 N
ATOM      2  H3  UNL     1      39.626  70.037  84.694  1.00  0.00     0.207 HD
HETATM    3  C5  UNL     1      40.831  69.255  86.106  1.00  0.00     0.363 C
HETATM    4  O1  UNL     1      41.265  68.576  86.964  1.00  0.00    -0.243 OA
HETATM    5  N4  UNL     1      41.786  70.244  85.569  1.00  0.00    -0.247 N
ATOM      6  H4  UNL     1      41.434  70.832  84.814  1.00  0.00     0.192 HD
ENDROOT
BRANCH   1   7
HETATM    7  N2  UNL     1      38.363  68.809  85.519  1.00  0.00    -0.291 NA
BRANCH   7   8
HETATM    8  C4  UNL     1      37.144  68.271  85.620  1.00  0.00     0.270 C
HETATM    9  S1  UNL     1      36.897  66.604  85.291  1.00  0.00    -0.023 SA
BRANCH   8  10
HETATM   10  N1  UNL     1      35.902  68.891  86.012  1.00  0.00    -0.350 N
HETATM   11  C3  UNL     1      35.647  70.271  85.713  1.00  0.00     0.153 C
BRANCH  10  12
HETATM   12  C2  UNL     1      34.890  68.106  86.683  1.00  0.00     0.121 C
HETATM   13  C1  UNL     1      33.598  68.839  86.789  1.00  0.00     0.026 C
ENDBRANCH  10  12
ENDBRANCH   8  10
ENDBRANCH   7   8
ENDBRANCH   1   7
BRANCH   5  14
HETATM   14  N5  UNL     1      43.060  70.475  85.943  1.00  0.00    -0.270 N
HETATM   15  C6  UNL     1      43.913  70.865  85.012  1.00  0.00     0.203 C
HETATM   16  N6  UNL     1      43.432  70.997  83.696  1.00  0.00    -0.062 NA
HETATM   17  N7  UNL     1      45.219  71.241  85.287  1.00  0.00    -0.362 N
ATOM     18  H7  UNL     1      46.006  70.595  85.232  1.00  0.00     0.162 HD
ATOM     19  H5  UNL     1      43.355  70.352  86.911  1.00  0.00     0.189 HD
BRANCH  17  20
HETATM   20  C7  UNL     1      45.373  72.670  85.670  1.00  0.00     0.137 C
BRANCH  20  21
HETATM   21  C8  UNL     1      45.384  72.862  87.153  1.00  0.00     0.134 C
HETATM   22 CL1  UNL     1      45.736  71.429  88.082  1.00  0.00    -0.129 Cl
ENDBRANCH  20  21
ENDBRANCH  17  20
ENDBRANCH   5  14
TORSDOF 7
ENDMDL