MODEL 2
REMARK VINA RESULT: -6.978434192      3.618      8.244
REMARK  4 active torsions:
REMARK  status: ('A' for Active; 'I' for Inactive)
REMARK    1  A    between atoms: C2_2  and  N1_3
REMARK    2  A    between atoms: C2_2  and  C11_23
REMARK       I    between atoms: N1_3  and  C3_5
REMARK    3  A    between atoms: C3_5  and  C4_7
REMARK    4  A    between atoms: C8_12  and  N2_13
REMARK       I    between atoms: N2_13  and  C9_15
ROOT
HETATM    1  C4  UNL     1      44.047  70.711  88.529  1.00  0.00     0.075 C
HETATM    2  C5  UNL     1      45.121  71.592  88.037  1.00  0.00     0.083 C
HETATM    3  C6  UNL     1      45.477  72.733  88.930  1.00  0.00     0.096 C
HETATM    4 CL1  UNL     1      44.615  74.222  88.513  1.00  0.00    -0.124 Cl
HETATM    5  C7  UNL     1      45.423  72.420  90.375  1.00  0.00     0.054 A
HETATM    6  C8  UNL     1      44.304  72.951  91.209  1.00  0.00     0.114 A
HETATM    7  C10 UNL     1      44.348  71.521  90.771  1.00  0.00     0.112 A
HETATM    8  N5  UNL     1      43.444  71.086  89.802  1.00  0.00    -0.382 N
ATOM      9  H5  UNL     1      42.439  71.035  89.970  1.00  0.00     0.160 HD
ENDROOT
BRANCH   1  10
HETATM   10  C3  UNL     1      43.087  70.155  87.588  1.00  0.00     0.264 C
HETATM   11  N1  UNL     1      43.354  69.114  86.663  1.00  0.00    -0.344 N
ATOM     12  H1  UNL     1      44.257  68.640  86.630  1.00  0.00     0.163 HD
HETATM   13  O1  UNL     1      41.925  70.702  87.638  1.00  0.00    -0.266 OA
BRANCH  11  14
HETATM   14  C2  UNL     1      42.257  68.759  85.757  1.00  0.00     0.170 C
HETATM   15  C1  UNL     1      42.939  68.626  84.355  1.00  0.00     0.042 C
BRANCH  14  16
HETATM   16  C11 UNL     1      41.612  67.484  86.038  1.00  0.00     0.253 C
HETATM   17  N6  UNL     1      42.159  66.276  85.549  1.00  0.00    -0.060 NA
HETATM   18  O2  UNL     1      40.533  67.336  86.726  1.00  0.00    -0.275 OA
ENDBRANCH  14  16
ENDBRANCH  11  14
ENDBRANCH   1  10
BRANCH   6  19
HETATM   19  N2  UNL     1      44.573  73.248  92.603  1.00  0.00    -0.358 N
HETATM   20  C9  UNL     1      45.299  74.459  92.903  1.00  0.00     0.182 C
HETATM   21  N3  UNL     1      44.564  75.453  93.363  1.00  0.00    -0.374 N
HETATM   22  N4  UNL     1      46.679  74.611  92.782  1.00  0.00    -0.064 NA
ATOM     23  H32 UNL     1      43.555  75.342  93.451  1.00  0.00     0.158 HD
ATOM     24  H31 UNL     1      45.077  76.308  93.575  1.00  0.00     0.158 HD
ATOM     25  H2  UNL     1      44.260  72.623  93.345  1.00  0.00     0.162 HD
ENDBRANCH   6  19
TORSDOF 4
ENDMDL