MODEL 3
REMARK VINA RESULT: -5.935803643      6.905      9.277
REMARK  4 active torsions:
REMARK  status: ('A' for Active; 'I' for Inactive)
REMARK    1  A    between atoms: C3_11  and  C4_12
REMARK    2  A    between atoms: C4_12  and  N4_13
REMARK    3  A    between atoms: N5_16  and  C7_17
REMARK    4  A    between atoms: C7_17  and  C8_18
ROOT
HETATM    1  N1  UNL     1      48.327  74.619  92.331  1.00  0.00    -0.371 N
ATOM      2  H11 UNL     1      48.974  75.213  91.812  1.00  0.00     0.159 HD
ATOM      3  H12 UNL     1      48.724  74.455  93.256  1.00  0.00     0.159 HD
HETATM    4  C1  UNL     1      47.190  74.153  91.892  1.00  0.00     0.175 A
HETATM    5  N2  UNL     1      46.289  73.327  92.615  1.00  0.00    -0.316 N
ATOM      6  H2  UNL     1      46.427  73.001  93.571  1.00  0.00     0.170 HD
HETATM    7  C2  UNL     1      45.159  73.022  91.794  1.00  0.00     0.105 A
HETATM    8  N3  UNL     1      44.167  72.353  92.248  1.00  0.00    -0.387 N
ATOM      9  H31 UNL     1      43.360  72.136  91.662  1.00  0.00     0.157 HD
ATOM     10  H32 UNL     1      43.982  71.948  93.166  1.00  0.00     0.157 HD
HETATM   11  C3  UNL     1      45.428  73.610  90.459  1.00  0.00     0.190 A
HETATM   12  N6  UNL     1      46.638  74.381  90.606  1.00  0.00    -0.346 N
ATOM     13  H6  UNL     1      47.035  74.995  89.894  1.00  0.00     0.163 HD
ENDROOT
BRANCH  11  14
HETATM   14  C4  UNL     1      45.607  72.535  89.390  1.00  0.00     0.091 C
BRANCH  14  15
HETATM   15  N4  UNL     1      44.685  72.605  88.340  1.00  0.00    -0.388 N
HETATM   16  C5  UNL     1      45.204  72.497  87.015  1.00  0.00     0.152 C
HETATM   17  C6  UNL     1      45.066  71.162  86.392  1.00  0.00     0.292 C
HETATM   18  N5  UNL     1      43.940  70.384  86.766  1.00  0.00     0.092 N
HETATM   19  C9  UNL     1      43.301  70.680  87.996  1.00  0.00     0.292 C
HETATM   20  C10 UNL     1      43.401  72.047  88.537  1.00  0.00     0.152 C
BRANCH  18  21
HETATM   21  C7  UNL     1      44.259  68.964  86.721  1.00  0.00     0.283 C
BRANCH  21  22
HETATM   22  C8  UNL     1      43.517  68.235  85.645  1.00  0.00     0.115 C
HETATM   23 BR1  UNL     1      44.708  68.102  84.104  1.00  0.00    -0.095 Br
ENDBRANCH  21  22
ENDBRANCH  18  21
ENDBRANCH  14  15
ENDBRANCH  11  14
TORSDOF 4
ENDMDL