MODEL 4
REMARK VINA RESULT: -8.095791212      3.088      6.429
REMARK  6 active torsions:
REMARK  status: ('A' for Active; 'I' for Inactive)
REMARK    1  A    between atoms: C3_3  and  O1_4
REMARK    2  A    between atoms: O1_4  and  C4_5
REMARK    3  A    between atoms: C6_7  and  C7_8
REMARK    4  A    between atoms: C10_12  and  N1_13
REMARK    5  A    between atoms: C13_17  and  N2_18
REMARK    6  A    between atoms: C18_26  and  O3_27
ROOT
HETATM    1  C1  UNL     1     -22.417 -40.035   1.313  1.00  0.00     0.014 C
HETATM    2  C2  UNL     1     -22.328 -39.445   2.377  1.00  0.00    -0.091 C
HETATM    3  C3  UNL     1     -22.203 -38.751   3.661  1.00  0.00     0.261 C
ENDROOT
BRANCH   3   4
HETATM    4  O1  UNL     1     -22.209 -37.390   3.390  1.00  0.00    -0.371 OA
BRANCH   4   5
HETATM    5  C4  UNL     1     -21.101 -36.952   2.706  1.00  0.00     0.158 C
HETATM    6  C5  UNL     1     -21.442 -36.016   1.568  1.00  0.00     0.067 C
HETATM    7  C6  UNL     1     -20.157 -35.537   0.931  1.00  0.00     0.130 C
HETATM    8  O2  UNL     1     -19.055 -35.680   1.743  1.00  0.00    -0.358 OA
HETATM    9  C10 UNL     1     -19.393 -35.142   2.996  1.00  0.00     0.260 C
HETATM   10  C18 UNL     1     -20.236 -36.179   3.695  1.00  0.00     0.196 C
BRANCH   7  11
HETATM   11  C7  UNL     1     -19.998 -36.220  -0.408  1.00  0.00     0.006 C
HETATM   12  C8  UNL     1     -18.682 -35.815  -1.011  1.00  0.00     0.012 C
HETATM   13  C9  UNL     1     -20.072 -37.718  -0.298  1.00  0.00     0.012 C
ENDBRANCH   7  11
BRANCH   9  14
HETATM   14  N1  UNL     1     -18.232 -34.781   3.766  1.00  0.00    -0.319 N
HETATM   15  C11 UNL     1     -17.966 -35.449   4.902  1.00  0.00     0.120 A
HETATM   16  C12 UNL     1     -16.830 -35.032   5.575  1.00  0.00     0.076 A
HETATM   17 CL1  UNL     1     -16.480 -35.914   7.072  1.00  0.00    -0.080 Cl
HETATM   18  C13 UNL     1     -16.013 -34.016   5.145  1.00  0.00     0.062 A
HETATM   19  C14 UNL     1     -16.316 -33.334   3.953  1.00  0.00     0.026 A
HETATM   20  C15 UNL     1     -15.635 -32.319   3.380  1.00  0.00     0.024 A
HETATM   21  C17 UNL     1     -17.442 -33.771   3.316  1.00  0.00     0.090 A
HETATM   22  C16 UNL     1     -16.131 -31.818   2.213  1.00  0.00     0.053 A
HETATM   23  S1  UNL     1     -17.523 -32.764   1.944  1.00  0.00    -0.083 SA
BRANCH  18  24
HETATM   24  N2  UNL     1     -14.992 -33.722   5.853  1.00  0.00    -0.397 N
ATOM     25  H22 UNL     1     -14.839 -34.127   6.776  1.00  0.00     0.156 HD
ATOM     26  H21 UNL     1     -14.316 -33.060   5.471  1.00  0.00     0.156 HD
ENDBRANCH  18  24
ENDBRANCH   9  14
BRANCH  10  27
HETATM   27  O3  UNL     1     -21.080 -35.559   4.598  1.00  0.00    -0.389 OA
ATOM     28  H3  UNL     1     -20.850 -35.867   5.467  1.00  0.00     0.210 HD
ENDBRANCH  10  27
ENDBRANCH   4   5
ENDBRANCH   3   4
TORSDOF 6
ENDMDL