MODEL 2
REMARK VINA RESULT: -6.672511763      2.974      4.402
REMARK  9 active torsions:
REMARK  status: ('A' for Active; 'I' for Inactive)
REMARK    1  A    between atoms: C2_2  and  O2_4
REMARK    2  A    between atoms: O2_4  and  C3_5
REMARK    3  A    between atoms: C12_15  and  N1_16
REMARK    4  A    between atoms: N1_16  and  O3_17
REMARK    5  A    between atoms: C14_20  and  C15_21
REMARK    6  A    between atoms: C15_21  and  C16_22
REMARK    7  A    between atoms: C16_22  and  C18_24
REMARK    8  A    between atoms: C18_24  and  O4_25
REMARK    9  A    between atoms: C19_27  and  O5_29
ROOT
HETATM    1  C3  UNL     1     -19.982 -35.451   5.800  1.00  0.00     0.196 C
HETATM    2  C4  UNL     1     -18.603 -35.924   5.819  1.00  0.00    -0.037 C
HETATM    3  C5  UNL     1     -17.900 -35.898   6.911  1.00  0.00     0.090 C
HETATM    4 CL1  UNL     1     -16.246 -36.454   6.985  1.00  0.00    -0.097 Cl
HETATM    5  C6  UNL     1     -17.979 -36.454   4.595  1.00  0.00     0.039 C
HETATM    6  C7  UNL     1     -19.018 -36.590   3.490  1.00  0.00     0.022 C
HETATM    7  C8  UNL     1     -19.742 -35.260   3.288  1.00  0.00     0.021 C
HETATM    8  C9  UNL     1     -20.873 -35.568   2.297  1.00  0.00     0.029 C
HETATM    9  C10 UNL     1     -20.497 -36.180   1.010  1.00  0.00     0.050 C
HETATM   10  C11 UNL     1     -20.467 -37.689   0.969  1.00  0.00     0.017 C
HETATM   11  C12 UNL     1     -19.247 -35.572   0.477  1.00  0.00     0.121 C
HETATM   12  C13 UNL     1     -18.664 -34.523   1.300  1.00  0.00     0.051 C
HETATM   13  C14 UNL     1     -18.826 -34.292   2.639  1.00  0.00    -0.043 C
HETATM   14  C19 UNL     1     -20.471 -34.863   4.524  1.00  0.00     0.096 C
HETATM   15  C20 UNL     1     -21.995 -35.190   4.475  1.00  0.00     0.050 C
ENDROOT
BRANCH  13  16
HETATM   16  C15 UNL     1     -18.025 -33.233   3.123  1.00  0.00     0.016 C
BRANCH  16  17
HETATM   17  C16 UNL     1     -17.217 -32.779   3.993  1.00  0.00    -0.040 C
HETATM   18  C17 UNL     1     -15.802 -32.358   3.273  1.00  0.00     0.050 C
BRANCH  17  19
HETATM   19  C18 UNL     1     -17.064 -32.543   5.329  1.00  0.00     0.138 C
BRANCH  19  20
HETATM   20  O4  UNL     1     -18.129 -32.298   6.103  1.00  0.00    -0.372 OA
ATOM     21  H4  UNL     1     -18.049 -32.307   7.050  1.00  0.00     0.216 HD
ENDBRANCH  19  20
ENDBRANCH  17  19
ENDBRANCH  16  17
ENDBRANCH  13  16
BRANCH  14  22
HETATM   22  O5  UNL     1     -20.519 -33.483   4.577  1.00  0.00    -0.386 OA
ATOM     23  H5  UNL     1     -21.296 -33.172   5.027  1.00  0.00     0.210 HD
ENDBRANCH  14  22
BRANCH   1  24
HETATM   24  O2  UNL     1     -20.849 -36.559   6.163  1.00  0.00    -0.309 OA
BRANCH  24  25
HETATM   25  C2  UNL     1     -20.819 -37.237   7.329  1.00  0.00     0.255 C
HETATM   26  C1  UNL     1     -20.440 -38.638   7.475  1.00  0.00     0.126 C
HETATM   27  O1  UNL     1     -21.129 -36.596   8.404  1.00  0.00    -0.266 OA
ENDBRANCH  24  25
ENDBRANCH   1  24
BRANCH  11  28
HETATM   28  N1  UNL     1     -18.753 -35.959  -0.565  1.00  0.00    -0.288 NA
BRANCH  28  29
HETATM   29  O3  UNL     1     -18.370 -36.149  -1.749  1.00  0.00    -0.218 OA
ATOM     30  H3  UNL     1     -17.907 -36.213  -2.577  1.00  0.00     0.261 HD
ENDBRANCH  28  29
ENDBRANCH  11  28
TORSDOF 9
ENDMDL