MODEL 1
REMARK VINA RESULT: -7.872954031      0.000      0.000
REMARK  6 active torsions:
REMARK  status: ('A' for Active; 'I' for Inactive)
REMARK    1  A    between atoms: C2_2  and  C3_3
REMARK    2  A    between atoms: C3_3  and  C4_4
REMARK    3  A    between atoms: N1_6  and  C6_7
REMARK    4  A    between atoms: C8_13  and  N4_14
REMARK    5  A    between atoms: C9_19  and  O1_20
REMARK    6  A    between atoms: C12_25  and  C14_27
ROOT
HETATM    1  C6  UNL     1     -18.980 -35.787   4.366  1.00  0.00     0.683 A
HETATM    2  N2  UNL     1     -18.818 -36.149   5.631  1.00  0.00    -0.173 N
ATOM      3  H2  UNL     1     -18.291 -35.619   6.325  1.00  0.00     0.186 HD
HETATM    4  C7  UNL     1     -19.434 -37.290   5.866  1.00  0.00     0.168 A
HETATM    5  N3  UNL     1     -19.521 -38.015   7.025  1.00  0.00    -0.174 N
ATOM      6  H3  UNL     1     -19.075 -37.702   7.886  1.00  0.00     0.186 HD
HETATM    7  C8  UNL     1     -20.224 -39.157   6.972  1.00  0.00     0.679 A
HETATM    8  N5  UNL     1     -20.810 -39.566   5.841  1.00  0.00    -0.168 N
ATOM      9  H5  UNL     1     -21.333 -40.442   5.860  1.00  0.00     0.186 HD
HETATM   10  C9  UNL     1     -20.751 -38.894   4.687  1.00  0.00     0.188 A
HETATM   11  C11 UNL     1     -20.029 -37.702   4.705  1.00  0.00     0.145 A
HETATM   12  N6  UNL     1     -19.740 -36.767   3.794  1.00  0.00    -0.184 N
ATOM     13  H6  UNL     1     -20.042 -36.784   2.821  1.00  0.00     0.184 HD
ENDROOT
BRANCH   1  14
HETATM   14  N1  UNL     1     -18.470 -34.634   3.752  1.00  0.00    -0.202 N
HETATM   15  C5  UNL     1     -18.976 -34.220   2.444  1.00  0.00     0.174 C
HETATM   16  C4  UNL     1     -17.805 -34.194   1.497  1.00  0.00     0.141 C
HETATM   17  O2  UNL     1     -16.614 -33.960   2.062  1.00  0.00    -0.371 OA
HETATM   18  C15 UNL     1     -16.544 -33.265   3.258  1.00  0.00     0.081 C
HETATM   19  C12 UNL     1     -17.443 -33.804   4.350  1.00  0.00     0.089 C
HETATM   20  C16 UNL     1     -16.683 -31.774   3.043  1.00  0.00     0.048 C
HETATM   21  C17 UNL     1     -15.085 -33.475   3.684  1.00  0.00     0.048 C
HETATM   22  C13 UNL     1     -16.646 -34.496   5.428  1.00  0.00     0.043 C
BRANCH  16  23
HETATM   23  C3  UNL     1     -18.123 -33.272   0.350  1.00  0.00     0.033 C
BRANCH  23  24
HETATM   24  C2  UNL     1     -17.108 -33.387  -0.774  1.00  0.00    -0.002 C
HETATM   25  C1  UNL     1     -17.249 -34.661  -1.551  1.00  0.00     0.005 C
ENDBRANCH  23  24
ENDBRANCH  16  23
BRANCH  19  26
HETATM   26  C14 UNL     1     -18.218 -32.704   5.070  1.00  0.00     0.149 C
HETATM   27 CL1  UNL     1     -18.065 -32.788   6.831  1.00  0.00    -0.128 Cl
ENDBRANCH  19  26
ENDBRANCH   1  14
BRANCH  10  28
HETATM   28  O1  UNL     1     -21.338 -39.280   3.509  1.00  0.00    -0.339 OA
HETATM   29  C10 UNL     1     -22.579 -38.814   3.064  1.00  0.00     0.211 C
ENDBRANCH  10  28
BRANCH   7  30
HETATM   30  N4  UNL     1     -20.329 -39.875   8.064  1.00  0.00    -0.234 N
ATOM     31  H42 UNL     1     -21.200 -40.361   8.276  1.00  0.00     0.174 HD
ATOM     32  H41 UNL     1     -19.523 -39.931   8.687  1.00  0.00     0.174 HD
ENDBRANCH   7  30
TORSDOF 6
ENDMDL