MODEL 1
REMARK VINA RESULT: -7.540488772      0.000      0.000
REMARK  5 active torsions:
REMARK  status: ('A' for Active; 'I' for Inactive)
REMARK    1  A    between atoms: C2_2  and  C3_3
REMARK    2  A    between atoms: N2_6  and  C4_7
REMARK    3  A    between atoms: C10_15  and  N3_16
REMARK       I    between atoms: N3_16  and  C11_18
REMARK    4  A    between atoms: C11_18  and  O4_20
REMARK    5  A    between atoms: O4_20  and  C12_21
ROOT
HETATM    1  C3  UNL     1     -16.016 -33.927   5.326  1.00  0.00     0.058 A
HETATM    2  N1  UNL     1     -15.568 -33.683   6.565  1.00  0.00    -0.297 N
ATOM      3  H1  UNL     1     -14.710 -33.183   6.798  1.00  0.00     0.187 HD
HETATM    4  N2  UNL     1     -16.421 -34.199   7.436  1.00  0.00    -0.250 N
HETATM    5  C9  UNL     1     -17.436 -34.785   6.783  1.00  0.00     0.291 A
HETATM    6  O2  UNL     1     -18.450 -35.389   7.256  1.00  0.00    -0.264 OA
HETATM    7  C10 UNL     1     -17.209 -34.630   5.426  1.00  0.00     0.131 A
ENDROOT
BRANCH   7   8
HETATM    8  N3  UNL     1     -18.007 -35.081   4.354  1.00  0.00    -0.296 N
HETATM    9  C11 UNL     1     -19.144 -34.350   3.916  1.00  0.00     0.365 C
HETATM   10  O3  UNL     1     -19.496 -33.263   4.462  1.00  0.00    -0.238 OA
ATOM     11  H3  UNL     1     -17.763 -35.953   3.883  1.00  0.00     0.171 HD
BRANCH   9  12
HETATM   12  O4  UNL     1     -19.931 -34.791   2.863  1.00  0.00    -0.297 OA
BRANCH  12  13
HETATM   13  C12 UNL     1     -19.874 -36.135   2.434  1.00  0.00     0.153 C
HETATM   14  C13 UNL     1     -19.287 -36.165   0.979  1.00  0.00     0.113 C
HETATM   15  C14 UNL     1     -20.075 -37.114   0.332  1.00  0.00    -0.180 C
HETATM   16  C15 UNL     1     -20.604 -37.976  -0.645  1.00  0.00     0.090 C
HETATM   17  C16 UNL     1     -21.833 -38.611   0.116  1.00  0.00     0.085 C
HETATM   18  S1  UNL     1     -21.860 -38.153   1.851  1.00  0.00    -0.166 SA
HETATM   19  C17 UNL     1     -21.270 -36.693   2.507  1.00  0.00     0.107 C
ENDBRANCH  12  13
ENDBRANCH   9  12
ENDBRANCH   7   8
BRANCH   1  20
HETATM   20  C2  UNL     1     -15.403 -33.544   4.027  1.00  0.00     0.056 C
HETATM   21  C1  UNL     1     -16.085 -32.294   3.543  1.00  0.00     0.011 C
ENDBRANCH   1  20
BRANCH   4  22
HETATM   22  C4  UNL     1     -16.274 -34.136   8.869  1.00  0.00     0.116 C
HETATM   23  C5  UNL     1     -15.512 -32.913   9.326  1.00  0.00     0.053 C
HETATM   24  C6  UNL     1     -15.440 -32.995  10.851  1.00  0.00     0.169 C
HETATM   25  O1  UNL     1     -14.722 -34.117  11.213  1.00  0.00    -0.391 OA
HETATM   26  C7  UNL     1     -15.405 -35.287  10.879  1.00  0.00     0.169 C
HETATM   27  C8  UNL     1     -15.528 -35.357   9.381  1.00  0.00     0.053 C
ENDBRANCH   4  22
TORSDOF 5
ENDMDL