MODEL 1
REMARK VINA RESULT: -7.621422274      0.000      0.000
REMARK  7 active torsions:
REMARK  status: ('A' for Active; 'I' for Inactive)
REMARK    1  A    between atoms: O1_2  and  C2_3
REMARK    2  A    between atoms: C5_6  and  S1_7
REMARK    3  A    between atoms: S1_7  and  C6_10
REMARK    4  A    between atoms: C6_10  and  C7_11
REMARK    5  A    between atoms: C7_11  and  O4_12
REMARK    6  A    between atoms: N1_14  and  O5_16
REMARK    7  A    between atoms: C10_20  and  C11_21
ROOT
HETATM    1  C6  UNL     1     -18.370 -35.083   5.655  1.00  0.00     0.134 C
HETATM    2  C8  UNL     1     -18.705 -33.584   5.882  1.00  0.00     0.035 C
HETATM    3  C9  UNL     1     -17.631 -32.830   5.117  1.00  0.00     0.007 C
HETATM    4  C10 UNL     1     -18.078 -32.889   3.662  1.00  0.00    -0.007 C
HETATM    5  C15 UNL     1     -18.433 -34.309   3.271  1.00  0.00     0.007 C
HETATM    6  C16 UNL     1     -17.893 -35.306   4.281  1.00  0.00     0.035 C
ENDROOT
BRANCH   1   7
HETATM    7  S1  UNL     1     -19.800 -35.986   6.157  1.00  0.00     0.193 S
HETATM    8  O2  UNL     1     -19.496 -36.845   7.378  1.00  0.00    -0.221 OA
HETATM    9  O3  UNL     1     -20.868 -35.014   6.616  1.00  0.00    -0.221 OA
BRANCH   7  10
HETATM   10  C5  UNL     1     -20.510 -36.978   4.927  1.00  0.00     0.076 A
HETATM   11  C4  UNL     1     -21.133 -36.450   3.823  1.00  0.00     0.029 A
HETATM   12  C3  UNL     1     -21.692 -37.252   2.850  1.00  0.00     0.057 A
HETATM   13  C2  UNL     1     -21.589 -38.616   3.050  1.00  0.00     0.141 A
HETATM   14  N2  UNL     1     -20.980 -39.128   4.127  1.00  0.00    -0.345 N
HETATM   15  C17 UNL     1     -20.449 -38.338   5.052  1.00  0.00     0.113 A
ATOM     16  H2  UNL     1     -20.923 -40.141   4.238  1.00  0.00     0.167 HD
BRANCH  13  17
HETATM   17  O1  UNL     1     -22.153 -39.448   2.065  1.00  0.00    -0.341 OA
HETATM   18  C1  UNL     1     -22.357 -38.964   0.755  1.00  0.00     0.211 C
ENDBRANCH  13  17
ENDBRANCH   7  10
ENDBRANCH   1   7
BRANCH   1  19
HETATM   19  C7  UNL     1     -17.308 -35.404   6.639  1.00  0.00     0.160 C
HETATM   20  N1  UNL     1     -16.642 -36.493   6.716  1.00  0.00    -0.250 N
ATOM     21  H1  UNL     1     -15.930 -36.595   7.439  1.00  0.00     0.196 HD
BRANCH  19  22
HETATM   22  O4  UNL     1     -17.027 -34.381   7.585  1.00  0.00    -0.347 OA
ATOM     23  H4  UNL     1     -17.422 -34.501   8.441  1.00  0.00     0.219 HD
ENDBRANCH  19  22
BRANCH  20  24
HETATM   24  O5  UNL     1     -16.866 -37.513   5.852  1.00  0.00    -0.288 OA
ATOM     25  H5  UNL     1     -16.582 -38.396   6.053  1.00  0.00     0.244 HD
ENDBRANCH  20  24
ENDBRANCH   1  19
BRANCH   4  26
HETATM   26  C11 UNL     1     -17.070 -32.256   2.754  1.00  0.00    -0.048 C
HETATM   27  C12 UNL     1     -17.162 -32.964   1.413  1.00  0.00     0.015 C
HETATM   28  C13 UNL     1     -17.267 -30.776   2.589  1.00  0.00     0.015 C
HETATM   29  C14 UNL     1     -15.679 -32.476   3.293  1.00  0.00     0.015 C
ENDBRANCH   4  26
TORSDOF 7
ENDMDL