MODEL 5
REMARK VINA RESULT: -8.400979956      3.140      5.619
REMARK  4 active torsions:
REMARK  status: ('A' for Active; 'I' for Inactive)
REMARK    1  A    between atoms: C1_2  and  C2_3
REMARK       I    between atoms: C1_2  and  N1_10
REMARK    2  A    between atoms: C2_3  and  C3_4
REMARK    3  A    between atoms: N1_10  and  N2_11
REMARK    4  A    between atoms: C14_22  and  C15_23
ROOT
HETATM    1  N2  UNL     1     -15.798 -33.971   3.531  1.00  0.00    -0.238 N
ATOM      2  H2  UNL     1     -14.976 -34.563   3.406  1.00  0.00     0.201 HD
HETATM    3  C9  UNL     1     -16.398 -33.950   4.646  1.00  0.00     0.048 C
HETATM    4  C10 UNL     1     -15.963 -34.758   5.804  1.00  0.00     0.141 C
HETATM    5  C11 UNL     1     -17.221 -35.282   6.459  1.00  0.00     0.168 C
HETATM    6  O2  UNL     1     -17.117 -35.783   7.588  1.00  0.00    -0.292 OA
HETATM    7  C12 UNL     1     -18.528 -35.178   5.734  1.00  0.00     0.060 A
HETATM    8  C13 UNL     1     -18.747 -34.096   4.937  1.00  0.00     0.055 A
HETATM    9  N3  UNL     1     -19.907 -34.004   4.316  1.00  0.00    -0.327 N
ATOM     10  H3  UNL     1     -20.222 -33.263   3.690  1.00  0.00     0.174 HD
HETATM   11  S1  UNL     1     -20.748 -35.369   4.782  1.00  0.00    -0.007 SA
HETATM   12  C14 UNL     1     -19.552 -36.083   5.817  1.00  0.00     0.114 A
HETATM   13  C16 UNL     1     -17.594 -33.098   4.839  1.00  0.00     0.181 C
HETATM   14 CL1  UNL     1     -17.412 -32.314   6.427  1.00  0.00    -0.112 Cl
ENDROOT
BRANCH   1  15
HETATM   15  N1  UNL     1     -16.253 -33.193   2.482  1.00  0.00    -0.287 NA
HETATM   16  C1  UNL     1     -16.674 -32.464   1.519  1.00  0.00     0.312 C
HETATM   17  O1  UNL     1     -17.077 -31.244   1.534  1.00  0.00    -0.255 OA
BRANCH  16  18
HETATM   18  C2  UNL     1     -16.744 -33.043   0.094  1.00  0.00     0.126 C
BRANCH  18  19
HETATM   19  C3  UNL     1     -17.539 -34.321   0.155  1.00  0.00    -0.005 C
HETATM   20  C4  UNL     1     -17.563 -35.028  -1.174  1.00  0.00     0.005 C
HETATM   21  C5  UNL     1     -18.704 -35.994  -1.329  1.00  0.00     0.000 C
HETATM   22  C6  UNL     1     -19.399 -36.403  -0.088  1.00  0.00     0.000 C
HETATM   23  C7  UNL     1     -19.614 -35.289   0.923  1.00  0.00     0.000 C
HETATM   24  C8  UNL     1     -19.024 -33.989   0.429  1.00  0.00     0.005 C
ENDBRANCH  18  19
ENDBRANCH  16  18
ENDBRANCH   1  15
BRANCH  12  25
HETATM   25  C15 UNL     1     -19.669 -37.350   6.550  1.00  0.00     0.219 C
HETATM   26  O3  UNL     1     -20.152 -37.254   7.738  1.00  0.00    -0.643 OA
HETATM   27  O4  UNL     1     -19.336 -38.590   6.136  1.00  0.00    -0.643 OA
ENDBRANCH  12  25
TORSDOF 4
ENDMDL