MODEL 5
REMARK VINA RESULT: -7.197008672      3.975      7.428
REMARK  5 active torsions:
REMARK  status: ('A' for Active; 'I' for Inactive)
REMARK    1  A    between atoms: N1_2  and  C3_4
REMARK    2  A    between atoms: C5_6  and  N2_7
REMARK    3  A    between atoms: N2_7  and  C6_9
REMARK    4  A    between atoms: C14_19  and  S1_20
REMARK    5  A    between atoms: S1_20  and  N3_21
ROOT
HETATM    1  C3  UNL     1     -17.835 -33.727   2.575  1.00  0.00     0.050 A
HETATM    2  C4  UNL     1     -18.953 -34.453   2.143  1.00  0.00     0.061 A
HETATM    3  C5  UNL     1     -19.535 -35.345   3.002  1.00  0.00     0.053 A
HETATM    4  C11 UNL     1     -19.027 -35.519   4.256  1.00  0.00     0.072 A
HETATM    5 CL1  UNL     1     -19.851 -36.696   5.294  1.00  0.00    -0.081 Cl
HETATM    6  C12 UNL     1     -17.902 -34.809   4.732  1.00  0.00     0.009 A
HETATM    7  C13 UNL     1     -17.336 -34.913   5.943  1.00  0.00     0.047 A
HETATM    8  C14 UNL     1     -16.247 -34.128   6.201  1.00  0.00     0.121 A
HETATM    9  S2  UNL     1     -16.039 -33.268   4.755  1.00  0.00    -0.074 SA
HETATM   10  C15 UNL     1     -17.332 -33.914   3.848  1.00  0.00     0.045 A
ENDROOT
BRANCH   3  11
HETATM   11  N2  UNL     1     -20.659 -36.109   2.587  1.00  0.00    -0.384 N
ATOM     12  H2  UNL     1     -21.585 -35.761   2.838  1.00  0.00     0.160 HD
BRANCH  11  13
HETATM   13  C6  UNL     1     -20.588 -37.322   1.848  1.00  0.00     0.085 C
HETATM   14  C7  UNL     1     -21.629 -38.336   2.357  1.00  0.00     0.051 C
HETATM   15  C8  UNL     1     -22.813 -38.435   1.413  1.00  0.00     0.169 C
HETATM   16  O1  UNL     1     -22.432 -38.976   0.184  1.00  0.00    -0.391 OA
HETATM   17  C9  UNL     1     -21.139 -38.575  -0.152  1.00  0.00     0.169 C
HETATM   18  C10 UNL     1     -20.903 -37.166   0.381  1.00  0.00     0.051 C
ENDBRANCH  11  13
ENDBRANCH   3  11
BRANCH   1  19
HETATM   19  N1  UNL     1     -17.225 -32.802   1.697  1.00  0.00    -0.388 N
HETATM   20  C1  UNL     1     -16.722 -33.267   0.401  1.00  0.00     0.149 C
HETATM   21  C2  UNL     1     -17.085 -31.417   2.045  1.00  0.00     0.149 C
ENDBRANCH   1  19
BRANCH   8  22
HETATM   22  S1  UNL     1     -15.303 -34.055   7.698  1.00  0.00     0.263 S
HETATM   23  O2  UNL     1     -15.292 -35.372   8.398  1.00  0.00    -0.200 OA
HETATM   24  O3  UNL     1     -15.994 -33.057   8.588  1.00  0.00    -0.200 OA
BRANCH  22  25
HETATM   25  N3  UNL     1     -13.723 -33.466   7.366  1.00  0.00    -0.324 N
ATOM     26  H32 UNL     1     -13.316 -33.409   6.433  1.00  0.00     0.169 HD
ATOM     27  H31 UNL     1     -13.267 -33.187   8.234  1.00  0.00     0.169 HD
ENDBRANCH  22  25
ENDBRANCH   8  22
TORSDOF 5
ENDMDL