MODEL 3
REMARK VINA RESULT: -7.990321929      2.407      3.755
REMARK  6 active torsions:
REMARK  status: ('A' for Active; 'I' for Inactive)
REMARK    1  A    between atoms: C2_2  and  N1_4
REMARK    2  A    between atoms: N1_4  and  C4_6
REMARK    3  A    between atoms: C9_16  and  N4_17
REMARK    4  A    between atoms: C10_20  and  N5_21
REMARK    5  A    between atoms: N5_21  and  C12_23
REMARK    6  A    between atoms: C15_26  and  N6_27
ROOT
HETATM    1  C4  UNL     1     -18.773 -34.324   1.466  1.00  0.00     0.118 A
HETATM    2  N2  UNL     1     -18.414 -34.188   0.175  1.00  0.00    -0.318 N
ATOM      3  H2  UNL     1     -19.027 -34.543  -0.558  1.00  0.00     0.170 HD
HETATM    4  C5  UNL     1     -17.262 -33.592  -0.156  1.00  0.00     0.181 A
HETATM    5 CL1  UNL     1     -16.848 -33.447  -1.870  1.00  0.00    -0.045 Cl
HETATM    6  N3  UNL     1     -16.446 -33.120   0.798  1.00  0.00    -0.332 N
ATOM      7  H3  UNL     1     -15.568 -32.666   0.545  1.00  0.00     0.168 HD
HETATM    8  C6  UNL     1     -16.796 -33.250   2.100  1.00  0.00     0.050 A
HETATM    9  C7  UNL     1     -15.900 -32.743   3.011  1.00  0.00     0.033 A
HETATM   10  C8  UNL     1     -16.200 -32.852   4.319  1.00  0.00     0.041 A
HETATM   11  C9  UNL     1     -17.386 -33.463   4.738  1.00  0.00     0.130 A
HETATM   12  C10 UNL     1     -18.313 -33.985   3.839  1.00  0.00     0.084 A
HETATM   13  C18 UNL     1     -17.979 -33.859   2.510  1.00  0.00     0.064 A
ENDROOT
BRANCH  12  14
HETATM   14  N5  UNL     1     -19.500 -34.550   4.344  1.00  0.00    -0.356 N
HETATM   15  C11 UNL     1     -20.706 -33.754   4.425  1.00  0.00     0.156 C
BRANCH  14  16
HETATM   16  C12 UNL     1     -19.672 -35.951   4.739  1.00  0.00    -0.011 C
HETATM   17  C13 UNL     1     -18.436 -36.759   4.826  1.00  0.00     0.054 C
HETATM   18  C14 UNL     1     -18.429 -37.886   5.781  1.00  0.00     0.038 C
HETATM   19  C15 UNL     1     -19.787 -38.346   6.224  1.00  0.00     0.184 C
HETATM   20  C16 UNL     1     -20.460 -37.141   6.832  1.00  0.00     0.038 C
HETATM   21  C17 UNL     1     -20.742 -36.162   5.739  1.00  0.00     0.054 C
BRANCH  19  22
HETATM   22  N6  UNL     1     -20.579 -38.915   5.184  1.00  0.00    -0.075 N
ATOM     23  H63 UNL     1     -20.605 -38.295   4.375  1.00  0.00     0.274 HD
ATOM     24  H62 UNL     1     -20.104 -39.719   4.772  1.00  0.00     0.274 HD
ATOM     25  H61 UNL     1     -21.525 -39.169   5.471  1.00  0.00     0.274 HD
ENDBRANCH  19  22
ENDBRANCH  14  16
ENDBRANCH  12  14
BRANCH  11  26
HETATM   26  N4  UNL     1     -17.548 -33.486   6.119  1.00  0.00    -0.113 N
HETATM   27  O1  UNL     1     -16.925 -34.371   6.788  1.00  0.00    -0.532 OA
HETATM   28  O2  UNL     1     -18.298 -32.652   6.842  1.00  0.00    -0.532 OA
ENDBRANCH  11  26
BRANCH   1  29
HETATM   29  N1  UNL     1     -19.836 -34.879   1.734  1.00  0.00    -0.371 N
ATOM     30  H1  UNL     1     -20.413 -34.406   2.430  1.00  0.00     0.161 HD
BRANCH  29  31
HETATM   31  C2  UNL     1     -20.373 -36.081   1.216  1.00  0.00     0.075 C
HETATM   32  C1  UNL     1     -19.396 -37.243   1.152  1.00  0.00     0.031 C
HETATM   33  C3  UNL     1     -21.720 -36.482   1.777  1.00  0.00     0.031 C
ENDBRANCH  29  31
ENDBRANCH   1  29
TORSDOF 6
ENDMDL