MODEL 2
REMARK VINA RESULT: -8.567624091      1.510      1.872
REMARK  6 active torsions:
REMARK  status: ('A' for Active; 'I' for Inactive)
REMARK    1  A    between atoms: C2_2  and  C3_3
REMARK    2  A    between atoms: C3_3  and  C4_4
REMARK    3  A    between atoms: C4_4  and  C5_5
REMARK    4  A    between atoms: C6_7  and  N1_8
REMARK    5  A    between atoms: N3_19  and  C13_20
REMARK    6  A    between atoms: C16_23  and  N4_24
ROOT
HETATM    1  C5  UNL     1     -18.589 -34.836   0.922  1.00  0.00    -0.005 A
HETATM    2  S1  UNL     1     -17.912 -33.790   2.096  1.00  0.00    -0.058 SA
HETATM    3  C6  UNL     1     -18.388 -34.138   3.681  1.00  0.00     0.143 A
HETATM    4  N2  UNL     1     -19.215 -35.170   3.778  1.00  0.00    -0.335 N
ATOM      5  H2  UNL     1     -19.521 -35.404   4.723  1.00  0.00     0.168 HD
HETATM    6  C7  UNL     1     -19.700 -35.940   2.808  1.00  0.00     0.070 A
HETATM    7  C8  UNL     1     -19.425 -35.815   1.453  1.00  0.00    -0.015 A
HETATM    8  C9  UNL     1     -19.916 -36.807   0.463  1.00  0.00     0.047 C
HETATM    9  C10 UNL     1     -21.079 -37.596   0.935  1.00  0.00     0.047 C
HETATM   10  C11 UNL     1     -21.256 -37.767   2.374  1.00  0.00    -0.010 A
HETATM   11  C12 UNL     1     -22.053 -38.669   3.092  1.00  0.00     0.120 A
HETATM   12  N3  UNL     1     -21.901 -38.378   4.379  1.00  0.00    -0.296 N
HETATM   13  N5  UNL     1     -21.068 -37.363   4.490  1.00  0.00    -0.296 N
ATOM     14  H5  UNL     1     -20.780 -36.940   5.373  1.00  0.00     0.187 HD
HETATM   15  C19 UNL     1     -20.651 -36.964   3.278  1.00  0.00     0.083 A
ENDROOT
BRANCH  12  16
HETATM   16  C13 UNL     1     -22.577 -39.102   5.461  1.00  0.00     0.126 C
HETATM   17  C14 UNL     1     -23.588 -38.195   6.092  1.00  0.00     0.031 C
HETATM   18  C15 UNL     1     -23.825 -38.598   7.517  1.00  0.00     0.035 C
HETATM   19  C16 UNL     1     -23.634 -40.080   7.757  1.00  0.00     0.185 C
HETATM   20  C17 UNL     1     -22.229 -40.518   7.451  1.00  0.00     0.055 C
HETATM   21  C18 UNL     1     -21.561 -39.631   6.427  1.00  0.00     0.109 C
HETATM   22 CL1  UNL     1     -20.337 -40.538   5.518  1.00  0.00    -0.123 Cl
BRANCH  19  23
HETATM   23  N4  UNL     1     -24.622 -40.859   7.008  1.00  0.00    -0.075 N
ATOM     24  H43 UNL     1     -25.350 -41.232   7.618  1.00  0.00     0.274 HD
ATOM     25  H42 UNL     1     -25.206 -40.264   6.420  1.00  0.00     0.274 HD
ATOM     26  H41 UNL     1     -24.169 -41.596   6.468  1.00  0.00     0.274 HD
ENDBRANCH  19  23
ENDBRANCH  12  16
BRANCH   3  27
HETATM   27  N1  UNL     1     -17.987 -33.467   4.696  1.00  0.00    -0.380 N
ATOM     28  H12 UNL     1     -17.074 -33.609   5.129  1.00  0.00     0.158 HD
ATOM     29  H11 UNL     1     -18.549 -32.744   5.145  1.00  0.00     0.158 HD
ENDBRANCH   3  27
BRANCH   1  30
HETATM   30  C4  UNL     1     -18.321 -34.650  -0.520  1.00  0.00     0.047 C
BRANCH  30  31
HETATM   31  C3  UNL     1     -17.149 -33.818  -0.881  1.00  0.00     0.005 C
BRANCH  31  32
HETATM   32  C2  UNL     1     -16.722 -33.904  -2.330  1.00  0.00    -0.004 C
HETATM   33  C1  UNL     1     -16.774 -35.314  -2.852  1.00  0.00     0.005 C
ENDBRANCH  31  32
ENDBRANCH  30  31
ENDBRANCH   1  30
TORSDOF 6
ENDMDL