MODEL 4
REMARK VINA RESULT: -8.910558660      1.479      2.034
REMARK  4 active torsions:
REMARK  status: ('A' for Active; 'I' for Inactive)
REMARK    1  A    between atoms: C2_2  and  C3_3
REMARK    2  A    between atoms: C10_14  and  O1_15
REMARK    3  A    between atoms: O1_15  and  S1_16
REMARK    4  A    between atoms: S1_16  and  C11_19
ROOT
HETATM    1  C3  UNL     1     -17.746 -33.256   1.945  1.00  0.00     0.060 C
HETATM    2  C4  UNL     1     -17.632 -32.616   0.607  1.00  0.00     0.071 C
HETATM    3  N1  UNL     1     -17.552 -33.531  -0.460  1.00  0.00    -0.357 N
ATOM      4  H1  UNL     1     -17.037 -33.239  -1.292  1.00  0.00     0.166 HD
HETATM    5  C5  UNL     1     -18.069 -34.689  -0.470  1.00  0.00     0.128 C
HETATM    6  N2  UNL     1     -17.972 -35.575  -1.583  1.00  0.00    -0.082 NA
HETATM    7  C6  UNL     1     -18.684 -35.181   0.769  1.00  0.00     0.037 A
HETATM    8  C7  UNL     1     -19.431 -36.335   0.781  1.00  0.00     0.056 A
HETATM    9 CL1  UNL     1     -19.460 -37.343  -0.659  1.00  0.00    -0.083 Cl
HETATM   10  C8  UNL     1     -20.164 -36.732   1.887  1.00  0.00    -0.016 A
HETATM   11  C9  UNL     1     -20.137 -35.939   3.009  1.00  0.00     0.030 A
HETATM   12  C10 UNL     1     -19.404 -34.771   3.063  1.00  0.00     0.110 A
HETATM   13  C13 UNL     1     -18.672 -34.406   1.922  1.00  0.00     0.002 A
HETATM   14  C14 UNL     1     -21.029 -36.602   3.981  1.00  0.00     0.017 C
HETATM   15  N3  UNL     1     -21.083 -36.566   5.221  1.00  0.00    -0.402 N
ATOM     16  H31 UNL     1     -21.699 -37.025   5.892  1.00  0.00     0.156 HD
ATOM     17  H32 UNL     1     -20.433 -35.998   5.764  1.00  0.00     0.156 HD
HETATM   18  C15 UNL     1     -21.995 -37.446   3.173  1.00  0.00     0.066 C
HETATM   19  C16 UNL     1     -21.037 -37.941   2.104  1.00  0.00     0.023 C
HETATM   20  C17 UNL     1     -21.853 -38.252   0.875  1.00  0.00     0.015 C
ENDROOT
BRANCH  12  21
HETATM   21  O1  UNL     1     -19.414 -34.033   4.186  1.00  0.00    -0.231 OA
BRANCH  21  22
HETATM   22  S1  UNL     1     -18.574 -34.042   5.600  1.00  0.00     0.270 S
HETATM   23  O2  UNL     1     -18.242 -32.624   6.017  1.00  0.00    -0.198 OA
HETATM   24  O3  UNL     1     -19.404 -34.564   6.780  1.00  0.00    -0.198 OA
BRANCH  22  25
HETATM   25  C11 UNL     1     -17.091 -35.014   5.618  1.00  0.00     0.166 C
HETATM   26  C12 UNL     1     -17.536 -36.467   5.836  1.00  0.00     0.023 C
ENDBRANCH  22  25
ENDBRANCH  21  22
ENDBRANCH  12  21
BRANCH   1  27
HETATM   27  C2  UNL     1     -16.329 -33.715   2.307  1.00  0.00     0.010 C
HETATM   28  C1  UNL     1     -15.726 -32.680   3.197  1.00  0.00     0.006 C
ENDBRANCH   1  27
TORSDOF 4
ENDMDL