MODEL 3
REMARK VINA RESULT: -8.134656847      7.367     11.541
REMARK  5 active torsions:
REMARK  status: ('A' for Active; 'I' for Inactive)
REMARK    1  A    between atoms: C2_2  and  O1_4
REMARK    2  A    between atoms: C2_2  and  C4_6
REMARK    3  A    between atoms: C5_7  and  C6_8
REMARK    4  A    between atoms: C9_11  and  N1_12
REMARK    5  A    between atoms: N3_22  and  O2_23
ROOT
HETATM    1  C6  UNL     1      14.310 -27.471  19.885  1.00  0.00     0.035 A
HETATM    2  C7  UNL     1      14.706 -28.225  20.973  1.00  0.00     0.026 A
HETATM    3  C8  UNL     1      15.807 -29.042  20.849  1.00  0.00     0.053 A
HETATM    4  C9  UNL     1      16.529 -29.134  19.666  1.00  0.00     0.140 A
HETATM    5  N3  UNL     1      16.109 -28.384  18.630  1.00  0.00    -0.217 N
HETATM    6  C17 UNL     1      15.040 -27.570  18.705  1.00  0.00     0.145 A
ENDROOT
BRANCH   4   7
HETATM    7  N1  UNL     1      17.667 -29.994  19.574  1.00  0.00    -0.290 N
HETATM    8  C10 UNL     1      18.964 -29.678  19.691  1.00  0.00     0.191 A
HETATM    9  N2  UNL     1      19.714 -30.780  19.537  1.00  0.00    -0.350 N
HETATM   10  C11 UNL     1      18.894 -31.837  19.315  1.00  0.00     0.060 A
ATOM     11  H2  UNL     1      20.733 -30.817  19.580  1.00  0.00     0.166 HD
HETATM   12  C12 UNL     1      19.109 -33.174  19.095  1.00  0.00     0.032 A
HETATM   13  C16 UNL     1      17.627 -31.331  19.341  1.00  0.00     0.068 A
HETATM   14  C13 UNL     1      18.000 -33.991  18.900  1.00  0.00     0.002 A
HETATM   15  C14 UNL     1      16.722 -33.490  18.925  1.00  0.00     0.002 A
HETATM   16  C15 UNL     1      16.528 -32.138  19.148  1.00  0.00     0.032 A
ENDBRANCH   4   7
BRANCH   5  17
HETATM   17  O2  UNL     1      16.830 -28.472  17.444  1.00  0.00    -0.281 OA
ATOM     18  H2  UNL     1      16.380 -28.826  16.686  1.00  0.00     0.245 HD
ENDBRANCH   5  17
BRANCH   1  19
HETATM   19  C5  UNL     1      13.160 -26.615  20.006  1.00  0.00    -0.062 C
HETATM   20  C4  UNL     1      12.196 -25.893  20.086  1.00  0.00    -0.064 C
BRANCH  20  21
HETATM   21  C2  UNL     1      11.036 -25.005  20.164  1.00  0.00     0.114 C
HETATM   22  C1  UNL     1      11.530 -23.585  20.335  1.00  0.00     0.060 C
HETATM   23  C3  UNL     1      10.145 -25.331  21.341  1.00  0.00     0.060 C
BRANCH  21  24
HETATM   24  O1  UNL     1      10.264 -25.141  19.011  1.00  0.00    -0.378 OA
ATOM     25  H1  UNL     1      10.784 -25.452  18.279  1.00  0.00     0.211 HD
ENDBRANCH  21  24
ENDBRANCH  20  21
ENDBRANCH   1  19
TORSDOF 5
ENDMDL