MODEL 5
REMARK VINA RESULT: -8.210410969      0.662      1.038
REMARK  2 active torsions:
REMARK  status: ('A' for Active; 'I' for Inactive)
REMARK    1  A    between atoms: C5_7  and  N2_8
REMARK       I    between atoms: N2_8  and  C6_10
REMARK       I    between atoms: C6_10  and  N4_14
REMARK    2  A    between atoms: C10_18  and  C11_19
ROOT
HETATM    1  N2  UNL     1      16.845 -35.801  15.235  1.00  0.00    -0.022 N
ATOM      2  H2  UNL     1      17.261 -36.620  15.679  1.00  0.00     0.203 HD
HETATM    3  C6  UNL     1      15.985 -36.016  14.136  1.00  0.00     0.697 C
HETATM    4  N3  UNL     1      16.351 -35.637  12.965  1.00  0.00    -0.234 N
ATOM      5  H31 UNL     1      15.730 -35.792  12.170  1.00  0.00     0.174 HD
ATOM      6  H32 UNL     1      17.264 -35.212  12.802  1.00  0.00     0.174 HD
HETATM    7  N4  UNL     1      14.715 -36.608  14.363  1.00  0.00    -0.157 N
HETATM    8  C7  UNL     1      13.625 -35.793  14.643  1.00  0.00     0.115 A
HETATM    9  C8  UNL     1      12.508 -36.557  14.825  1.00  0.00     0.020 A
HETATM   10  C9  UNL     1      12.932 -37.843  14.655  1.00  0.00     0.033 A
HETATM   11  C10 UNL     1      14.324 -37.865  14.365  1.00  0.00     0.068 A
ENDROOT
BRANCH   1  12
HETATM   12  C5  UNL     1      17.142 -34.646  15.717  1.00  0.00     0.696 A
HETATM   13  N1  UNL     1      16.327 -33.593  15.719  1.00  0.00    -0.201 N
HETATM   14  C4  UNL     1      16.691 -32.410  16.237  1.00  0.00     0.108 A
ATOM     15  H1  UNL     1      15.396 -33.690  15.314  1.00  0.00     0.183 HD
HETATM   16  C3  UNL     1      17.931 -32.263  16.781  1.00  0.00     0.042 A
HETATM   17  C2  UNL     1      18.795 -33.348  16.788  1.00  0.00     0.024 A
HETATM   18  C1  UNL     1      20.146 -33.183  17.384  1.00  0.00     0.068 C
HETATM   19  N6  UNL     1      18.368 -34.506  16.253  1.00  0.00    -0.195 N
ATOM     20  H6  UNL     1      18.997 -35.309  16.255  1.00  0.00     0.184 HD
ENDBRANCH   1  12
BRANCH  11  21
HETATM   21  C11 UNL     1      15.050 -39.099  14.131  1.00  0.00     0.007 A
HETATM   22  C12 UNL     1      14.977 -39.727  12.890  1.00  0.00     0.016 A
HETATM   23  C13 UNL     1      15.663 -40.918  12.633  1.00  0.00     0.018 A
HETATM   24  C14 UNL     1      16.432 -41.506  13.607  1.00  0.00     0.087 A
HETATM   25  N5  UNL     1      16.495 -40.899  14.787  1.00  0.00    -0.374 N
HETATM   26  C15 UNL     1      15.819 -39.719  15.051  1.00  0.00     0.101 A
ATOM     27  H5  UNL     1      17.061 -41.318  15.526  1.00  0.00     0.164 HD
ENDBRANCH  11  21
TORSDOF 2
ENDMDL