MODEL 3
REMARK VINA RESULT: -8.398727735      6.666     11.091
REMARK  4 active torsions:
REMARK  status: ('A' for Active; 'I' for Inactive)
REMARK    1  A    between atoms: C10_12  and  C11_13
REMARK    2  A    between atoms: C11_13  and  N2_15
REMARK    3  A    between atoms: N2_15  and  O1_17
REMARK    4  A    between atoms: N3_23  and  O2_24
ROOT
HETATM    1  C1  UNL     1      18.112 -34.613  20.447  1.00  0.00     0.049 C
HETATM    2  C2  UNL     1      17.487 -33.699  19.461  1.00  0.00    -0.046 A
HETATM    3  C3  UNL     1      17.290 -34.067  18.133  1.00  0.00     0.096 A
HETATM    4  N1  UNL     1      16.722 -33.173  17.304  1.00  0.00    -0.349 N
ATOM      5  H1  UNL     1      16.575 -33.438  16.330  1.00  0.00     0.167 HD
HETATM    6  C4  UNL     1      16.336 -31.937  17.701  1.00  0.00     0.144 A
HETATM    7  C5  UNL     1      16.532 -31.567  19.026  1.00  0.00     0.022 A
HETATM    8  C6  UNL     1      17.106 -32.446  19.904  1.00  0.00     0.024 A
HETATM    9  C7  UNL     1      16.133 -30.309  19.395  1.00  0.00    -0.010 A
HETATM   10  C8  UNL     1      16.303 -29.889  20.693  1.00  0.00     0.014 A
HETATM   11  C9  UNL     1      15.875 -28.600  20.997  1.00  0.00     0.010 A
HETATM   12  C10 UNL     1      15.309 -27.772  20.062  1.00  0.00    -0.038 A
HETATM   13  C14 UNL     1      15.144 -28.204  18.769  1.00  0.00     0.023 A
HETATM   14  C15 UNL     1      15.560 -29.492  18.419  1.00  0.00     0.000 A
HETATM   15  C16 UNL     1      15.373 -29.876  17.108  1.00  0.00     0.049 A
HETATM   16  C17 UNL     1      14.763 -28.965  16.100  1.00  0.00     0.072 C
HETATM   17  N3  UNL     1      15.777 -31.117  16.781  1.00  0.00    -0.211 N
ENDROOT
BRANCH  12  18
HETATM   18  C11 UNL     1      14.874 -26.409  20.421  1.00  0.00     0.114 C
HETATM   19  C12 UNL     1      15.733 -25.776  21.463  1.00  0.00     0.034 C
BRANCH  18  20
HETATM   20  N2  UNL     1      14.800 -25.527  19.280  1.00  0.00    -0.195 NA
HETATM   21  C13 UNL     1      13.552 -24.832  19.199  1.00  0.00     0.144 C
BRANCH  20  22
HETATM   22  O1  UNL     1      15.880 -24.779  19.082  1.00  0.00    -0.313 OA
ATOM     23  H1  UNL     1      16.019 -24.512  18.181  1.00  0.00     0.237 HD
ENDBRANCH  20  22
ENDBRANCH  18  20
ENDBRANCH  12  18
BRANCH  17  24
HETATM   24  O2  UNL     1      15.593 -31.505  15.481  1.00  0.00    -0.281 OA
ATOM     25  H2  UNL     1      15.720 -30.906  14.754  1.00  0.00     0.245 HD
ENDBRANCH  17  24
TORSDOF 4
ENDMDL