MODEL 5
REMARK VINA RESULT: -8.164525343      4.866      9.926
REMARK  3 active torsions:
REMARK  status: ('A' for Active; 'I' for Inactive)
REMARK    1  A    between atoms: O1_2  and  C2_3
REMARK    2  A    between atoms: C6_7  and  C7_8
REMARK    3  A    between atoms: C8_9  and  C9_10
ROOT
HETATM    1  C2  UNL     1      16.327 -32.212  16.647  1.00  0.00     0.090 A
HETATM    2  C3  UNL     1      16.795 -33.200  17.475  1.00  0.00     0.038 A
HETATM    3  C4  UNL     1      16.924 -33.051  18.838  1.00  0.00     0.004 A
HETATM    4  C5  UNL     1      16.570 -31.856  19.423  1.00  0.00     0.022 A
HETATM    5  C6  UNL     1      16.095 -30.843  18.617  1.00  0.00     0.041 A
HETATM    6  C17 UNL     1      15.975 -31.015  17.258  1.00  0.00     0.096 A
HETATM    7  C18 UNL     1      15.483 -29.985  16.378  1.00  0.00     0.103 C
HETATM    8  N3  UNL     1      15.097 -29.163  15.658  1.00  0.00    -0.191 NA
ENDROOT
BRANCH   1   9
HETATM    9  O1  UNL     1      16.216 -32.410  15.289  1.00  0.00    -0.354 OA
HETATM   10  C1  UNL     1      15.196 -33.257  14.798  1.00  0.00     0.210 C
ENDBRANCH   1   9
BRANCH   5  11
HETATM   11  C7  UNL     1      15.711 -29.567  19.190  1.00  0.00    -0.060 C
HETATM   12  C8  UNL     1      15.371 -28.504  19.656  1.00  0.00    -0.059 C
BRANCH  12  13
HETATM   13  C9  UNL     1      14.952 -27.238  20.192  1.00  0.00     0.047 A
HETATM   14  C10 UNL     1      15.713 -26.593  21.146  1.00  0.00     0.023 A
HETATM   15  C11 UNL     1      15.309 -25.384  21.655  1.00  0.00     0.004 A
HETATM   16  C12 UNL     1      14.136 -24.826  21.199  1.00  0.00     0.032 A
HETATM   17  C13 UNL     1      13.352 -25.441  20.251  1.00  0.00     0.063 A
HETATM   18  C14 UNL     1      13.779 -26.660  19.751  1.00  0.00     0.079 A
HETATM   19  N2  UNL     1      12.184 -25.096  19.661  1.00  0.00    -0.346 N
HETATM   20  N1  UNL     1      12.826 -27.014  18.854  1.00  0.00    -0.349 N
HETATM   21  C15 UNL     1      11.866 -26.070  18.802  1.00  0.00     0.183 A
ATOM     22  H1  UNL     1      12.834 -27.871  18.300  1.00  0.00     0.166 HD
HETATM   23  C16 UNL     1      11.462 -23.864  19.963  1.00  0.00     0.157 C
ENDBRANCH  12  13
ENDBRANCH   5  11
TORSDOF 3
ENDMDL