MODEL 4
REMARK VINA RESULT: -8.600946526      4.576      9.645
REMARK  1 active torsions:
REMARK  status: ('A' for Active; 'I' for Inactive)
REMARK    1  A    between atoms: N4_12  and  C7_14
ROOT
HETATM    1  C1  UNL     1      14.073 -33.565  17.183  1.00  0.00     0.089 C
HETATM    2  C2  UNL     1      15.520 -33.243  17.361  1.00  0.00     0.095 A
HETATM    3  N1  UNL     1      16.456 -34.057  16.841  1.00  0.00    -0.330 N
ATOM      4  H1  UNL     1      16.173 -34.891  16.326  1.00  0.00     0.168 HD
HETATM    5  C3  UNL     1      17.768 -33.775  16.996  1.00  0.00     0.148 A
HETATM    6  C4  UNL     1      18.936 -34.396  16.593  1.00  0.00     0.070 A
HETATM    7  C5  UNL     1      20.009 -33.646  17.043  1.00  0.00     0.112 A
HETATM    8  N2  UNL     1      19.484 -32.606  17.696  1.00  0.00    -0.289 N
ATOM      9  H2  UNL     1      20.029 -31.870  18.144  1.00  0.00     0.187 HD
HETATM   10  N3  UNL     1      18.154 -32.658  17.684  1.00  0.00    -0.070 N
HETATM   11  C6  UNL     1      17.227 -31.844  18.204  1.00  0.00     0.707 A
HETATM   12  N4  UNL     1      17.572 -30.812  18.840  1.00  0.00    -0.190 N
ATOM     13  H4  UNL     1      18.575 -30.651  18.926  1.00  0.00     0.184 HD
HETATM   14  N6  UNL     1      15.938 -32.154  18.031  1.00  0.00    -0.179 N
ATOM     15  H6  UNL     1      15.234 -31.532  18.428  1.00  0.00     0.185 HD
ENDROOT
BRANCH  12  16
HETATM   16  C7  UNL     1      16.742 -29.862  19.443  1.00  0.00     0.050 A
HETATM   17  C8  UNL     1      16.292 -29.925  20.749  1.00  0.00     0.031 A
HETATM   18  C9  UNL     1      15.475 -28.927  21.237  1.00  0.00     0.016 A
HETATM   19  C10 UNL     1      15.090 -27.856  20.455  1.00  0.00    -0.010 A
HETATM   20  C11 UNL     1      14.266 -26.848  20.947  1.00  0.00     0.102 A
HETATM   21  C15 UNL     1      15.530 -27.788  19.168  1.00  0.00    -0.021 A
HETATM   22  N5  UNL     1      13.908 -25.816  20.158  1.00  0.00    -0.370 N
HETATM   23  C12 UNL     1      13.044 -24.779  20.707  1.00  0.00     0.154 C
HETATM   24  C13 UNL     1      14.345 -25.763  18.906  1.00  0.00     0.090 A
HETATM   25  C14 UNL     1      15.172 -26.741  18.358  1.00  0.00     0.029 A
HETATM   26  C16 UNL     1      16.344 -28.775  18.671  1.00  0.00     0.042 A
ENDBRANCH  12  16
TORSDOF 1
ENDMDL