MODEL 4
REMARK VINA RESULT: -8.934980212      3.831      5.268
REMARK  3 active torsions:
REMARK  status: ('A' for Active; 'I' for Inactive)
REMARK    1  A    between atoms: C6_6  and  N1_7
REMARK    2  A    between atoms: N1_7  and  C7_9
REMARK    3  A    between atoms: N5_23  and  O1_24
ROOT
HETATM    1  C7  UNL     1      15.872 -36.054  15.418  1.00  0.00     0.132 A
HETATM    2  N2  UNL     1      16.611 -35.382  14.528  1.00  0.00    -0.283 N
ATOM      3  H2  UNL     1      17.139 -34.577  14.866  1.00  0.00     0.188 HD
HETATM    4  N3  UNL     1      16.712 -35.683  13.229  1.00  0.00    -0.280 N
ATOM      5  H3  UNL     1      17.303 -35.109  12.627  1.00  0.00     0.188 HD
HETATM    6  C8  UNL     1      16.044 -36.731  12.699  1.00  0.00     0.180 A
HETATM    7  C9  UNL     1      15.273 -37.449  13.575  1.00  0.00     0.055 A
HETATM    8  C10 UNL     1      14.661 -38.470  12.904  1.00  0.00     0.065 A
HETATM    9  C11 UNL     1      13.845 -39.283  13.670  1.00  0.00     0.032 A
HETATM   10  C12 UNL     1      13.695 -39.025  15.037  1.00  0.00     0.003 A
HETATM   11  C13 UNL     1      14.351 -37.959  15.666  1.00  0.00     0.016 A
HETATM   12  C14 UNL     1      15.164 -37.148  14.904  1.00  0.00     0.026 A
HETATM   13  N4  UNL     1      15.082 -38.376  11.535  1.00  0.00    -0.272 N
ATOM     14  H4  UNL     1      14.799 -38.998  10.778  1.00  0.00     0.189 HD
HETATM   15  N5  UNL     1      15.887 -37.360  11.425  1.00  0.00    -0.144 N
ENDROOT
BRANCH   1  16
HETATM   16  N1  UNL     1      15.773 -35.772  16.656  1.00  0.00    -0.341 N
ATOM     17  H1  UNL     1      14.851 -35.506  17.003  1.00  0.00     0.167 HD
BRANCH  16  18
HETATM   18  C6  UNL     1      16.823 -35.796  17.583  1.00  0.00     0.034 A
HETATM   19  C5  UNL     1      17.538 -36.953  17.848  1.00  0.00     0.029 A
HETATM   20  C4  UNL     1      18.572 -36.973  18.764  1.00  0.00     0.003 A
HETATM   21  C3  UNL     1      18.909 -35.815  19.433  1.00  0.00     0.007 A
HETATM   22  C2  UNL     1      18.221 -34.637  19.198  1.00  0.00    -0.060 A
HETATM   23  C1  UNL     1      18.560 -33.364  19.907  1.00  0.00     0.048 C
HETATM   24  C15 UNL     1      17.188 -34.659  18.272  1.00  0.00     0.036 A
ENDBRANCH  16  18
ENDBRANCH   1  16
BRANCH  15  25
HETATM   25  O1  UNL     1      16.486 -36.956  10.285  1.00  0.00    -0.266 OA
ATOM     26  H1  UNL     1      17.164 -36.294  10.232  1.00  0.00     0.247 HD
ENDBRANCH  15  25
TORSDOF 3
ENDMDL