MODEL 4
REMARK VINA RESULT: -8.269374949      6.203      9.632
REMARK  2 active torsions:
REMARK  status: ('A' for Active; 'I' for Inactive)
REMARK    1  A    between atoms: C5_6  and  O1_7
REMARK    2  A    between atoms: N2_9  and  C6_10
ROOT
HETATM    1  C1  UNL     1      16.276 -29.812  20.960  1.00  0.00     0.027 C
HETATM    2  C2  UNL     1      15.700 -29.008  20.082  1.00  0.00     0.006 A
HETATM    3  C3  UNL     1      15.238 -29.333  18.825  1.00  0.00     0.107 A
HETATM    4  C4  UNL     1      15.309 -30.645  18.247  1.00  0.00     0.104 C
HETATM    5  N1  UNL     1      15.357 -31.723  17.790  1.00  0.00    -0.191 NA
HETATM    6  C5  UNL     1      14.725 -28.174  18.292  1.00  0.00     0.169 A
HETATM    7  N2  UNL     1      14.852 -27.158  19.162  1.00  0.00    -0.289 N
HETATM    8  C17 UNL     1      15.445 -27.641  20.264  1.00  0.00     0.043 A
HETATM    9  C18 UNL     1      15.755 -26.972  21.361  1.00  0.00     0.044 C
ENDROOT
BRANCH   6  10
HETATM   10  O1  UNL     1      14.161 -28.091  17.033  1.00  0.00    -0.345 OA
ATOM     11  H1  UNL     1      13.243 -27.905  16.876  1.00  0.00     0.219 HD
ENDBRANCH   6  10
BRANCH   7  12
HETATM   12  C6  UNL     1      14.459 -25.792  19.026  1.00  0.00     0.070 A
HETATM   13  C7  UNL     1      15.147 -24.760  18.423  1.00  0.00     0.121 A
HETATM   14  N3  UNL     1      14.446 -23.617  18.497  1.00  0.00    -0.358 N
HETATM   15  C8  UNL     1      14.853 -22.304  17.968  1.00  0.00     0.156 C
HETATM   16  C9  UNL     1      13.299 -23.885  19.143  1.00  0.00     0.047 A
HETATM   17  C10 UNL     1      12.205 -23.092  19.503  1.00  0.00     0.038 A
HETATM   18  C16 UNL     1      13.281 -25.222  19.482  1.00  0.00     0.020 A
HETATM   19  C11 UNL     1      11.142 -23.665  20.181  1.00  0.00    -0.054 A
HETATM   20  C12 UNL     1       9.966 -22.831  20.571  1.00  0.00     0.049 C
HETATM   21  C13 UNL     1      11.127 -25.001  20.518  1.00  0.00    -0.055 A
HETATM   22  C14 UNL     1       9.955 -25.572  21.251  1.00  0.00     0.049 C
HETATM   23  C15 UNL     1      12.205 -25.775  20.162  1.00  0.00     0.023 A
ENDBRANCH   7  12
TORSDOF 2
ENDMDL