MODEL 4
REMARK VINA RESULT: -7.038459308      3.252      6.155
REMARK  5 active torsions:
REMARK  status: ('A' for Active; 'I' for Inactive)
REMARK    1  A    between atoms: C2_2  and  C3_3
REMARK    2  A    between atoms: C3_3  and  C6_6
REMARK    3  A    between atoms: N3_14  and  C10_15
REMARK    4  A    between atoms: C14_19  and  N4_20
REMARK    5  A    between atoms: N5_23  and  O1_24
ROOT
HETATM    1  C6  UNL     1      14.571 -36.468  15.263  1.00  0.00     0.121 A
HETATM    2  N1  UNL     1      15.282 -35.588  15.973  1.00  0.00    -0.327 N
ATOM      3  H1  UNL     1      15.110 -34.597  15.810  1.00  0.00     0.169 HD
HETATM    4  C7  UNL     1      16.220 -35.928  16.897  1.00  0.00     0.140 A
HETATM    5  C8  UNL     1      16.404 -37.305  17.061  1.00  0.00     0.072 A
HETATM    6  C9  UNL     1      17.378 -37.373  18.027  1.00  0.00     0.126 A
HETATM    7  N2  UNL     1      17.745 -36.155  18.407  1.00  0.00    -0.306 N
ATOM      8  H2  UNL     1      18.450 -35.943  19.113  1.00  0.00     0.186 HD
HETATM    9  N3  UNL     1      17.044 -35.252  17.720  1.00  0.00    -0.267 N
HETATM   10  C14 UNL     1      15.682 -38.214  16.330  1.00  0.00     0.145 A
HETATM   11  N5  UNL     1      14.754 -37.758  15.428  1.00  0.00    -0.194 N
ENDROOT
BRANCH   1  12
HETATM   12  C3  UNL     1      13.596 -35.965  14.249  1.00  0.00     0.013 C
HETATM   13  C4  UNL     1      14.064 -36.320  12.840  1.00  0.00     0.023 C
HETATM   14  C5  UNL     1      12.257 -36.549  14.525  1.00  0.00     0.023 C
BRANCH  12  15
HETATM   15  C2  UNL     1      13.567 -34.430  14.247  1.00  0.00     0.012 C
HETATM   16  C1  UNL     1      14.288 -33.959  12.995  1.00  0.00     0.006 C
ENDBRANCH  12  15
ENDBRANCH   1  12
BRANCH  11  17
HETATM   17  O1  UNL     1      14.071 -38.770  14.789  1.00  0.00    -0.280 OA
ATOM     18  H1  UNL     1      13.153 -38.990  14.901  1.00  0.00     0.245 HD
ENDBRANCH  11  17
BRANCH  10  19
HETATM   19  N4  UNL     1      15.899 -39.436  16.385  1.00  0.00    -0.378 N
HETATM   20  C15 UNL     1      16.844 -40.362  15.938  1.00  0.00     0.147 C
ATOM     21  H4  UNL     1      15.165 -39.904  16.917  1.00  0.00     0.160 HD
ENDBRANCH  10  19
BRANCH   9  22
HETATM   22  C10 UNL     1      17.178 -33.851  17.856  1.00  0.00     0.044 C
HETATM   23  C11 UNL     1      17.738 -33.173  16.635  1.00  0.00     0.039 C
HETATM   24  C12 UNL     1      15.895 -33.222  18.343  1.00  0.00     0.039 C
HETATM   25  C13 UNL     1      18.190 -33.581  18.969  1.00  0.00     0.039 C
ENDBRANCH   9  22
TORSDOF 5
ENDMDL