MODEL 3
REMARK VINA RESULT: -8.237729372      5.744      8.506
REMARK  5 active torsions:
REMARK  status: ('A' for Active; 'I' for Inactive)
REMARK    1  A    between atoms: C2_2  and  C4_4
REMARK    2  A    between atoms: C7_7  and  O1_8
REMARK    3  A    between atoms: N1_12  and  O2_13
REMARK    4  A    between atoms: C10_17  and  C11_18
REMARK    5  A    between atoms: N3_24  and  O3_25
ROOT
HETATM    1  C4  UNL     1      17.521 -31.145  18.134  1.00  0.00     0.002 A
HETATM    2  C5  UNL     1      18.085 -31.116  16.835  1.00  0.00     0.017 A
HETATM    3  C6  UNL     1      17.865 -30.029  16.033  1.00  0.00     0.040 A
HETATM    4  C7  UNL     1      17.103 -28.966  16.471  1.00  0.00     0.097 A
HETATM    5  C8  UNL     1      16.569 -29.022  17.735  1.00  0.00     0.129 A
HETATM    6  C9  UNL     1      16.762 -30.103  18.590  1.00  0.00     0.124 A
HETATM    7  N1  UNL     1      16.202 -30.059  19.802  1.00  0.00    -0.159 N
HETATM    8  N2  UNL     1      15.473 -29.036  20.219  1.00  0.00    -0.256 N
ATOM      9  H2  UNL     1      15.067 -29.057  21.154  1.00  0.00     0.191 HD
HETATM   10  C10 UNL     1      15.257 -27.956  19.416  1.00  0.00     0.160 A
HETATM   11  N3  UNL     1      15.805 -27.987  18.218  1.00  0.00    -0.201 N
ENDROOT
BRANCH  10  12
HETATM   12  C11 UNL     1      14.446 -26.866  19.938  1.00  0.00     0.012 A
HETATM   13  C12 UNL     1      15.097 -25.910  20.736  1.00  0.00     0.015 A
HETATM   14  C13 UNL     1      14.467 -24.828  21.298  1.00  0.00     0.001 A
HETATM   15  C14 UNL     1      13.114 -24.680  21.055  1.00  0.00     0.000 A
HETATM   16  C15 UNL     1      12.448 -25.591  20.283  1.00  0.00     0.001 A
HETATM   17  C16 UNL     1      13.120 -26.673  19.733  1.00  0.00     0.015 A
ENDBRANCH  10  12
BRANCH  11  18
HETATM   18  O3  UNL     1      15.652 -26.951  17.323  1.00  0.00    -0.281 OA
ATOM     19  H3  UNL     1      14.752 -26.662  17.226  1.00  0.00     0.245 HD
ENDBRANCH  11  18
BRANCH   7  20
HETATM   20  O2  UNL     1      16.398 -31.132  20.655  1.00  0.00    -0.267 OA
ATOM     21  H2  UNL     1      17.059 -31.773  20.424  1.00  0.00     0.247 HD
ENDBRANCH   7  20
BRANCH   4  22
HETATM   22  O1  UNL     1      16.868 -27.864  15.684  1.00  0.00    -0.358 OA
ATOM     23  H1  UNL     1      16.123 -27.291  15.827  1.00  0.00     0.217 HD
ENDBRANCH   4  22
BRANCH   1  24
HETATM   24  C2  UNL     1      17.776 -32.314  18.953  1.00  0.00    -0.059 C
HETATM   25  C1  UNL     1      18.825 -32.424  19.744  1.00  0.00     0.019 C
HETATM   26  C3  UNL     1      16.834 -33.466  18.853  1.00  0.00     0.048 C
ENDBRANCH   1  24
TORSDOF 5
ENDMDL