MODEL 4
REMARK VINA RESULT: -7.646503335      2.505      6.120
REMARK  3 active torsions:
REMARK  status: ('A' for Active; 'I' for Inactive)
REMARK    1  A    between atoms: O1_2  and  C2_3
REMARK    2  A    between atoms: N1_11  and  O2_12
REMARK    3  A    between atoms: N2_20  and  O3_21
ROOT
HETATM    1  C2  UNL     1      15.417 -35.112  12.981  1.00  0.00     0.069 A
HETATM    2  C3  UNL     1      15.354 -35.935  11.879  1.00  0.00     0.039 A
HETATM    3  C4  UNL     1      15.366 -37.315  11.978  1.00  0.00     0.036 A
HETATM    4  C5  UNL     1      15.441 -37.905  13.202  1.00  0.00     0.076 A
HETATM    5  C6  UNL     1      15.505 -37.101  14.318  1.00  0.00     0.036 A
HETATM    6  C7  UNL     1      15.494 -35.711  14.214  1.00  0.00     0.053 A
HETATM    7  C8  UNL     1      15.586 -37.537  15.625  1.00  0.00     0.142 C
HETATM    8  S1  UNL     1      15.756 -36.357  16.736  1.00  0.00    -0.057 SA
HETATM    9  N1  UNL     1      15.544 -38.794  16.107  1.00  0.00    -0.211 N
HETATM   10  C9  UNL     1      15.684 -39.944  15.422  1.00  0.00     0.093 A
HETATM   11  C10 UNL     1      15.899 -41.020  16.264  1.00  0.00     0.034 A
HETATM   12  C11 UNL     1      16.068 -42.290  15.753  1.00  0.00     0.002 A
HETATM   13  C12 UNL     1      16.025 -42.520  14.375  1.00  0.00     0.002 A
HETATM   14  C13 UNL     1      15.812 -41.462  13.540  1.00  0.00     0.034 A
HETATM   15  C14 UNL     1      15.643 -40.190  14.056  1.00  0.00     0.092 A
HETATM   16  N2  UNL     1      15.442 -39.245  13.116  1.00  0.00    -0.222 N
ENDROOT
BRANCH   1  17
HETATM   17  O1  UNL     1      15.402 -33.733  12.812  1.00  0.00    -0.356 OA
HETATM   18  C1  UNL     1      14.437 -32.998  13.556  1.00  0.00     0.210 C
ENDBRANCH   1  17
BRANCH  16  19
HETATM   19  O3  UNL     1      15.199 -39.813  11.867  1.00  0.00    -0.282 OA
ATOM     20  H3  UNL     1      14.293 -39.938  11.608  1.00  0.00     0.245 HD
ENDBRANCH  16  19
BRANCH   9  21
HETATM   21  O2  UNL     1      15.334 -38.945  17.458  1.00  0.00    -0.281 OA
ATOM     22  H2  UNL     1      15.823 -39.628  17.902  1.00  0.00     0.245 HD
ENDBRANCH   9  21
TORSDOF 3
ENDMDL