MODEL 5
REMARK VINA RESULT: -6.925397435      1.914      8.430
REMARK  7 active torsions:
REMARK  status: ('A' for Active; 'I' for Inactive)
REMARK    1  A    between atoms: O1_2  and  C2_3
REMARK    2  A    between atoms: C2_3  and  C3_5
REMARK    3  A    between atoms: C15_17  and  C16_18
REMARK    4  A    between atoms: C16_18  and  C19_21
REMARK    5  A    between atoms: C19_21  and  C20_22
REMARK    6  A    between atoms: C20_22  and  C21_23
REMARK    7  A    between atoms: C21_23  and  O3_24
ROOT
HETATM    1  C3  UNL     1      -0.301   1.973   1.130  1.00  0.00     0.086 C
HETATM    2  C4  UNL     1       0.414   0.666   0.917  1.00  0.00     0.015 C
HETATM    3  C5  UNL     1       1.885   0.919   0.966  1.00  0.00     0.006 C
HETATM    4  C6  UNL     1       2.230   1.623   2.287  1.00  0.00    -0.006 C
HETATM    5  C7  UNL     1       1.565   2.978   2.363  1.00  0.00    -0.009 C
HETATM    6  C8  UNL     1       2.520   4.111   2.370  1.00  0.00     0.006 C
HETATM    7  C9  UNL     1       3.721   4.017   3.227  1.00  0.00     0.010 C
HETATM    8  C10 UNL     1       4.225   2.605   3.499  1.00  0.00    -0.036 C
HETATM    9  C11 UNL     1       3.601   2.115   4.727  1.00  0.00     0.016 C
HETATM   10  C12 UNL     1       3.693   1.834   2.259  1.00  0.00    -0.002 C
HETATM   11  C13 UNL     1       4.546   0.627   2.163  1.00  0.00     0.006 C
HETATM   12  C14 UNL     1       5.713   0.887   3.098  1.00  0.00     0.006 C
HETATM   13  C15 UNL     1       5.657   2.424   3.239  1.00  0.00     0.002 C
HETATM   14  C22 UNL     1       0.683   3.120   1.134  1.00  0.00     0.019 C
ENDROOT
BRANCH  13  15
HETATM   15  C16 UNL     1       6.744   2.982   3.987  1.00  0.00    -0.043 C
HETATM   16  C17 UNL     1       8.034   2.165   4.014  1.00  0.00     0.015 C
HETATM   17  C18 UNL     1       6.303   2.652   5.512  1.00  0.00     0.015 C
BRANCH  15  18
HETATM   18  C19 UNL     1       7.051   4.408   4.123  1.00  0.00     0.011 C
BRANCH  18  19
HETATM   19  C20 UNL     1       6.622   5.207   5.278  1.00  0.00     0.027 C
BRANCH  19  20
HETATM   20  C21 UNL     1       6.631   6.689   4.799  1.00  0.00     0.164 C
BRANCH  20  21
HETATM   21  O3  UNL     1       5.481   6.934   4.067  1.00  0.00    -0.401 OA
ATOM     22  H3  UNL     1       5.710   7.020   3.148  1.00  0.00     0.209 HD
ENDBRANCH  20  21
ENDBRANCH  19  20
ENDBRANCH  18  19
ENDBRANCH  15  18
ENDBRANCH  13  15
BRANCH   1  23
HETATM   23  C2  UNL     1      -1.351   2.120   0.125  1.00  0.00     0.262 C
HETATM   24  O2  UNL     1      -1.057   2.545  -1.019  1.00  0.00    -0.265 OA
BRANCH  23  25
HETATM   25  O1  UNL     1      -2.691   1.814   0.356  1.00  0.00    -0.326 OA
HETATM   26  C1  UNL     1      -3.577   1.712  -0.742  1.00  0.00     0.213 C
ENDBRANCH  23  25
ENDBRANCH   1  23
TORSDOF 7
ENDMDL