MODEL 1
REMARK VINA RESULT: -6.444053806      0.000      0.000
REMARK  7 active torsions:
REMARK  status: ('A' for Active; 'I' for Inactive)
REMARK    1  A    between atoms: C2_2  and  N1_3
REMARK    2  A    between atoms: C2_2  and  C3_7
REMARK    3  A    between atoms: C3_7  and  C4_8
REMARK    4  A    between atoms: C4_8  and  C5_9
REMARK    5  A    between atoms: C5_9  and  C6_10
REMARK    6  A    between atoms: C6_10  and  C8_12
REMARK    7  A    between atoms: C12_16  and  C14_18
ROOT
HETATM    1  C14 UNL     1      -3.843   1.770  -0.776  1.00  0.00     0.133 C
HETATM    2  C15 UNL     1      -3.244   1.472  -2.065  1.00  0.00     0.059 C
HETATM    3  N2  UNL     1      -2.767   1.263  -3.099  1.00  0.00    -0.197 NA
ENDROOT
BRANCH   1   4
HETATM    4  C12 UNL     1      -3.208   1.118   0.407  1.00  0.00    -0.028 C
HETATM    5  C11 UNL     1      -1.794   1.376   0.678  1.00  0.00     0.006 C
HETATM    6  C10 UNL     1      -1.094   2.451  -0.069  1.00  0.00     0.007 C
HETATM    7  C19 UNL     1      -1.409   1.552   2.141  1.00  0.00    -0.006 C
HETATM    8  C9  UNL     1       0.415   2.328   0.006  1.00  0.00     0.009 C
HETATM    9  C8  UNL     1       0.967   1.842   1.296  1.00  0.00     0.027 C
HETATM   10  C21 UNL     1       0.066   1.121   2.215  1.00  0.00     0.094 A
HETATM   11  C22 UNL     1       0.387  -0.000   3.038  1.00  0.00     0.208 A
HETATM   12  O1  UNL     1      -0.058  -0.345   1.802  1.00  0.00    -0.374 OA
HETATM   13  C18 UNL     1      -2.211   0.551   2.989  1.00  0.00     0.012 C
HETATM   14  C20 UNL     1      -1.679   2.891   2.705  1.00  0.00     0.019 C
HETATM   15  C17 UNL     1      -3.679   0.704   2.829  1.00  0.00     0.002 C
HETATM   16  C16 UNL     1      -4.132   1.415   1.610  1.00  0.00     0.010 C
HETATM   17  C13 UNL     1      -3.434  -0.399   0.193  1.00  0.00     0.016 C
BRANCH   9  18
HETATM   18  C6  UNL     1       1.846   2.929   1.883  1.00  0.00    -0.012 C
HETATM   19  C7  UNL     1       3.101   2.543   2.528  1.00  0.00     0.010 C
BRANCH  18  20
HETATM   20  C5  UNL     1       2.023   4.081   0.943  1.00  0.00     0.005 C
BRANCH  20  21
HETATM   21  C4  UNL     1       1.791   5.449   1.398  1.00  0.00     0.002 C
BRANCH  21  22
HETATM   22  C3  UNL     1       2.423   6.601   0.717  1.00  0.00     0.032 C
BRANCH  22  23
HETATM   23  C2  UNL     1       1.439   7.215  -0.319  1.00  0.00     0.179 C
HETATM   24  C1  UNL     1       0.949   8.506   0.251  1.00  0.00     0.039 C
BRANCH  23  25
HETATM   25  N1  UNL     1       2.109   7.349  -1.586  1.00  0.00    -0.075 N
ATOM     26  H13 UNL     1       1.643   6.788  -2.298  1.00  0.00     0.274 HD
ATOM     27  H12 UNL     1       1.959   8.280  -1.974  1.00  0.00     0.274 HD
ATOM     28  H11 UNL     1       3.105   7.131  -1.554  1.00  0.00     0.274 HD
ENDBRANCH  23  25
ENDBRANCH  22  23
ENDBRANCH  21  22
ENDBRANCH  20  21
ENDBRANCH  18  20
ENDBRANCH   9  18
ENDBRANCH   1   4
TORSDOF 7
ENDMDL