MODEL 5
REMARK VINA RESULT: -8.146297444      0.691      1.352
REMARK  6 active torsions:
REMARK  status: ('A' for Active; 'I' for Inactive)
REMARK       I    between atoms: C1_2  and  N1_3
REMARK    1  A    between atoms: C1_2  and  O2_20
REMARK    2  A    between atoms: N1_3  and  C2_5
REMARK    3  A    between atoms: N2_8  and  C5_9
REMARK    4  A    between atoms: C5_9  and  C6_10
REMARK    5  A    between atoms: C6_10  and  C7_11
REMARK    6  A    between atoms: O2_20  and  C16_21
ROOT
HETATM    1  C2  UNL     1       0.931   3.182   1.049  1.00  0.00     0.096 C
HETATM    2  C3  UNL     1       1.840   1.972   0.998  1.00  0.00     0.070 C
HETATM    3  C4  UNL     1       3.094   2.210   1.759  1.00  0.00     0.065 C
HETATM    4  N2  UNL     1       3.022   2.950   2.931  1.00  0.00    -0.374 N
HETATM    5  C14 UNL     1       1.887   3.726   3.214  1.00  0.00     0.065 C
HETATM    6  C15 UNL     1       0.614   3.362   2.538  1.00  0.00     0.070 C
ENDROOT
BRANCH   1   7
HETATM    7  N1  UNL     1       1.617   4.373   0.617  1.00  0.00    -0.332 N
HETATM    8  C1  UNL     1       1.491   4.850  -0.733  1.00  0.00     0.361 C
HETATM    9  O1  UNL     1       0.780   4.228  -1.542  1.00  0.00    -0.238 OA
ATOM     10  H1  UNL     1       2.201   4.886   1.278  1.00  0.00     0.165 HD
BRANCH   8  11
HETATM   11  O2  UNL     1       2.135   5.985  -1.173  1.00  0.00    -0.299 OA
BRANCH  11  12
HETATM   12  C16 UNL     1       1.474   7.239  -1.267  1.00  0.00     0.133 C
HETATM   13  C17 UNL     1       1.453   7.820   0.131  1.00  0.00     0.032 C
HETATM   14  C18 UNL     1       0.580   9.036   0.148  1.00  0.00     0.002 C
HETATM   15  C19 UNL     1       1.125  10.041  -0.827  1.00  0.00     0.000 C
HETATM   16  C20 UNL     1       1.386   9.486  -2.189  1.00  0.00     0.002 C
HETATM   17  C21 UNL     1       2.227   8.218  -2.144  1.00  0.00     0.032 C
ENDBRANCH  11  12
ENDBRANCH   8  11
ENDBRANCH   1   7
BRANCH   4  18
HETATM   18  C5  UNL     1       3.735   2.449   4.076  1.00  0.00     0.127 C
BRANCH  18  19
HETATM   19  C6  UNL     1       5.194   2.640   3.849  1.00  0.00     0.024 C
BRANCH  19  20
HETATM   20  C7  UNL     1       5.868   3.586   4.814  1.00  0.00    -0.013 C
HETATM   21  C8  UNL     1       4.844   4.196   5.704  1.00  0.00     0.005 C
HETATM   22  C9  UNL     1       5.430   5.093   6.767  1.00  0.00     0.000 C
HETATM   23  C10 UNL     1       6.873   5.419   6.524  1.00  0.00     0.000 C
HETATM   24  C11 UNL     1       6.938   6.519   5.488  1.00  0.00     0.000 C
HETATM   25  C12 UNL     1       6.290   5.999   4.224  1.00  0.00     0.000 C
HETATM   26  C13 UNL     1       6.678   4.571   4.038  1.00  0.00     0.005 C
ENDBRANCH  19  20
ENDBRANCH  18  19
ENDBRANCH   4  18
TORSDOF 6
ENDMDL