MODEL 3
REMARK VINA RESULT: -7.665172660      4.631      8.685
REMARK  6 active torsions:
REMARK  status: ('A' for Active; 'I' for Inactive)
REMARK    1  A    between atoms: C2_2  and  C3_3
REMARK    2  A    between atoms: C3_3  and  C4_4
REMARK    3  A    between atoms: C4_4  and  O2_6
REMARK    4  A    between atoms: O2_6  and  C5_7
REMARK    5  A    between atoms: C7_9  and  N1_10
REMARK    6  A    between atoms: N1_10  and  C8_12
ROOT
HETATM    1  C5  UNL     1       2.171   3.420   1.301  1.00  0.00     0.138 C
HETATM    2  C6  UNL     1       2.396   4.043   2.655  1.00  0.00     0.057 C
HETATM    3  C7  UNL     1       3.509   3.438   3.424  1.00  0.00     0.080 C
HETATM    4  C16 UNL     1       3.919   2.129   2.738  1.00  0.00     0.034 C
HETATM    5  C17 UNL     1       2.715   1.289   2.478  1.00  0.00     0.022 C
HETATM    6  C18 UNL     1       3.184  -0.002   1.920  1.00  0.00    -0.085 C
HETATM    7  C19 UNL     1       3.780  -0.946   2.614  1.00  0.00     0.014 C
HETATM    8  C20 UNL     1       2.880  -0.061   0.477  1.00  0.00     0.034 C
HETATM    9  C21 UNL     1       2.356   1.308   0.092  1.00  0.00     0.012 C
HETATM   10  C22 UNL     1       1.893   1.946   1.382  1.00  0.00     0.024 C
ENDROOT
BRANCH   3  11
HETATM   11  N1  UNL     1       4.705   4.213   3.529  1.00  0.00    -0.412 N
ATOM     12  H1  UNL     1       5.354   4.282   2.745  1.00  0.00     0.154 HD
BRANCH  11  13
HETATM   13  C8  UNL     1       4.964   4.881   4.748  1.00  0.00     0.084 C
HETATM   14  C9  UNL     1       4.394   4.198   5.947  1.00  0.00     0.025 C
HETATM   15  C10 UNL     1       5.369   3.318   6.693  1.00  0.00     0.002 C
HETATM   16  C11 UNL     1       6.642   4.000   7.075  1.00  0.00     0.001 C
HETATM   17  C12 UNL     1       6.902   5.263   6.293  1.00  0.00     0.011 C
HETATM   18  C13 UNL     1       6.470   5.105   4.853  1.00  0.00    -0.028 C
HETATM   19  C14 UNL     1       7.269   4.026   4.175  1.00  0.00     0.017 C
HETATM   20  C15 UNL     1       6.817   6.434   4.169  1.00  0.00     0.017 C
ENDBRANCH  11  13
ENDBRANCH   3  11
BRANCH   1  21
HETATM   21  O2  UNL     1       1.163   4.062   0.589  1.00  0.00    -0.315 OA
BRANCH  21  22
HETATM   22  C4  UNL     1       1.409   4.826  -0.552  1.00  0.00     0.262 C
HETATM   23  O1  UNL     1       0.920   4.386  -1.618  1.00  0.00    -0.265 OA
BRANCH  22  24
HETATM   24  C3  UNL     1       2.182   6.068  -0.557  1.00  0.00     0.137 C
BRANCH  24  25
HETATM   25  C2  UNL     1       1.787   7.021   0.500  1.00  0.00    -0.027 C
HETATM   26  C1  UNL     1       1.075   8.087   0.177  1.00  0.00     0.007 C
ENDBRANCH  24  25
ENDBRANCH  22  24
ENDBRANCH  21  22
ENDBRANCH   1  21
TORSDOF 6
ENDMDL