MODEL 4
REMARK VINA RESULT: -7.450629037      3.120      7.353
REMARK  7 active torsions:
REMARK  status: ('A' for Active; 'I' for Inactive)
REMARK    1  A    between atoms: C2_2  and  C4_4
REMARK    2  A    between atoms: C8_8  and  C9_9
REMARK    3  A    between atoms: C9_9  and  O2_11
REMARK    4  A    between atoms: O2_11  and  C10_12
REMARK    5  A    between atoms: C10_12  and  C11_13
REMARK    6  A    between atoms: C11_13  and  C12_14
REMARK    7  A    between atoms: C12_14  and  O3_15
ROOT
HETATM    1  C4  UNL     1      -0.069  10.890  -1.475  1.00  0.00     0.044 C
HETATM    2  C5  UNL     1      -0.998   9.799  -1.164  1.00  0.00    -0.020 C
HETATM    3  C6  UNL     1      -0.376   8.803  -0.545  1.00  0.00    -0.024 C
HETATM    4  C7  UNL     1       1.048   9.064  -0.344  1.00  0.00     0.030 C
HETATM    5  C8  UNL     1       2.003   8.188  -1.068  1.00  0.00     0.094 C
HETATM    6  C18 UNL     1       1.989   8.422  -2.566  1.00  0.00     0.015 C
HETATM    7  C19 UNL     1       2.384   9.850  -2.889  1.00  0.00     0.002 C
HETATM    8  C20 UNL     1       2.418  10.706  -1.640  1.00  0.00     0.011 C
HETATM    9  C21 UNL     1       1.194  10.520  -0.770  1.00  0.00    -0.026 C
HETATM   10  C22 UNL     1       1.392  11.333   0.481  1.00  0.00     0.017 C
ENDROOT
BRANCH   5  11
HETATM   11  C9  UNL     1       1.788   6.747  -0.824  1.00  0.00     0.263 C
HETATM   12  O1  UNL     1       1.887   5.952  -1.786  1.00  0.00    -0.265 OA
BRANCH  11  13
HETATM   13  O2  UNL     1       1.485   6.221   0.402  1.00  0.00    -0.320 OA
BRANCH  13  14
HETATM   14  C10 UNL     1       2.154   5.501   1.317  1.00  0.00     0.190 C
BRANCH  14  15
HETATM   15  C11 UNL     1       1.662   4.252   1.935  1.00  0.00     0.003 C
HETATM   16  C13 UNL     1       2.857   3.322   2.278  1.00  0.00     0.014 C
HETATM   17  C14 UNL     1       2.492   1.876   2.162  1.00  0.00     0.001 C
HETATM   18  C15 UNL     1       2.445   1.526   0.678  1.00  0.00     0.000 C
HETATM   19  C16 UNL     1       1.800   2.703  -0.028  1.00  0.00     0.001 C
HETATM   20  C17 UNL     1       0.854   3.429   0.898  1.00  0.00     0.014 C
BRANCH  15  21
HETATM   21  C12 UNL     1       0.825   4.281   3.154  1.00  0.00     0.175 C
BRANCH  21  22
HETATM   22  O3  UNL     1       1.542   4.391   4.316  1.00  0.00    -0.400 OA
ATOM     23  H3  UNL     1       1.331   3.728   4.962  1.00  0.00     0.209 HD
ENDBRANCH  21  22
ENDBRANCH  15  21
ENDBRANCH  14  15
ENDBRANCH  13  14
ENDBRANCH  11  13
ENDBRANCH   5  11
BRANCH   1  24
HETATM   24  C2  UNL     1      -0.591  12.243  -1.139  1.00  0.00    -0.085 C
HETATM   25  C1  UNL     1      -1.779  12.333  -0.564  1.00  0.00     0.014 C
HETATM   26  C3  UNL     1       0.173  13.470  -1.449  1.00  0.00     0.043 C
ENDBRANCH   1  24
TORSDOF 7
ENDMDL