MODEL 5
REMARK VINA RESULT: -8.409258650      4.362      6.543
REMARK  5 active torsions:
REMARK  status: ('A' for Active; 'I' for Inactive)
REMARK    1  A    between atoms: C1_2  and  C2_3
REMARK    2  A    between atoms: C1_2  and  C17_21
REMARK    3  A    between atoms: C2_3  and  C3_4
REMARK    4  A    between atoms: C8_9  and  N1_10
REMARK       I    between atoms: N1_10  and  C9_12
REMARK    5  A    between atoms: C9_12  and  C10_14
ROOT
HETATM    1  C3  UNL     1       1.312   7.446  -0.644  1.00  0.00    -0.005 C
HETATM    2  C4  UNL     1       2.316   7.649  -1.785  1.00  0.00     0.005 C
HETATM    3  C5  UNL     1       2.373   6.413  -2.657  1.00  0.00     0.000 C
HETATM    4  C6  UNL     1       2.659   5.156  -1.905  1.00  0.00     0.002 C
HETATM    5  C7  UNL     1       1.506   4.689  -1.049  1.00  0.00     0.025 C
HETATM    6  C8  UNL     1       1.620   5.178   0.376  1.00  0.00     0.084 C
HETATM    7  C16 UNL     1       1.956   6.636   0.458  1.00  0.00     0.030 C
ENDROOT
BRANCH   6   8
HETATM    8  N1  UNL     1       2.587   4.396   1.145  1.00  0.00    -0.356 N
HETATM    9  C9  UNL     1       2.374   4.115   2.522  1.00  0.00     0.222 C
HETATM   10  O2  UNL     1       1.342   4.538   3.110  1.00  0.00    -0.273 OA
ATOM     11  H1  UNL     1       3.427   4.045   0.686  1.00  0.00     0.162 HD
BRANCH   9  12
HETATM   12  C10 UNL     1       3.361   3.328   3.261  1.00  0.00     0.078 C
HETATM   13  C11 UNL     1       3.857   2.164   2.394  1.00  0.00     0.014 C
HETATM   14  C12 UNL     1       4.738   1.312   3.258  1.00  0.00     0.001 C
HETATM   15  C13 UNL     1       5.883   2.053   3.876  1.00  0.00     0.000 C
HETATM   16  C14 UNL     1       5.458   3.356   4.510  1.00  0.00     0.001 C
HETATM   17  C15 UNL     1       4.591   4.167   3.577  1.00  0.00     0.014 C
ENDBRANCH   9  12
ENDBRANCH   6   8
BRANCH   1  18
HETATM   18  C2  UNL     1       1.022   8.824  -0.109  1.00  0.00     0.089 C
BRANCH  18  19
HETATM   19  C1  UNL     1      -0.153   9.477  -0.713  1.00  0.00     0.166 C
HETATM   20  O1  UNL     1      -1.167   8.874  -1.140  1.00  0.00    -0.292 OA
BRANCH  19  21
HETATM   21  C17 UNL     1      -0.140  10.937  -0.828  1.00  0.00     0.050 A
HETATM   22  C18 UNL     1      -1.208  11.788  -0.813  1.00  0.00     0.023 A
HETATM   23  C19 UNL     1      -0.956  13.102  -0.933  1.00  0.00     0.009 A
HETATM   24  C20 UNL     1       0.352  13.481  -1.061  1.00  0.00     0.050 A
HETATM   25  S1  UNL     1       1.186  11.993  -1.009  1.00  0.00    -0.098 SA
ENDBRANCH  19  21
ENDBRANCH  18  19
ENDBRANCH   1  18
TORSDOF 5
ENDMDL