MODEL 1
REMARK VINA RESULT: -7.962642823      0.000      0.000
REMARK  6 active torsions:
REMARK  status: ('A' for Active; 'I' for Inactive)
REMARK       I    between atoms: C1_2  and  N1_3
REMARK    1  A    between atoms: C1_2  and  C13_19
REMARK    2  A    between atoms: N1_3  and  C2_5
REMARK    3  A    between atoms: C2_5  and  C3_6
REMARK    4  A    between atoms: C3_6  and  C4_7
REMARK    5  A    between atoms: C4_7  and  S1_8
REMARK    6  A    between atoms: S1_8  and  C5_9
REMARK       I    between atoms: C5_9  and  N2_11
ROOT
HETATM    1  C3  UNL     1       1.755   4.556   0.854  1.00  0.00     0.030 C
ENDROOT
BRANCH   1   2
HETATM    2  C2  UNL     1       2.373   5.894   1.076  1.00  0.00     0.123 C
BRANCH   2   3
HETATM    3  N1  UNL     1       1.573   6.984   0.628  1.00  0.00    -0.361 N
HETATM    4  C1  UNL     1       1.641   7.507  -0.683  1.00  0.00     0.221 C
HETATM    5  O1  UNL     1       2.432   6.995  -1.503  1.00  0.00    -0.273 OA
ATOM      6  H1  UNL     1       0.918   7.408   1.286  1.00  0.00     0.162 HD
BRANCH   4   7
HETATM    7  C13 UNL     1       0.808   8.646  -1.140  1.00  0.00     0.078 C
HETATM    8  C14 UNL     1       0.399   9.483   0.030  1.00  0.00     0.014 C
HETATM    9  C15 UNL     1      -0.157  10.794  -0.486  1.00  0.00     0.001 C
HETATM   10  C16 UNL     1       0.916  11.622  -1.158  1.00  0.00     0.000 C
HETATM   11  C17 UNL     1       1.986  10.772  -1.783  1.00  0.00     0.001 C
HETATM   12  C18 UNL     1       1.487   9.437  -2.235  1.00  0.00     0.014 C
ENDBRANCH   4   7
ENDBRANCH   2   3
ENDBRANCH   1   2
BRANCH   1  13
HETATM   13  C4  UNL     1       1.578   3.836   2.180  1.00  0.00     0.086 C
BRANCH  13  14
HETATM   14  S1  UNL     1       3.110   3.047   2.728  1.00  0.00    -0.069 SA
BRANCH  14  15
HETATM   15  C5  UNL     1       3.402   3.442   4.442  1.00  0.00     0.281 C
HETATM   16  O2  UNL     1       2.734   2.833   5.314  1.00  0.00    -0.260 OA
HETATM   17  N2  UNL     1       4.373   4.430   4.819  1.00  0.00    -0.343 N
HETATM   18  C6  UNL     1       5.032   5.013   3.691  1.00  0.00     0.126 C
HETATM   19  C12 UNL     1       4.433   4.583   6.262  1.00  0.00     0.126 C
HETATM   20  C7  UNL     1       5.509   6.400   4.032  1.00  0.00     0.020 C
HETATM   21  C8  UNL     1       6.895   6.431   4.599  1.00  0.00     0.002 C
HETATM   22  C9  UNL     1       6.944   5.970   6.043  1.00  0.00     0.000 C
HETATM   23  C10 UNL     1       6.952   4.479   6.156  1.00  0.00     0.002 C
HETATM   24  C11 UNL     1       5.686   3.951   6.775  1.00  0.00     0.020 C
ENDBRANCH  14  15
ENDBRANCH  13  14
ENDBRANCH   1  13
TORSDOF 6
ENDMDL