MODEL 2
REMARK VINA RESULT: -6.947707362      2.837      7.029
REMARK  6 active torsions:
REMARK  status: ('A' for Active; 'I' for Inactive)
REMARK    1  A    between atoms: C13_13  and  C14_14
REMARK    2  A    between atoms: C14_14  and  C15_15
REMARK    3  A    between atoms: C15_15  and  O1_16
REMARK    4  A    between atoms: O1_16  and  C16_17
REMARK    5  A    between atoms: C16_17  and  C17_19
REMARK    6  A    between atoms: C17_19  and  C18_20
ROOT
HETATM    1  C1  UNL     1       4.969   8.107  -7.265  1.00  0.00     0.015 C
HETATM    2  C2  UNL     1       5.394   7.216  -6.118  1.00  0.00    -0.044 C
HETATM    3  C3  UNL     1       6.839   7.509  -5.826  1.00  0.00     0.015 C
HETATM    4  C4  UNL     1       5.308   5.787  -6.612  1.00  0.00     0.009 C
HETATM    5  C5  UNL     1       3.913   5.418  -7.061  1.00  0.00     0.001 C
HETATM    6  C6  UNL     1       2.890   6.110  -6.163  1.00  0.00     0.005 C
HETATM    7  C7  UNL     1       3.552   6.262  -4.810  1.00  0.00    -0.005 C
HETATM    8  C8  UNL     1       4.506   7.417  -4.910  1.00  0.00    -0.002 C
HETATM    9  C9  UNL     1       5.283   7.463  -3.628  1.00  0.00     0.006 C
HETATM   10  C10 UNL     1       4.539   6.824  -2.467  1.00  0.00     0.010 C
HETATM   11  C11 UNL     1       3.108   7.227  -2.515  1.00  0.00    -0.036 C
HETATM   12  C12 UNL     1       2.963   8.711  -2.646  1.00  0.00     0.016 C
HETATM   13  C13 UNL     1       2.195   6.668  -1.499  1.00  0.00    -0.004 C
HETATM   14  C19 UNL     1       2.298   5.189  -1.763  1.00  0.00     0.006 C
HETATM   15  C20 UNL     1       2.055   5.167  -3.260  1.00  0.00     0.006 C
HETATM   16  C21 UNL     1       2.517   6.536  -3.776  1.00  0.00    -0.002 C
ENDROOT
BRANCH  13  17
HETATM   17  C14 UNL     1       2.149   7.138  -0.132  1.00  0.00     0.032 C
BRANCH  17  18
HETATM   18  C15 UNL     1       0.982   7.860   0.403  1.00  0.00     0.179 C
BRANCH  18  19
HETATM   19  O1  UNL     1       1.099   9.260   0.377  1.00  0.00    -0.321 OA
BRANCH  19  20
HETATM   20  C16 UNL     1       0.269  10.094  -0.317  1.00  0.00     0.268 C
HETATM   21  O2  UNL     1      -0.561   9.601  -1.125  1.00  0.00    -0.265 OA
BRANCH  20  22
HETATM   22  C17 UNL     1       0.322  11.598  -0.140  1.00  0.00     0.224 C
BRANCH  22  23
HETATM   23  C18 UNL     1       1.093  12.239  -1.208  1.00  0.00     0.182 C
HETATM   24  O3  UNL     1       2.267  11.894  -1.464  1.00  0.00    -0.648 OA
HETATM   25  O4  UNL     1       0.454  13.258  -1.930  1.00  0.00    -0.648 OA
ENDBRANCH  22  23
ENDBRANCH  20  22
ENDBRANCH  19  20
ENDBRANCH  18  19
ENDBRANCH  17  18
ENDBRANCH  13  17
TORSDOF 6
ENDMDL