MODEL 3
REMARK VINA RESULT: -7.950219809      0.929      2.525
REMARK  6 active torsions:
REMARK  status: ('A' for Active; 'I' for Inactive)
REMARK    1  A    between atoms: C11_11  and  C12_12
REMARK    2  A    between atoms: C12_12  and  C13_13
REMARK    3  A    between atoms: C13_13  and  C14_14
REMARK    4  A    between atoms: C14_14  and  C15_15
REMARK    5  A    between atoms: C15_15  and  O2_17
REMARK    6  A    between atoms: O2_17  and  C16_18
ROOT
HETATM    1  C16 UNL     1       0.079  13.307  -1.399  1.00  0.00     0.302 C
HETATM    2  C17 UNL     1      -1.116  12.728  -0.817  1.00  0.00     0.085 C
HETATM    3  N1  UNL     1      -2.068  12.244  -0.359  1.00  0.00    -0.195 NA
ENDROOT
BRANCH   1   4
HETATM    4  O2  UNL     1       1.205  12.839  -0.676  1.00  0.00    -0.307 OA
BRANCH   4   5
HETATM    5  C15 UNL     1       1.506  11.490  -0.735  1.00  0.00     0.259 C
HETATM    6  O1  UNL     1       1.309  10.722   0.252  1.00  0.00    -0.265 OA
BRANCH   5   7
HETATM    7  C14 UNL     1       2.079  10.943  -1.990  1.00  0.00     0.111 C
BRANCH   7   8
HETATM    8  C13 UNL     1       1.236   9.794  -2.524  1.00  0.00     0.010 C
BRANCH   8   9
HETATM    9  C12 UNL     1       2.139   8.635  -2.769  1.00  0.00     0.005 C
BRANCH   9  10
HETATM   10  C11 UNL     1       2.369   7.765  -1.562  1.00  0.00    -0.014 C
HETATM   11  C10 UNL     1       3.381   6.706  -1.982  1.00  0.00     0.005 C
HETATM   12  C9  UNL     1       2.493   5.491  -2.166  1.00  0.00     0.010 C
HETATM   13  C8  UNL     1       1.631   5.604  -0.900  1.00  0.00    -0.040 C
HETATM   14  C7  UNL     1       0.516   4.616  -0.885  1.00  0.00     0.010 C
HETATM   15  C18 UNL     1       1.140   7.046  -1.081  1.00  0.00     0.014 C
HETATM   16  C19 UNL     1       2.551   5.468   0.261  1.00  0.00     0.015 C
HETATM   17  C6  UNL     1       1.139   3.272  -0.527  1.00  0.00     0.014 C
HETATM   18  C4  UNL     1       1.485   3.291   0.972  1.00  0.00    -0.022 C
HETATM   19  C3  UNL     1       2.446   2.184   1.213  1.00  0.00    -0.015 C
HETATM   20  C5  UNL     1       0.183   2.888   1.659  1.00  0.00     0.020 C
HETATM   21  C20 UNL     1       1.965   4.627   1.409  1.00  0.00    -0.002 C
HETATM   22  C2  UNL     1       3.204   2.210   2.300  1.00  0.00    -0.087 C
HETATM   23  C1  UNL     1       4.155   1.081   2.506  1.00  0.00     0.043 C
HETATM   24  C22 UNL     1       3.092   3.343   3.247  1.00  0.00     0.034 C
HETATM   25  C21 UNL     1       3.026   4.630   2.469  1.00  0.00     0.010 C
ENDBRANCH   9  10
ENDBRANCH   8   9
ENDBRANCH   7   8
ENDBRANCH   5   7
ENDBRANCH   4   5
ENDBRANCH   1   4
TORSDOF 6
ENDMDL