MODEL 3
REMARK VINA RESULT: -6.464941804      1.486      2.775
REMARK  7 active torsions:
REMARK  status: ('A' for Active; 'I' for Inactive)
REMARK    1  A    between atoms: C11_11  and  C12_12
REMARK    2  A    between atoms: C13_13  and  C14_14
REMARK    3  A    between atoms: C18_18  and  C19_19
REMARK    4  A    between atoms: C18_18  and  C20_22
REMARK    5  A    between atoms: C19_19  and  O1_20
REMARK    6  A    between atoms: C20_22  and  O2_23
REMARK    7  A    between atoms: O2_23  and  C21_24
ROOT
HETATM    1  C14 UNL     1       1.958   2.820   1.833  1.00  0.00     0.020 C
HETATM    2  C15 UNL     1       1.903   4.264   1.560  1.00  0.00     0.009 C
HETATM    3  C16 UNL     1       1.757   4.260   0.028  1.00  0.00     0.002 C
HETATM    4  C17 UNL     1       0.596   3.282  -0.097  1.00  0.00     0.014 C
HETATM    5  C18 UNL     1       0.793   2.274   1.045  1.00  0.00     0.010 C
ENDROOT
BRANCH   1   6
HETATM    6  C13 UNL     1       3.166   2.024   1.760  1.00  0.00    -0.024 C
HETATM    7  C12 UNL     1       4.225   1.857   2.707  1.00  0.00    -0.021 C
BRANCH   7   8
HETATM    8  C11 UNL     1       5.205   2.766   3.251  1.00  0.00     0.040 C
HETATM    9  C2  UNL     1       4.895   3.961   4.002  1.00  0.00    -0.081 C
HETATM   10  C1  UNL     1       5.264   5.214   3.675  1.00  0.00     0.015 C
HETATM   11  C3  UNL     1       4.119   3.768   5.275  1.00  0.00     0.034 C
HETATM   12  C4  UNL     1       4.631   2.569   6.010  1.00  0.00     0.010 C
HETATM   13  C5  UNL     1       5.899   1.981   5.561  1.00  0.00    -0.001 C
HETATM   14  C6  UNL     1       6.224   1.989   4.119  1.00  0.00     0.003 C
HETATM   15  C8  UNL     1       7.200   2.632   5.916  1.00  0.00    -0.043 C
HETATM   16  C7  UNL     1       7.420   2.839   4.408  1.00  0.00     0.015 C
HETATM   17  C9  UNL     1       7.193   3.863   6.739  1.00  0.00     0.015 C
HETATM   18  C10 UNL     1       8.268   1.658   6.434  1.00  0.00     0.015 C
ENDBRANCH   7   8
ENDBRANCH   1   6
BRANCH   5  19
HETATM   19  C19 UNL     1       0.926   0.916   0.471  1.00  0.00     0.176 C
BRANCH  19  20
HETATM   20  O1  UNL     1      -0.061   0.585  -0.411  1.00  0.00    -0.400 OA
ATOM     21  H1  UNL     1      -0.482   1.332  -0.821  1.00  0.00     0.209 HD
ENDBRANCH  19  20
ENDBRANCH   5  19
BRANCH   5  22
HETATM   22  C20 UNL     1      -0.467   2.390   1.913  1.00  0.00     0.191 C
BRANCH  22  23
HETATM   23  O2  UNL     1      -1.615   2.519   1.091  1.00  0.00    -0.321 OA
BRANCH  23  24
HETATM   24  C21 UNL     1      -2.833   2.204   1.665  1.00  0.00     0.254 C
HETATM   25  C22 UNL     1      -3.927   1.697   0.797  1.00  0.00     0.126 C
HETATM   26  O3  UNL     1      -3.008   2.350   2.919  1.00  0.00    -0.266 OA
ENDBRANCH  23  24
ENDBRANCH  22  23
ENDBRANCH   5  22
TORSDOF 7
ENDMDL