MODEL 2
REMARK VINA RESULT: -6.187609545      2.241      5.110
REMARK  9 active torsions:
REMARK  status: ('A' for Active; 'I' for Inactive)
REMARK    1  A    between atoms: N1_1  and  C1_5
REMARK    2  A    between atoms: C1_5  and  C2_6
REMARK    3  A    between atoms: C2_6  and  N2_7
REMARK    4  A    between atoms: N2_7  and  C3_8
REMARK    5  A    between atoms: N2_7  and  C4_11
REMARK    6  A    between atoms: C3_8  and  O1_9
REMARK    7  A    between atoms: C4_11  and  O2_12
REMARK    8  A    between atoms: C4_11  and  C5_14
REMARK    9  A    between atoms: C5_14  and  N3_15
ROOT
HETATM    1  N2  UNL     1      86.957  74.262  30.166  1.00  0.00    -0.319 N
ENDROOT
BRANCH   1   2
HETATM    2  C2  UNL     1      85.570  74.496  30.080  1.00  0.00     0.106 C
BRANCH   2   3
HETATM    3  C1  UNL     1      84.647  74.179  31.155  1.00  0.00     0.155 C
HETATM    4  C9  UNL     1      85.032  73.753  32.515  1.00  0.00     0.044 C
HETATM    5  C10 UNL     1      83.625  73.118  32.579  1.00  0.00     0.005 C
HETATM    6  C11 UNL     1      83.875  72.864  31.071  1.00  0.00     0.044 C
BRANCH   3   7
HETATM    7  N1  UNL     1      83.635  75.257  31.266  1.00  0.00    -0.066 N
ATOM      8  H13 UNL     1      83.594  75.653  32.205  1.00  0.00     0.275 HD
ATOM      9  H12 UNL     1      83.913  76.100  30.765  1.00  0.00     0.275 HD
ATOM     10  H11 UNL     1      82.730  74.903  30.956  1.00  0.00     0.275 HD
ENDBRANCH   3   7
ENDBRANCH   2   3
ENDBRANCH   1   2
BRANCH   1  11
HETATM   11  C3  UNL     1      87.739  75.386  30.785  1.00  0.00     0.296 C
BRANCH  11  12
HETATM   12  O1  UNL     1      88.069  76.268  29.727  1.00  0.00    -0.382 OA
ATOM     13  H1  UNL     1      87.494  77.019  29.817  1.00  0.00     0.211 HD
ENDBRANCH  11  12
ENDBRANCH   1  11
BRANCH   1  14
HETATM   14  C4  UNL     1      87.741  73.154  29.807  1.00  0.00     0.157 C
BRANCH  14  15
HETATM   15  O2  UNL     1      88.360  73.316  28.668  1.00  0.00    -0.347 OA
ATOM     16  H2  UNL     1      87.795  73.178  27.916  1.00  0.00     0.219 HD
ENDBRANCH  14  15
BRANCH  14  17
HETATM   17  C5  UNL     1      88.004  71.892  30.443  1.00  0.00     0.196 C
HETATM   18  C6  UNL     1      88.655  72.029  31.817  1.00  0.00     0.058 C
HETATM   19  C7  UNL     1      89.267  70.658  32.079  1.00  0.00     0.077 C
HETATM   20  S1  UNL     1      87.903  69.576  31.485  1.00  0.00    -0.166 SA
HETATM   21  C8  UNL     1      86.924  70.895  30.626  1.00  0.00     0.121 C
BRANCH  17  22
HETATM   22  N3  UNL     1      89.044  71.187  29.645  1.00  0.00    -0.062 N
ATOM     23  H33 UNL     1      88.975  71.380  28.646  1.00  0.00     0.275 HD
ATOM     24  H32 UNL     1      89.979  71.566  29.792  1.00  0.00     0.275 HD
ATOM     25  H31 UNL     1      88.983  70.191  29.860  1.00  0.00     0.275 HD
ENDBRANCH  17  22
ENDBRANCH  14  17
ENDBRANCH   1  14
TORSDOF 9
ENDMDL