MODEL 5
REMARK VINA RESULT: -6.042219179      4.399      6.634
REMARK  5 active torsions:
REMARK  status: ('A' for Active; 'I' for Inactive)
REMARK    1  A    between atoms: C1_2  and  C2_3
REMARK       I    between atoms: C1_2  and  N2_17
REMARK    2  A    between atoms: C3_4  and  C4_5
REMARK    3  A    between atoms: C6_7  and  O2_8
REMARK    4  A    between atoms: C7_10  and  O3_11
REMARK    5  A    between atoms: N2_17  and  C9_19
ROOT
HETATM    1  C4  UNL     1      87.136  73.699  30.099  1.00  0.00     0.211 C
HETATM    2  C5  UNL     1      86.552  74.828  30.919  1.00  0.00     0.071 C
HETATM    3  C6  UNL     1      85.101  74.976  30.607  1.00  0.00     0.150 C
HETATM    4  C7  UNL     1      84.438  73.636  30.609  1.00  0.00     0.172 C
HETATM    5  C8  UNL     1      85.329  72.565  31.203  1.00  0.00     0.267 C
HETATM    6  N1  UNL     1      86.562  72.420  30.453  1.00  0.00    -0.065 N
ATOM      7  H11 UNL     1      87.234  71.839  30.954  1.00  0.00     0.278 HD
ATOM      8  H12 UNL     1      86.426  71.835  29.629  1.00  0.00     0.278 HD
ENDROOT
BRANCH   1   9
HETATM    9  C3  UNL     1      88.613  73.608  30.240  1.00  0.00     0.011 C
HETATM   10  C2  UNL     1      89.157  73.051  31.304  1.00  0.00     0.072 C
BRANCH  10  11
HETATM   11  C1  UNL     1      90.600  72.952  31.461  1.00  0.00     0.241 C
HETATM   12  O1  UNL     1      91.274  74.006  31.546  1.00  0.00    -0.269 OA
HETATM   13  N2  UNL     1      91.213  71.695  31.516  1.00  0.00    -0.344 N
ATOM     14  H2  UNL     1      90.620  70.867  31.444  1.00  0.00     0.164 HD
BRANCH  13  15
HETATM   15  C9  UNL     1      92.640  71.500  31.671  1.00  0.00     0.147 C
HETATM   16  C10 UNL     1      93.043  70.040  31.900  1.00  0.00     0.046 C
HETATM   17  C11 UNL     1      94.405  70.396  31.351  1.00  0.00     0.079 C
HETATM   18  S1  UNL     1      93.570  71.444  30.118  1.00  0.00    -0.144 SA
ENDBRANCH  13  15
ENDBRANCH  10  11
ENDBRANCH   1   9
BRANCH   3  19
HETATM   19  O2  UNL     1      84.930  75.585  29.360  1.00  0.00    -0.393 OA
ATOM     20  H2  UNL     1      85.766  75.878  29.017  1.00  0.00     0.210 HD
ENDBRANCH   3  19
BRANCH   4  21
HETATM   21  O3  UNL     1      83.255  73.630  31.356  1.00  0.00    -0.391 OA
ATOM     22  H3  UNL     1      82.897  74.503  31.469  1.00  0.00     0.210 HD
ENDBRANCH   4  21
TORSDOF 5
ENDMDL