MODEL 4
REMARK VINA RESULT: -6.033326045      1.395      6.633
REMARK  3 active torsions:
REMARK  status: ('A' for Active; 'I' for Inactive)
REMARK    1  A    between atoms: N1_3  and  C3_5
REMARK    2  A    between atoms: C3_5  and  C6_8
REMARK    3  A    between atoms: C8_13  and  C9_14
ROOT
HETATM    1  C1  UNL     1      91.056  70.060  27.546  1.00  0.00     0.037 C
HETATM    2  C2  UNL     1      91.195  71.037  28.253  1.00  0.00    -0.005 C
HETATM    3  N1  UNL     1      91.362  72.157  29.078  1.00  0.00    -0.341 N
ATOM      4  H1  UNL     1      91.957  72.926  28.767  1.00  0.00     0.170 HD
ENDROOT
BRANCH   3   5
HETATM    5  C3  UNL     1      90.705  72.239  30.362  1.00  0.00     0.044 C
HETATM    6  C4  UNL     1      90.918  70.926  31.122  1.00  0.00     0.039 C
HETATM    7  C5  UNL     1      91.332  73.322  31.163  1.00  0.00     0.039 C
BRANCH   5   8
HETATM    8  C6  UNL     1      89.234  72.389  30.153  1.00  0.00     0.101 C
HETATM    9  C7  UNL     1      88.658  73.667  30.651  1.00  0.00     0.251 C
HETATM   10  N2  UNL     1      87.451  73.468  31.431  1.00  0.00    -0.062 N
HETATM   11  C8  UNL     1      86.383  72.887  30.670  1.00  0.00     0.261 C
ATOM     12  H22 UNL     1      87.645  72.917  32.267  1.00  0.00     0.278 HD
ATOM     13  H21 UNL     1      87.154  74.338  31.871  1.00  0.00     0.278 HD
HETATM   14  C12 UNL     1      86.546  71.400  30.461  1.00  0.00     0.115 C
HETATM   15  S1  UNL     1      88.286  71.012  30.858  1.00  0.00    -0.158 SA
BRANCH  11  16
HETATM   16  C9  UNL     1      85.098  73.100  31.418  1.00  0.00     0.105 C
HETATM   17  N3  UNL     1      84.681  74.147  32.009  1.00  0.00    -0.377 N
HETATM   18  C10 UNL     1      83.386  73.977  32.628  1.00  0.00     0.140 C
ATOM     19  H3  UNL     1      85.207  75.020  32.042  1.00  0.00     0.160 HD
HETATM   20  C11 UNL     1      82.870  72.710  32.041  1.00  0.00     0.140 C
HETATM   21  N4  UNL     1      84.113  72.086  31.572  1.00  0.00    -0.377 N
ATOM     22  H4  UNL     1      84.248  71.091  31.386  1.00  0.00     0.160 HD
ENDBRANCH  11  16
ENDBRANCH   5   8
ENDBRANCH   3   5
TORSDOF 3
ENDMDL