MODEL 3
REMARK VINA RESULT: -6.419785921      2.771      5.965
REMARK  5 active torsions:
REMARK  status: ('A' for Active; 'I' for Inactive)
REMARK    1  A    between atoms: C3_3  and  C4_4
REMARK    2  A    between atoms: C5_6  and  N1_7
REMARK    3  A    between atoms: N1_7  and  C6_9
REMARK    4  A    between atoms: C10_16  and  N3_17
REMARK    5  A    between atoms: C11_22  and  O3_24
ROOT
HETATM    1  N1  UNL     1      87.235  72.503  31.145  1.00  0.00    -0.390 N
ATOM      2  H1  UNL     1      87.185  72.188  30.176  1.00  0.00     0.156 HD
ENDROOT
BRANCH   1   3
HETATM    3  C5  UNL     1      88.249  72.021  31.950  1.00  0.00     0.231 C
HETATM    4  C3  UNL     1      89.663  72.460  31.511  1.00  0.00     0.104 C
HETATM    5  C2  UNL     1      90.413  71.743  32.649  1.00  0.00     0.058 C
HETATM    6  C1  UNL     1      91.858  71.640  32.411  1.00  0.00     0.016 C
HETATM    7  C11 UNL     1      89.642  70.464  32.711  1.00  0.00     0.164 C
HETATM    8  O2  UNL     1      88.472  70.633  31.958  1.00  0.00    -0.331 OA
HETATM    9  C12 UNL     1      90.375  69.248  32.258  1.00  0.00     0.079 C
BRANCH   4  10
HETATM   10  C4  UNL     1      90.070  71.841  30.240  1.00  0.00     0.240 C
HETATM   11  O1  UNL     1      89.544  72.001  29.154  1.00  0.00    -0.306 OA
ENDBRANCH   4  10
BRANCH   7  12
HETATM   12  O3  UNL     1      89.235  70.239  34.044  1.00  0.00    -0.365 OA
ATOM     13  H3  UNL     1      88.456  70.755  34.219  1.00  0.00     0.213 HD
ENDBRANCH   7  12
ENDBRANCH   1   3
BRANCH   1  14
HETATM   14  C6  UNL     1      86.274  73.409  31.614  1.00  0.00     0.112 C
HETATM   15  C7  UNL     1      84.848  72.891  31.550  1.00  0.00     0.054 C
HETATM   16  C8  UNL     1      83.939  74.066  31.853  1.00  0.00     0.234 C
HETATM   17  N2  UNL     1      83.878  74.864  30.618  1.00  0.00    -0.073 N
HETATM   18  C9  UNL     1      85.200  74.956  30.016  1.00  0.00     0.267 C
ATOM     19  H22 UNL     1      83.185  74.501  29.964  1.00  0.00     0.277 HD
ATOM     20  H21 UNL     1      83.466  75.783  30.778  1.00  0.00     0.277 HD
HETATM   21  C10 UNL     1      86.280  74.797  31.085  1.00  0.00     0.231 C
BRANCH  21  22
HETATM   22  N3  UNL     1      87.508  75.279  30.553  1.00  0.00    -0.071 N
ATOM     23  H33 UNL     1      88.148  75.496  31.317  1.00  0.00     0.274 HD
ATOM     24  H32 UNL     1      88.008  74.513  30.100  1.00  0.00     0.274 HD
ATOM     25  H31 UNL     1      87.456  76.074  29.916  1.00  0.00     0.274 HD
ENDBRANCH  21  22
ENDBRANCH   1  14
TORSDOF 5
ENDMDL