MODEL 3
REMARK VINA RESULT: -6.501204989      1.463      6.826
REMARK  4 active torsions:
REMARK  status: ('A' for Active; 'I' for Inactive)
REMARK    1  A    between atoms: N3_9  and  N4_10
REMARK    2  A    between atoms: N4_10  and  N5_11
REMARK    3  A    between atoms: N5_11  and  C5_12
REMARK    4  A    between atoms: C8_15  and  N6_16
ROOT
HETATM    1  N4  UNL     1      87.544  71.784  31.293  1.00  0.00    -0.027 NA
ENDROOT
BRANCH   1   2
HETATM    2  N3  UNL     1      88.937  71.701  31.271  1.00  0.00    -0.266 N
HETATM    3  C4  UNL     1      89.517  72.081  30.038  1.00  0.00     0.091 C
HETATM    4  C3  UNL     1      90.936  72.079  29.628  1.00  0.00     0.096 C
HETATM    5  N2  UNL     1      88.690  72.484  29.154  1.00  0.00    -0.388 N
HETATM    6  C2  UNL     1      91.725  72.724  30.777  1.00  0.00     0.124 C
HETATM    7  N1  UNL     1      91.745  71.785  31.845  1.00  0.00    -0.415 N
HETATM    8  C1  UNL     1      93.045  71.410  32.296  1.00  0.00     0.143 C
HETATM    9  C12 UNL     1      90.783  72.012  32.869  1.00  0.00     0.137 C
HETATM   10  C11 UNL     1      89.522  71.242  32.513  1.00  0.00     0.167 C
ATOM     11  H22 UNL     1      89.109  72.758  28.265  1.00  0.00     0.157 HD
ATOM     12  H21 UNL     1      87.710  72.486  29.437  1.00  0.00     0.157 HD
ENDBRANCH   1   2
BRANCH   1  13
HETATM   13  N5  UNL     1      87.087  73.087  31.526  1.00  0.00    -0.121 NA
BRANCH  13  14
HETATM   14  C5  UNL     1      85.658  73.079  31.337  1.00  0.00     0.097 C
HETATM   15  C6  UNL     1      85.063  71.709  31.271  1.00  0.00     0.025 C
HETATM   16  C7  UNL     1      83.594  71.827  30.983  1.00  0.00     0.034 C
HETATM   17  C8  UNL     1      82.877  72.790  31.870  1.00  0.00     0.183 C
HETATM   18  C9  UNL     1      83.560  74.117  31.996  1.00  0.00     0.034 C
HETATM   19  C10 UNL     1      84.993  73.833  32.466  1.00  0.00     0.025 C
BRANCH  17  20
HETATM   20  N6  UNL     1      82.600  72.212  33.172  1.00  0.00    -0.075 N
ATOM     21  H63 UNL     1      82.372  71.221  33.099  1.00  0.00     0.274 HD
ATOM     22  H62 UNL     1      83.448  72.139  33.734  1.00  0.00     0.274 HD
ATOM     23  H61 UNL     1      81.871  72.727  33.663  1.00  0.00     0.274 HD
ENDBRANCH  17  20
ENDBRANCH  13  14
ENDBRANCH   1  13
TORSDOF 4
ENDMDL