MODEL 2
REMARK VINA RESULT: -6.872956728      5.660      6.672
REMARK  5 active torsions:
REMARK  status: ('A' for Active; 'I' for Inactive)
REMARK       I    between atoms: C1_2  and  N2_4
REMARK       I    between atoms: N2_4  and  C2_6
REMARK    1  A    between atoms: C2_6  and  C3_8
REMARK    2  A    between atoms: C4_9  and  O3_10
REMARK    3  A    between atoms: O3_10  and  C5_11
REMARK       I    between atoms: C5_11  and  N3_13
REMARK    4  A    between atoms: N3_13  and  C6_15
REMARK    5  A    between atoms: C10_19  and  N4_20
ROOT
HETATM    1  C5  UNL     1      90.326  70.189  28.179  1.00  0.00     0.365 C
HETATM    2  O4  UNL     1      91.472  70.417  27.731  1.00  0.00    -0.238 OA
HETATM    3  N3  UNL     1      89.432  69.331  27.455  1.00  0.00    -0.330 N
ATOM      4  H3  UNL     1      88.498  69.144  27.820  1.00  0.00     0.165 HD
ENDROOT
BRANCH   1   5
HETATM    5  O3  UNL     1      89.946  70.755  29.347  1.00  0.00    -0.274 OA
BRANCH   5   6
HETATM    6  C4  UNL     1      90.213  71.974  29.879  1.00  0.00     0.153 C
HETATM    7  C3  UNL     1      89.575  72.647  30.791  1.00  0.00     0.099 C
BRANCH   7   8
HETATM    8  C2  UNL     1      90.076  73.970  31.201  1.00  0.00     0.250 C
HETATM    9  N2  UNL     1      89.387  75.133  30.799  1.00  0.00    -0.278 N
HETATM   10  C1  UNL     1      89.864  76.405  31.190  1.00  0.00     0.335 C
ATOM     11  H2  UNL     1      88.546  75.056  30.227  1.00  0.00     0.173 HD
HETATM   12  N1  UNL     1      91.025  76.541  31.981  1.00  0.00    -0.040 NA
HETATM   13  O1  UNL     1      89.260  77.430  30.839  1.00  0.00    -0.251 OA
HETATM   14  O2  UNL     1      91.115  74.056  31.907  1.00  0.00    -0.268 OA
ENDBRANCH   7   8
ENDBRANCH   5   6
ENDBRANCH   1   5
BRANCH   3  15
HETATM   15  C6  UNL     1      89.860  68.726  26.192  1.00  0.00     0.117 C
HETATM   16  C7  UNL     1      89.873  67.219  26.439  1.00  0.00     0.027 C
HETATM   17  C8  UNL     1      88.468  66.831  25.980  1.00  0.00     0.004 C
HETATM   18  C9  UNL     1      88.366  67.627  24.694  1.00  0.00     0.035 C
HETATM   19  C10 UNL     1      88.843  68.980  25.126  1.00  0.00     0.206 C
BRANCH  19  20
HETATM   20  N4  UNL     1      89.475  69.731  24.064  1.00  0.00    -0.073 N
ATOM     21  H43 UNL     1      90.043  70.503  24.414  1.00  0.00     0.274 HD
ATOM     22  H42 UNL     1      90.218  69.208  23.603  1.00  0.00     0.274 HD
ATOM     23  H41 UNL     1      88.751  70.040  23.415  1.00  0.00     0.274 HD
ENDBRANCH  19  20
ENDBRANCH   3  15
TORSDOF 5
ENDMDL