MODEL 4
REMARK VINA RESULT: -6.636849511      3.912      4.441
REMARK  2 active torsions:
REMARK  status: ('A' for Active; 'I' for Inactive)
REMARK    1  A    between atoms: C2_2  and  C4_5
REMARK       I    between atoms: C4_5  and  N1_7
REMARK    2  A    between atoms: N1_7  and  C5_9
ROOT
HETATM    1  C5  UNL     1      85.922  72.609  30.759  1.00  0.00     0.138 A
HETATM    2  N2  UNL     1      86.802  73.557  30.427  1.00  0.00    -0.293 N
ATOM      3  H2  UNL     1      87.728  73.259  30.120  1.00  0.00     0.172 HD
HETATM    4  C6  UNL     1      86.548  74.891  30.469  1.00  0.00     0.328 A
HETATM    5  O2  UNL     1      87.435  75.722  30.138  1.00  0.00    -0.247 OA
HETATM    6  N3  UNL     1      85.351  75.344  30.864  1.00  0.00    -0.274 N
ATOM      7  H3  UNL     1      85.144  76.343  30.901  1.00  0.00     0.173 HD
HETATM    8  C7  UNL     1      84.441  74.433  31.205  1.00  0.00     0.274 A
HETATM    9  O3  UNL     1      83.306  74.859  31.579  1.00  0.00    -0.266 OA
HETATM   10  C8  UNL     1      84.666  73.076  31.173  1.00  0.00     0.156 A
HETATM   11  C9  UNL     1      83.618  72.151  31.562  1.00  0.00     0.109 C
HETATM   12  N4  UNL     1      82.777  71.407  31.857  1.00  0.00    -0.191 NA
ENDROOT
BRANCH   1  13
HETATM   13  N1  UNL     1      86.159  71.226  30.724  1.00  0.00    -0.310 N
HETATM   14  C4  UNL     1      87.008  70.511  29.877  1.00  0.00     0.242 C
HETATM   15  O1  UNL     1      87.718  71.000  28.984  1.00  0.00    -0.271 OA
ATOM     16  H1  UNL     1      85.644  70.671  31.407  1.00  0.00     0.170 HD
BRANCH  14  17
HETATM   17  C2  UNL     1      87.098  69.025  30.028  1.00  0.00     0.092 C
HETATM   18  C1  UNL     1      87.415  68.601  31.429  1.00  0.00     0.038 C
HETATM   19  C3  UNL     1      88.230  68.506  29.140  1.00  0.00     0.038 C
HETATM   20  S1  UNL     1      85.551  68.234  29.525  1.00  0.00    -0.077 SA
ENDBRANCH  14  17
ENDBRANCH   1  13
TORSDOF 2
ENDMDL