MODEL 4
REMARK VINA RESULT: -6.352426487      2.804      5.009
REMARK  5 active torsions:
REMARK  status: ('A' for Active; 'I' for Inactive)
REMARK    1  A    between atoms: C4_8  and  N3_9
REMARK    2  A    between atoms: N3_9  and  C5_11
REMARK    3  A    between atoms: C5_11  and  C6_12
REMARK    4  A    between atoms: C6_12  and  N4_13
REMARK    5  A    between atoms: C9_18  and  N6_19
ROOT
HETATM    1  C1  UNL     1      91.002  69.638  27.384  1.00  0.00     0.070 C
HETATM    2  C2  UNL     1      90.379  70.553  28.352  1.00  0.00     0.029 A
HETATM    3  N1  UNL     1      89.056  70.640  28.599  1.00  0.00    -0.344 N
ATOM      4  H1  UNL     1      88.341  70.078  28.136  1.00  0.00     0.167 HD
HETATM    5  C3  UNL     1      88.806  71.566  29.535  1.00  0.00     0.137 A
HETATM    6  N2  UNL     1      87.713  72.053  30.147  1.00  0.00    -0.176 N
ATOM      7  H2  UNL     1      86.797  71.682  29.895  1.00  0.00     0.186 HD
HETATM    8  C4  UNL     1      87.797  73.028  31.094  1.00  0.00     0.681 A
HETATM    9  N5  UNL     1      89.008  73.511  31.420  1.00  0.00    -0.176 N
ATOM     10  H5  UNL     1      89.073  74.242  32.130  1.00  0.00     0.186 HD
HETATM   11  C9  UNL     1      90.145  73.062  30.838  1.00  0.00     0.130 A
HETATM   12  C10 UNL     1      90.045  72.081  29.887  1.00  0.00     0.075 A
HETATM   13  C11 UNL     1      91.046  71.463  29.160  1.00  0.00     0.084 A
HETATM   14  C12 UNL     1      92.477  71.712  29.226  1.00  0.00     0.102 C
HETATM   15  N7  UNL     1      93.619  71.889  29.281  1.00  0.00    -0.191 NA
ENDROOT
BRANCH  11  16
HETATM   16  N6  UNL     1      91.305  73.529  31.154  1.00  0.00    -0.384 N
ATOM     17  H62 UNL     1      91.520  73.727  32.132  1.00  0.00     0.157 HD
ATOM     18  H61 UNL     1      92.023  73.711  30.454  1.00  0.00     0.157 HD
ENDBRANCH  11  16
BRANCH   8  19
HETATM   19  N3  UNL     1      86.760  73.493  31.682  1.00  0.00    -0.224 N
ATOM     20  H3  UNL     1      86.586  73.160  32.630  1.00  0.00     0.177 HD
BRANCH  19  21
HETATM   21  C5  UNL     1      85.824  74.425  31.155  1.00  0.00     0.157 C
BRANCH  21  22
HETATM   22  C6  UNL     1      84.600  73.668  30.643  1.00  0.00     0.136 C
BRANCH  22  23
HETATM   23  N4  UNL     1      84.174  72.612  31.494  1.00  0.00    -0.419 N
HETATM   24  C7  UNL     1      83.278  72.938  32.533  1.00  0.00     0.142 C
HETATM   25  C8  UNL     1      84.131  71.307  30.979  1.00  0.00     0.142 C
ENDBRANCH  22  23
ENDBRANCH  21  22
ENDBRANCH  19  21
ENDBRANCH   8  19
TORSDOF 5
ENDMDL