MODEL 2
REMARK VINA RESULT: -6.128740638      2.030      3.079
REMARK  6 active torsions:
REMARK  status: ('A' for Active; 'I' for Inactive)
REMARK    1  A    between atoms: C2_2  and  N1_4
REMARK    2  A    between atoms: N1_4  and  C4_6
REMARK    3  A    between atoms: C4_6  and  O1_8
REMARK    4  A    between atoms: O1_8  and  C5_9
REMARK    5  A    between atoms: C8_14  and  C9_15
REMARK       I    between atoms: C9_15  and  N3_17
REMARK    6  A    between atoms: N3_17  and  N4_19
ROOT
HETATM    1  C5  UNL     1      84.287  72.168  31.187  1.00  0.00     0.135 C
HETATM    2  C6  UNL     1      83.483  73.442  31.344  1.00  0.00     0.051 C
HETATM    3  C7  UNL     1      84.401  74.521  31.802  1.00  0.00     0.117 C
HETATM    4  N2  UNL     1      85.685  74.032  32.210  1.00  0.00    -0.409 N
ATOM      5  H2  UNL     1      86.046  74.174  33.154  1.00  0.00     0.154 HD
HETATM    6  C8  UNL     1      86.419  73.337  31.215  1.00  0.00     0.173 C
HETATM    7  C10 UNL     1      85.492  72.485  30.367  1.00  0.00     0.067 C
ENDROOT
BRANCH   1   8
HETATM    8  O1  UNL     1      83.439  71.199  30.612  1.00  0.00    -0.322 OA
BRANCH   8   9
HETATM    9  C4  UNL     1      83.377  69.986  31.335  1.00  0.00     0.210 C
HETATM   10  S1  UNL     1      84.574  68.902  31.108  1.00  0.00    -0.033 SA
BRANCH   9  11
HETATM   11  N1  UNL     1      82.312  69.722  32.229  1.00  0.00    -0.358 N
ATOM     12  H1  UNL     1      81.948  68.776  32.341  1.00  0.00     0.162 HD
BRANCH  11  13
HETATM   13  C2  UNL     1      81.754  70.826  32.979  1.00  0.00     0.076 C
HETATM   14  C1  UNL     1      80.248  70.707  33.100  1.00  0.00     0.032 C
HETATM   15  C3  UNL     1      82.385  70.839  34.341  1.00  0.00     0.032 C
ENDBRANCH  11  13
ENDBRANCH   9  11
ENDBRANCH   8   9
ENDBRANCH   1   8
BRANCH   6  16
HETATM   16  C9  UNL     1      87.275  74.223  30.379  1.00  0.00     0.258 C
HETATM   17  O2  UNL     1      87.470  73.940  29.173  1.00  0.00    -0.270 OA
HETATM   18  N3  UNL     1      87.889  75.389  30.894  1.00  0.00    -0.275 N
ATOM     19  H3  UNL     1      87.749  75.642  31.871  1.00  0.00     0.189 HD
BRANCH  18  20
HETATM   20  N4  UNL     1      88.680  76.191  30.084  1.00  0.00    -0.343 N
ATOM     21  H42 UNL     1      88.676  76.024  29.077  1.00  0.00     0.176 HD
ATOM     22  H41 UNL     1      89.254  76.932  30.485  1.00  0.00     0.176 HD
ENDBRANCH  18  20
ENDBRANCH   6  16
TORSDOF 6
ENDMDL