MODEL 4
REMARK VINA RESULT: -8.628605172      1.444      2.192
REMARK  4 active torsions:
REMARK  status: ('A' for Active; 'I' for Inactive)
REMARK    1  A    between atoms: C2_2  and  C3_3
REMARK    2  A    between atoms: C5_5  and  C6_6
REMARK    3  A    between atoms: C6_6  and  N1_7
REMARK    4  A    between atoms: N1_7  and  C7_10
ROOT
HETATM    1  C7  UNL     1      62.727  47.126  28.759  1.00  0.00     0.186 C
HETATM    2  C8  UNL     1      63.777  46.410  28.003  1.00  0.00     0.038 C
HETATM    3  C9  UNL     1      65.185  46.787  28.473  1.00  0.00    -0.008 C
HETATM    4  C10 UNL     1      65.210  48.301  28.314  1.00  0.00     0.010 C
HETATM    5  C11 UNL     1      64.520  48.664  29.647  1.00  0.00    -0.008 C
HETATM    6  C12 UNL     1      63.078  48.284  29.580  1.00  0.00     0.038 C
HETATM    7  C13 UNL     1      65.373  47.867  30.549  1.00  0.00    -0.005 C
HETATM    8  C14 UNL     1      64.994  47.732  31.974  1.00  0.00     0.014 C
HETATM    9  C15 UNL     1      65.999  46.825  32.636  1.00  0.00    -0.047 C
HETATM   10  C16 UNL     1      67.260  47.553  33.026  1.00  0.00     0.015 C
HETATM   11  C17 UNL     1      65.326  46.365  33.941  1.00  0.00     0.015 C
HETATM   12  C18 UNL     1      66.341  45.590  31.887  1.00  0.00     0.009 C
HETATM   13  C19 UNL     1      66.474  45.747  30.390  1.00  0.00     0.006 C
HETATM   14  C20 UNL     1      65.254  46.485  29.919  1.00  0.00    -0.006 C
ENDROOT
BRANCH   1  15
HETATM   15  N1  UNL     1      61.722  47.539  27.760  1.00  0.00    -0.070 N
ATOM     16  H12 UNL     1      61.656  46.900  26.967  1.00  0.00     0.277 HD
ATOM     17  H11 UNL     1      61.996  48.368  27.233  1.00  0.00     0.277 HD
BRANCH  15  18
HETATM   18  C6  UNL     1      60.473  47.699  28.468  1.00  0.00     0.237 C
BRANCH  18  19
HETATM   19  C5  UNL     1      60.007  46.413  29.097  1.00  0.00     0.016 A
HETATM   20  C3  UNL     1      59.380  46.587  30.469  1.00  0.00    -0.009 A
HETATM   21  C4  UNL     1      58.607  46.068  29.324  1.00  0.00     0.011 A
BRANCH  20  22
HETATM   22  C2  UNL     1      59.864  45.709  31.586  1.00  0.00     0.000 C
HETATM   23  C1  UNL     1      60.767  46.508  32.507  1.00  0.00     0.005 C
ENDBRANCH  20  22
ENDBRANCH  18  19
ENDBRANCH  15  18
ENDBRANCH   1  15
TORSDOF 4
ENDMDL