MODEL 1
REMARK VINA RESULT: -8.487650711      0.000      0.000
REMARK  3 active torsions:
REMARK  status: ('A' for Active; 'I' for Inactive)
REMARK    1  A    between atoms: C2_2  and  N1_4
REMARK    2  A    between atoms: N1_4  and  C4_7
REMARK    3  A    between atoms: C4_7  and  C5_8
ROOT
HETATM    1  C5  UNL     1      66.340  47.441  32.264  1.00  0.00     0.011 C
HETATM    2  C6  UNL     1      64.942  47.125  32.624  1.00  0.00     0.006 C
HETATM    3  C7  UNL     1      64.101  48.300  32.260  1.00  0.00     0.001 C
HETATM    4  C8  UNL     1      63.739  48.312  30.814  1.00  0.00     0.006 C
HETATM    5  C9  UNL     1      64.806  48.303  29.831  1.00  0.00    -0.002 C
HETATM    6  C10 UNL     1      65.820  47.247  29.789  1.00  0.00    -0.009 C
HETATM    7  C11 UNL     1      65.331  45.884  29.353  1.00  0.00     0.006 C
HETATM    8  C12 UNL     1      63.999  45.860  28.714  1.00  0.00     0.010 C
HETATM    9  C13 UNL     1      63.581  47.090  27.991  1.00  0.00    -0.036 C
HETATM   10  C14 UNL     1      63.840  46.928  26.485  1.00  0.00     0.016 C
HETATM   11  C15 UNL     1      62.069  47.210  28.134  1.00  0.00     0.010 C
HETATM   12  C16 UNL     1      61.765  48.640  28.431  1.00  0.00     0.002 C
HETATM   13  C17 UNL     1      63.083  49.355  28.302  1.00  0.00     0.010 C
HETATM   14  C18 UNL     1      64.177  48.361  28.432  1.00  0.00    -0.033 C
HETATM   15  C19 UNL     1      65.319  48.799  27.502  1.00  0.00     0.016 C
HETATM   16  C20 UNL     1      66.785  47.142  30.903  1.00  0.00     0.011 C
ENDROOT
BRANCH   1  17
HETATM   17  C4  UNL     1      67.257  46.755  33.268  1.00  0.00     0.237 C
BRANCH  17  18
HETATM   18  N1  UNL     1      67.881  45.644  32.600  1.00  0.00    -0.071 N
ATOM     19  H12 UNL     1      68.898  45.722  32.632  1.00  0.00     0.277 HD
ATOM     20  H11 UNL     1      67.743  45.699  31.591  1.00  0.00     0.277 HD
BRANCH  18  21
HETATM   21  C2  UNL     1      67.442  44.366  33.114  1.00  0.00     0.177 C
HETATM   22  C1  UNL     1      66.700  44.531  34.431  1.00  0.00     0.039 C
HETATM   23  C3  UNL     1      66.516  43.658  32.172  1.00  0.00     0.039 C
ENDBRANCH  18  21
ENDBRANCH  17  18
ENDBRANCH   1  17
TORSDOF 3
ENDMDL