MODEL 2
REMARK VINA RESULT: -7.916053752      0.684      1.834
REMARK  5 active torsions:
REMARK  status: ('A' for Active; 'I' for Inactive)
REMARK    1  A    between atoms: C2_2  and  N1_3
REMARK    2  A    between atoms: N1_3  and  C3_5
REMARK    3  A    between atoms: C3_5  and  C4_7
REMARK    4  A    between atoms: C7_10  and  C8_11
REMARK    5  A    between atoms: C8_11  and  C10_13
ROOT
HETATM    1  C8  UNL     1      66.534  46.321  30.212  1.00  0.00    -0.010 C
HETATM    2  C9  UNL     1      65.911  44.975  30.520  1.00  0.00     0.011 C
ENDROOT
BRANCH   1   3
HETATM    3  C7  UNL     1      67.257  46.832  31.379  1.00  0.00     0.000 C
HETATM    4  C4  UNL     1      66.948  46.289  32.721  1.00  0.00     0.051 C
HETATM    5  C5  UNL     1      68.362  46.737  33.126  1.00  0.00     0.012 C
HETATM    6  C6  UNL     1      68.700  46.513  31.629  1.00  0.00     0.006 C
BRANCH   4   7
HETATM    7  C3  UNL     1      65.859  46.804  33.523  1.00  0.00     0.077 C
HETATM    8  S1  UNL     1      66.125  46.882  35.192  1.00  0.00    -0.065 SA
BRANCH   7   9
HETATM    9  N1  UNL     1      64.605  47.252  33.117  1.00  0.00    -0.384 N
ATOM     10  H1  UNL     1      64.386  47.048  32.142  1.00  0.00     0.160 HD
BRANCH   9  11
HETATM   11  C2  UNL     1      63.575  47.940  33.815  1.00  0.00     0.116 C
HETATM   12  C1  UNL     1      62.234  47.261  33.472  1.00  0.00     0.026 C
ENDBRANCH   9  11
ENDBRANCH   7   9
ENDBRANCH   4   7
ENDBRANCH   1   3
BRANCH   1  13
HETATM   13  C10 UNL     1      65.657  47.216  29.422  1.00  0.00    -0.010 C
HETATM   14  C11 UNL     1      64.871  46.262  28.495  1.00  0.00     0.006 C
HETATM   15  C12 UNL     1      64.121  47.030  27.444  1.00  0.00     0.009 C
HETATM   16  C13 UNL     1      63.598  48.347  27.941  1.00  0.00    -0.044 C
HETATM   17  C14 UNL     1      62.195  48.539  27.350  1.00  0.00     0.015 C
HETATM   18  C15 UNL     1      64.426  49.506  27.413  1.00  0.00     0.015 C
HETATM   19  C16 UNL     1      63.437  48.388  29.422  1.00  0.00    -0.011 C
HETATM   20  C17 UNL     1      62.305  47.445  29.805  1.00  0.00     0.011 C
HETATM   21  C18 UNL     1      64.704  48.079  30.198  1.00  0.00     0.010 C
ENDBRANCH   1  13
TORSDOF 5
ENDMDL