MODEL 3
REMARK VINA RESULT: -9.469720831      0.486      1.194
REMARK  4 active torsions:
REMARK  status: ('A' for Active; 'I' for Inactive)
REMARK    1  A    between atoms: C6_6  and  C7_7
REMARK    2  A    between atoms: C7_7  and  C8_8
REMARK    3  A    between atoms: C8_8  and  C9_9
REMARK    4  A    between atoms: C9_9  and  N1_10
ROOT
HETATM    1  C7  UNL     1      64.139  47.480  29.416  1.00  0.00    -0.035 C
HETATM    2  C15 UNL     1      64.591  47.020  28.078  1.00  0.00     0.010 C
HETATM    3  C16 UNL     1      64.305  48.090  27.088  1.00  0.00     0.001 C
HETATM    4  C17 UNL     1      64.229  49.360  27.907  1.00  0.00     0.001 C
HETATM    5  C18 UNL     1      64.509  48.981  29.321  1.00  0.00     0.010 C
ENDROOT
BRANCH   1   6
HETATM    6  C6  UNL     1      65.067  46.949  30.458  1.00  0.00    -0.006 C
HETATM    7  C5  UNL     1      66.475  46.683  29.985  1.00  0.00     0.006 C
HETATM    8  C4  UNL     1      67.023  45.642  30.974  1.00  0.00     0.009 C
HETATM    9  C2  UNL     1      66.940  46.147  32.390  1.00  0.00    -0.048 C
HETATM   10  C1  UNL     1      67.986  47.205  32.583  1.00  0.00     0.015 C
HETATM   11  C3  UNL     1      67.305  44.982  33.296  1.00  0.00     0.015 C
HETATM   12  C20 UNL     1      65.561  46.585  32.795  1.00  0.00     0.009 C
HETATM   13  C19 UNL     1      65.136  47.651  31.758  1.00  0.00     0.006 C
ENDBRANCH   1   6
BRANCH   1  14
HETATM   14  C8  UNL     1      62.707  47.462  29.709  1.00  0.00     0.040 C
BRANCH  14  15
HETATM   15  C9  UNL     1      61.727  46.987  28.719  1.00  0.00     0.273 C
BRANCH  15  16
HETATM   16  N1  UNL     1      60.539  46.397  29.238  1.00  0.00     0.088 N
HETATM   17  C10 UNL     1      59.362  46.997  28.654  1.00  0.00     0.272 C
HETATM   18  C11 UNL     1      58.066  46.537  29.195  1.00  0.00     0.030 C
HETATM   19  C12 UNL     1      58.050  46.119  30.634  1.00  0.00     0.003 C
HETATM   20  C13 UNL     1      59.367  45.551  31.110  1.00  0.00     0.030 C
HETATM   21  C14 UNL     1      60.438  46.529  30.672  1.00  0.00     0.272 C
ENDBRANCH  15  16
ENDBRANCH  14  15
ENDBRANCH   1  14
TORSDOF 4
ENDMDL