MODEL 2
REMARK VINA RESULT: -9.045954553      1.091      1.787
REMARK  4 active torsions:
REMARK  status: ('A' for Active; 'I' for Inactive)
REMARK    1  A    between atoms: C2_2  and  C3_3
REMARK    2  A    between atoms: C3_3  and  C4_4
REMARK    3  A    between atoms: C4_4  and  N1_5
REMARK    4  A    between atoms: N1_5  and  C5_8
ROOT
HETATM    1  N1  UNL     1      66.416  47.433  29.638  1.00  0.00    -0.066 N
ATOM      2  H11 UNL     1      67.158  47.165  28.992  1.00  0.00     0.278 HD
ATOM      3  H12 UNL     1      66.836  48.278  30.026  1.00  0.00     0.278 HD
ENDROOT
BRANCH   1   4
HETATM    4  C4  UNL     1      66.224  46.430  30.658  1.00  0.00     0.237 C
BRANCH   4   5
HETATM    5  C3  UNL     1      67.204  46.614  31.802  1.00  0.00     0.061 C
BRANCH   5   6
HETATM    6  C2  UNL     1      66.481  47.016  33.055  1.00  0.00    -0.078 C
HETATM    7  C1  UNL     1      66.719  46.379  34.183  1.00  0.00    -0.023 C
HETATM    8  C20 UNL     1      66.052  46.706  35.475  1.00  0.00     0.032 C
HETATM    9  C19 UNL     1      65.157  47.917  35.372  1.00  0.00    -0.011 C
HETATM   10  C18 UNL     1      63.825  47.576  34.732  1.00  0.00     0.005 C
HETATM   11  C21 UNL     1      65.700  48.916  34.347  1.00  0.00     0.014 C
HETATM   12  C17 UNL     1      64.106  47.557  33.256  1.00  0.00     0.009 C
HETATM   13  C16 UNL     1      65.493  48.124  33.064  1.00  0.00     0.014 C
ENDBRANCH   5   6
ENDBRANCH   4   5
ENDBRANCH   1   4
BRANCH   1  14
HETATM   14  C5  UNL     1      65.187  47.734  28.931  1.00  0.00     0.126 C
HETATM   15  C6  UNL     1      65.591  48.513  27.688  1.00  0.00     0.039 C
HETATM   16  C7  UNL     1      64.537  49.444  27.200  1.00  0.00     0.007 C
HETATM   17  C8  UNL     1      63.148  48.903  27.180  1.00  0.00    -0.014 C
HETATM   18  C9  UNL     1      63.036  47.440  26.943  1.00  0.00     0.009 C
HETATM   19  C13 UNL     1      62.437  49.372  28.427  1.00  0.00     0.009 C
HETATM   20  C10 UNL     1      63.095  46.595  28.168  1.00  0.00    -0.012 C
HETATM   21  C11 UNL     1      62.355  47.133  29.346  1.00  0.00     0.009 C
HETATM   22  C15 UNL     1      64.548  46.420  28.558  1.00  0.00     0.043 C
HETATM   23  C12 UNL     1      62.877  48.533  29.591  1.00  0.00    -0.012 C
HETATM   24  C14 UNL     1      64.338  48.577  29.852  1.00  0.00     0.043 C
ENDBRANCH   1  14
TORSDOF 4
ENDMDL