MODEL 3
REMARK VINA RESULT: -8.229950060      2.048      5.972
REMARK  5 active torsions:
REMARK  status: ('A' for Active; 'I' for Inactive)
REMARK    1  A    between atoms: C10_10  and  C11_11
REMARK    2  A    between atoms: C11_11  and  N1_12
REMARK    3  A    between atoms: C11_11  and  C12_16
REMARK    4  A    between atoms: C12_16  and  C13_17
REMARK    5  A    between atoms: C13_17  and  C14_18
ROOT
HETATM    1  C1  UNL     1      61.839  48.073  29.321  1.00  0.00     0.015 C
HETATM    2  C2  UNL     1      63.147  47.675  28.670  1.00  0.00    -0.040 C
HETATM    3  C3  UNL     1      62.995  47.960  27.180  1.00  0.00     0.009 C
HETATM    4  C4  UNL     1      63.683  49.304  27.069  1.00  0.00     0.001 C
HETATM    5  C5  UNL     1      64.935  49.040  27.917  1.00  0.00     0.006 C
HETATM    6  C6  UNL     1      64.296  48.482  29.165  1.00  0.00    -0.002 C
HETATM    7  C7  UNL     1      65.254  47.751  30.056  1.00  0.00    -0.006 C
HETATM    8  C8  UNL     1      64.637  47.559  31.393  1.00  0.00     0.006 C
HETATM    9  C9  UNL     1      65.038  46.295  32.092  1.00  0.00     0.007 C
HETATM   10  C10 UNL     1      66.447  45.862  31.742  1.00  0.00     0.016 C
HETATM   11  C17 UNL     1      66.601  45.628  30.286  1.00  0.00     0.011 C
HETATM   12  C18 UNL     1      65.780  46.527  29.392  1.00  0.00    -0.010 C
HETATM   13  C19 UNL     1      64.754  45.750  28.623  1.00  0.00     0.006 C
HETATM   14  C20 UNL     1      63.340  46.190  28.824  1.00  0.00     0.010 C
ENDROOT
BRANCH  10  15
HETATM   15  C11 UNL     1      67.492  46.676  32.401  1.00  0.00     0.187 C
BRANCH  15  16
HETATM   16  N1  UNL     1      68.362  47.375  31.489  1.00  0.00    -0.075 N
ATOM     17  H13 UNL     1      68.041  48.333  31.354  1.00  0.00     0.274 HD
ATOM     18  H12 UNL     1      69.266  47.554  31.926  1.00  0.00     0.274 HD
ATOM     19  H11 UNL     1      68.487  46.910  30.589  1.00  0.00     0.274 HD
ENDBRANCH  15  16
BRANCH  15  20
HETATM   20  C12 UNL     1      67.014  47.673  33.415  1.00  0.00     0.033 C
BRANCH  20  21
HETATM   21  C13 UNL     1      66.606  47.052  34.709  1.00  0.00     0.007 C
BRANCH  21  22
HETATM   22  C14 UNL     1      65.698  47.973  35.475  1.00  0.00    -0.014 A
HETATM   23  C15 UNL     1      64.361  48.348  34.946  1.00  0.00     0.005 A
HETATM   24  C16 UNL     1      65.474  49.375  34.974  1.00  0.00     0.005 A
ENDBRANCH  21  22
ENDBRANCH  20  21
ENDBRANCH  15  20
ENDBRANCH  10  15
TORSDOF 5
ENDMDL