MODEL 4
REMARK VINA RESULT: -7.929237000      3.132      6.351
REMARK  7 active torsions:
REMARK  status: ('A' for Active; 'I' for Inactive)
REMARK    1  A    between atoms: C2_2  and  C3_3
REMARK    2  A    between atoms: C3_3  and  C4_4
REMARK    3  A    between atoms: C4_4  and  C5_5
REMARK    4  A    between atoms: C4_4  and  C12_15
REMARK    5  A    between atoms: C6_6  and  C7_7
REMARK    6  A    between atoms: C7_7  and  N1_8
REMARK    7  A    between atoms: N1_8  and  C8_11
ROOT
HETATM    1  C4  UNL     1      61.233  47.121  30.017  1.00  0.00     0.077 C
ENDROOT
BRANCH   1   2
HETATM    2  C3  UNL     1      60.340  45.970  29.799  1.00  0.00     0.044 C
BRANCH   2   3
HETATM    3  C2  UNL     1      58.928  46.165  29.520  1.00  0.00    -0.036 C
HETATM    4  C1  UNL     1      58.582  46.929  28.489  1.00  0.00     0.007 C
ENDBRANCH   2   3
ENDBRANCH   1   2
BRANCH   1   5
HETATM    5  C5  UNL     1      61.709  47.142  31.446  1.00  0.00    -0.099 C
HETATM    6  C6  UNL     1      62.090  47.186  32.596  1.00  0.00    -0.079 C
BRANCH   6   7
HETATM    7  C7  UNL     1      62.576  47.247  33.972  1.00  0.00     0.326 C
BRANCH   7   8
HETATM    8  N1  UNL     1      63.984  47.577  34.042  1.00  0.00    -0.057 N
ATOM      9  H12 UNL     1      64.482  46.939  34.664  1.00  0.00     0.279 HD
ATOM     10  H11 UNL     1      64.460  47.354  33.168  1.00  0.00     0.279 HD
BRANCH   8  11
HETATM   11  C8  UNL     1      64.205  48.952  34.419  1.00  0.00     0.116 C
HETATM   12  C9  UNL     1      64.161  49.877  33.224  1.00  0.00     0.045 C
HETATM   13  C10 UNL     1      65.514  49.087  35.139  1.00  0.00     0.045 C
HETATM   14  C11 UNL     1      63.078  49.351  35.347  1.00  0.00     0.045 C
ENDBRANCH   8  11
ENDBRANCH   7   8
ENDBRANCH   6   7
ENDBRANCH   1   5
BRANCH   1  15
HETATM   15  C12 UNL     1      62.413  47.368  29.175  1.00  0.00    -0.025 C
HETATM   16  C13 UNL     1      63.198  48.556  29.798  1.00  0.00     0.015 C
HETATM   17  C14 UNL     1      64.391  48.908  28.981  1.00  0.00    -0.013 C
HETATM   18  C15 UNL     1      65.312  47.748  28.803  1.00  0.00     0.009 C
HETATM   19  C19 UNL     1      63.942  49.409  27.625  1.00  0.00     0.009 C
HETATM   20  C16 UNL     1      64.524  46.637  28.145  1.00  0.00    -0.013 C
HETATM   21  C17 UNL     1      64.094  47.085  26.770  1.00  0.00     0.009 C
HETATM   22  C21 UNL     1      63.338  46.224  29.000  1.00  0.00     0.015 C
HETATM   23  C18 UNL     1      63.199  48.303  26.959  1.00  0.00    -0.013 C
HETATM   24  C20 UNL     1      62.011  47.906  27.820  1.00  0.00     0.015 C
ENDBRANCH   1  15
TORSDOF 7
ENDMDL