MODEL 2
REMARK VINA RESULT: -7.845931209      1.277      3.319
REMARK  5 active torsions:
REMARK  status: ('A' for Active; 'I' for Inactive)
REMARK    1  A    between atoms: C3_3  and  N1_5
REMARK    2  A    between atoms: C3_3  and  O1_17
REMARK    3  A    between atoms: N1_5  and  C5_7
REMARK    4  A    between atoms: O1_17  and  C15_18
REMARK    5  A    between atoms: C15_18  and  C18_21
ROOT
HETATM    1  C1  UNL     1      62.927  47.410  33.601  1.00  0.00     0.102 C
HETATM    2  C2  UNL     1      64.013  47.377  33.021  1.00  0.00    -0.129 C
HETATM    3  C3  UNL     1      65.328  47.381  32.291  1.00  0.00     0.182 C
HETATM    4  C4  UNL     1      66.283  48.204  33.203  1.00  0.00     0.085 C
ENDROOT
BRANCH   3   5
HETATM    5  N1  UNL     1      65.075  48.247  31.201  1.00  0.00    -0.374 N
ATOM      6  H1  UNL     1      65.357  49.218  31.328  1.00  0.00     0.158 HD
BRANCH   5   7
HETATM    7  C5  UNL     1      64.501  47.946  30.004  1.00  0.00     0.030 C
HETATM    8  C6  UNL     1      65.448  48.224  28.857  1.00  0.00     0.035 C
HETATM    9  C7  UNL     1      64.766  48.197  27.504  1.00  0.00    -0.012 C
HETATM   10  C8  UNL     1      63.734  49.293  27.480  1.00  0.00     0.009 C
HETATM   11  C12 UNL     1      64.168  46.840  27.291  1.00  0.00     0.009 C
HETATM   12  C9  UNL     1      62.717  48.967  28.529  1.00  0.00    -0.012 C
HETATM   13  C10 UNL     1      62.088  47.601  28.303  1.00  0.00     0.009 C
HETATM   14  C14 UNL     1      63.343  48.966  29.869  1.00  0.00     0.035 C
HETATM   15  C11 UNL     1      63.186  46.602  28.422  1.00  0.00    -0.012 C
HETATM   16  C13 UNL     1      63.875  46.612  29.774  1.00  0.00     0.035 C
ENDBRANCH   5   7
ENDBRANCH   3   5
BRANCH   3  17
HETATM   17  O1  UNL     1      65.811  46.222  32.095  1.00  0.00    -0.341 OA
BRANCH  17  18
HETATM   18  C15 UNL     1      66.885  45.594  31.792  1.00  0.00     0.057 C
HETATM   19  C16 UNL     1      67.841  46.120  30.766  1.00  0.00     0.045 C
HETATM   20  C17 UNL     1      66.434  44.223  31.202  1.00  0.00     0.045 C
BRANCH  18  21
HETATM   21  C18 UNL     1      67.702  45.180  32.998  1.00  0.00     0.033 C
HETATM   22  C19 UNL     1      66.968  44.238  33.934  1.00  0.00     0.008 C
ENDBRANCH  18  21
ENDBRANCH  17  18
ENDBRANCH   3  17
TORSDOF 5
ENDMDL