MODEL 4
REMARK VINA RESULT: -7.345971155      1.799      6.173
REMARK  5 active torsions:
REMARK  status: ('A' for Active; 'I' for Inactive)
REMARK    1  A    between atoms: C2_2  and  C4_4
REMARK    2  A    between atoms: C4_4  and  C5_5
REMARK    3  A    between atoms: C5_5  and  C6_6
REMARK    4  A    between atoms: C6_6  and  O1_7
REMARK    5  A    between atoms: C6_6  and  C7_9
ROOT
HETATM    1  C7  UNL     1      66.082  46.691  30.648  1.00  0.00     0.023 C
HETATM    2  C8  UNL     1      65.889  45.784  29.464  1.00  0.00     0.008 C
HETATM    3  C9  UNL     1      64.410  45.934  29.146  1.00  0.00     0.006 C
HETATM    4  C10 UNL     1      63.895  46.894  30.159  1.00  0.00    -0.002 C
HETATM    5  C11 UNL     1      62.655  47.606  29.835  1.00  0.00    -0.005 C
HETATM    6  C12 UNL     1      61.666  46.724  29.116  1.00  0.00     0.010 C
HETATM    7  C13 UNL     1      60.994  47.605  28.115  1.00  0.00    -0.009 A
HETATM    8  C14 UNL     1      61.774  47.916  26.863  1.00  0.00     0.010 A
HETATM    9  C15 UNL     1      61.744  48.859  28.003  1.00  0.00    -0.006 A
HETATM   10  C16 UNL     1      62.828  48.849  29.056  1.00  0.00    -0.006 C
HETATM   11  C17 UNL     1      64.142  49.005  28.373  1.00  0.00     0.006 C
HETATM   12  C18 UNL     1      65.331  48.573  29.148  1.00  0.00     0.010 C
HETATM   13  C19 UNL     1      65.114  47.788  30.378  1.00  0.00    -0.034 C
HETATM   14  C20 UNL     1      64.849  48.640  31.601  1.00  0.00     0.016 C
ENDROOT
BRANCH   1  15
HETATM   15  C6  UNL     1      67.450  46.996  31.019  1.00  0.00     0.123 C
BRANCH  15  16
HETATM   16  C5  UNL     1      67.818  47.121  32.446  1.00  0.00     0.032 C
BRANCH  16  17
HETATM   17  C4  UNL     1      68.395  45.762  32.881  1.00  0.00     0.006 C
BRANCH  17  18
HETATM   18  C2  UNL     1      67.391  45.020  33.736  1.00  0.00    -0.023 C
HETATM   19  C1  UNL     1      66.390  45.959  34.362  1.00  0.00     0.009 C
HETATM   20  C3  UNL     1      66.661  43.954  32.975  1.00  0.00     0.009 C
ENDBRANCH  17  18
ENDBRANCH  16  17
ENDBRANCH  15  16
BRANCH  15  21
HETATM   21  O1  UNL     1      68.333  46.084  30.426  1.00  0.00    -0.395 OA
ATOM     22  H1  UNL     1      69.215  46.323  30.683  1.00  0.00     0.210 HD
ENDBRANCH  15  21
ENDBRANCH   1  15
TORSDOF 5
ENDMDL