MODEL 3
REMARK VINA RESULT: -7.024762713      1.732      5.418
REMARK  5 active torsions:
REMARK  status: ('A' for Active; 'I' for Inactive)
REMARK    1  A    between atoms: C2_2  and  C4_4
REMARK    2  A    between atoms: C4_4  and  C5_5
REMARK    3  A    between atoms: C5_5  and  C6_6
REMARK    4  A    between atoms: C8_8  and  C9_9
REMARK       I    between atoms: C9_9  and  N1_11
REMARK    5  A    between atoms: N1_11  and  C10_13
ROOT
HETATM    1  C6  UNL     1      64.213  48.688  32.852  1.00  0.00    -0.024 A
HETATM    2  C7  UNL     1      63.981  50.194  32.633  1.00  0.00     0.017 C
HETATM    3  C8  UNL     1      65.622  48.400  33.268  1.00  0.00     0.095 A
HETATM    4  C14 UNL     1      65.172  48.125  34.644  1.00  0.00    -0.027 A
HETATM    5  C15 UNL     1      65.640  49.178  35.652  1.00  0.00     0.016 C
HETATM    6  C16 UNL     1      65.390  46.783  35.261  1.00  0.00     0.016 C
HETATM    7  C17 UNL     1      63.729  48.301  34.198  1.00  0.00    -0.032 A
HETATM    8  C18 UNL     1      63.112  49.447  35.012  1.00  0.00     0.016 C
HETATM    9  C19 UNL     1      62.878  47.083  34.353  1.00  0.00     0.016 C
ENDROOT
BRANCH   3  10
HETATM   10  C9  UNL     1      66.389  47.384  32.572  1.00  0.00     0.224 C
HETATM   11  O1  UNL     1      67.645  47.398  32.598  1.00  0.00    -0.273 OA
HETATM   12  N1  UNL     1      65.839  46.316  31.821  1.00  0.00    -0.353 N
ATOM     13  H1  UNL     1      64.822  46.260  31.765  1.00  0.00     0.163 HD
BRANCH  12  14
HETATM   14  C10 UNL     1      66.594  45.305  31.133  1.00  0.00     0.022 C
HETATM   15  C11 UNL     1      66.879  44.142  32.058  1.00  0.00     0.037 C
HETATM   16  C12 UNL     1      65.848  44.766  29.930  1.00  0.00     0.037 C
HETATM   17  C13 UNL     1      67.929  45.811  30.637  1.00  0.00     0.037 C
ENDBRANCH  12  14
ENDBRANCH   3  10
BRANCH   1  18
HETATM   18  C5  UNL     1      63.686  47.982  31.651  1.00  0.00     0.011 C
BRANCH  18  19
HETATM   19  C4  UNL     1      63.705  48.830  30.409  1.00  0.00     0.005 C
BRANCH  19  20
HETATM   20  C2  UNL     1      63.850  47.909  29.188  1.00  0.00    -0.023 C
HETATM   21  C1  UNL     1      62.775  48.327  28.188  1.00  0.00     0.009 C
HETATM   22  C3  UNL     1      65.176  48.103  28.512  1.00  0.00     0.009 C
ENDBRANCH  19  20
ENDBRANCH  18  19
ENDBRANCH   1  18
TORSDOF 5
ENDMDL