MODEL 2
REMARK VINA RESULT: -7.768557516      4.369      7.363
REMARK  4 active torsions:
REMARK  status: ('A' for Active; 'I' for Inactive)
REMARK       I    between atoms: N2_3  and  C2_5
REMARK       I    between atoms: C2_5  and  N4_9
REMARK       I    between atoms: C3_11  and  N5_12
REMARK       I    between atoms: C3_11  and  N8_19
REMARK    1  A    between atoms: N6_14  and  N7_16
REMARK    2  A    between atoms: N8_19  and  C4_21
REMARK    3  A    between atoms: C4_21  and  C5_22
REMARK    4  A    between atoms: C5_22  and  C6_23
ROOT
HETATM    1  N1  UNL     1      11.313  10.595  20.281  1.00  0.00    -0.171 NA
HETATM    2  C1  UNL     1      11.229  11.037  19.205  1.00  0.00     0.196 C
HETATM    3  N2  UNL     1      11.094  11.571  17.939  1.00  0.00    -0.126 N
ATOM      4  H2  UNL     1      10.227  12.049  17.693  1.00  0.00     0.197 HD
HETATM    5  C2  UNL     1      12.151  11.470  16.947  1.00  0.00     0.699 C
HETATM    6  N3  UNL     1      13.340  11.339  17.414  1.00  0.00    -0.233 N
ATOM      7  H31 UNL     1      14.082  11.268  16.718  1.00  0.00     0.174 HD
ATOM      8  H32 UNL     1      13.583  11.302  18.405  1.00  0.00     0.174 HD
HETATM    9  N4  UNL     1      11.825  11.519  15.620  1.00  0.00    -0.021 N
ATOM     10  H4  UNL     1      10.863  11.838  15.503  1.00  0.00     0.203 HD
HETATM   11  C3  UNL     1      12.337  11.296  14.527  1.00  0.00     0.708 C
HETATM   12  N5  UNL     1      11.561  11.502  13.321  1.00  0.00    -0.118 N
ATOM     13  H5  UNL     1      10.863  10.804  13.061  1.00  0.00     0.207 HD
HETATM   14  N6  UNL     1      11.717  12.514  12.577  1.00  0.00    -0.235 N
ATOM     15  H6  UNL     1      12.412  13.216  12.827  1.00  0.00     0.208 HD
HETATM   16  N8  UNL     1      13.644  10.834  14.296  1.00  0.00    -0.224 N
ATOM     17  H8  UNL     1      14.376  11.524  14.132  1.00  0.00     0.177 HD
ENDROOT
BRANCH  16  18
HETATM   18  C4  UNL     1      14.008   9.429  14.278  1.00  0.00     0.148 C
BRANCH  18  19
HETATM   19  C5  UNL     1      14.878   9.218  13.019  1.00  0.00     0.133 C
BRANCH  19  20
HETATM   20  C6  UNL     1      14.799  10.368  12.094  1.00  0.00     0.174 C
HETATM   21  O1  UNL     1      15.837  11.098  11.984  1.00  0.00    -0.648 OA
HETATM   22  O2  UNL     1      13.627  10.603  11.402  1.00  0.00    -0.648 OA
ENDBRANCH  19  20
ENDBRANCH  18  19
ENDBRANCH  16  18
BRANCH  14  23
HETATM   23  N7  UNL     1      10.963  12.685  11.434  1.00  0.00    -0.330 N
ATOM     24  H72 UNL     1      10.010  12.320  11.423  1.00  0.00     0.178 HD
ATOM     25  H71 UNL     1      11.342  13.162  10.617  1.00  0.00     0.178 HD
ENDBRANCH  14  23
TORSDOF 4
ENDMDL