MODEL 4
REMARK VINA RESULT: -6.124559766      2.414      4.329
REMARK  7 active torsions:
REMARK  status: ('A' for Active; 'I' for Inactive)
REMARK    1  A    between atoms: N1_1  and  N2_4
REMARK    2  A    between atoms: N2_4  and  N3_6
REMARK       I    between atoms: C1_8  and  N4_9
REMARK       I    between atoms: C1_8  and  N8_22
REMARK    3  A    between atoms: N4_9  and  C2_11
REMARK    4  A    between atoms: C2_11  and  C3_12
REMARK    5  A    between atoms: C3_12  and  N5_13
REMARK    6  A    between atoms: N6_17  and  N7_19
REMARK    7  A    between atoms: N8_22  and  C4_24
ROOT
HETATM    1  N3  UNL     1      15.882  11.266  11.078  1.00  0.00    -0.118 N
ATOM      2  H3  UNL     1      15.405  12.157  10.943  1.00  0.00     0.207 HD
HETATM    3  C1  UNL     1      15.522  10.526  12.062  1.00  0.00     0.695 C
HETATM    4  N4  UNL     1      14.493  10.964  12.917  1.00  0.00    -0.176 N
ATOM      5  H4  UNL     1      14.494  10.667  13.893  1.00  0.00     0.185 HD
HETATM    6  N8  UNL     1      16.154   9.286  12.282  1.00  0.00    -0.219 N
ATOM      7  H8  UNL     1      17.145   9.294  12.525  1.00  0.00     0.178 HD
ENDROOT
BRANCH   1   8
HETATM    8  N2  UNL     1      16.894  10.911  10.181  1.00  0.00    -0.235 N
ATOM      9  H2  UNL     1      17.817  10.675  10.545  1.00  0.00     0.208 HD
BRANCH   8  10
HETATM   10  N1  UNL     1      16.698  10.873   8.911  1.00  0.00    -0.330 N
ATOM     11  H12 UNL     1      15.836  11.281   8.548  1.00  0.00     0.178 HD
ATOM     12  H11 UNL     1      17.371  10.452   8.271  1.00  0.00     0.178 HD
ENDBRANCH   8  10
ENDBRANCH   1   8
BRANCH   4  13
HETATM   13  C2  UNL     1      13.453  11.810  12.451  1.00  0.00     0.137 C
HETATM   14  N6  UNL     1      13.504  12.212  11.243  1.00  0.00    -0.294 N
ATOM     15  H6  UNL     1      14.298  11.896  10.685  1.00  0.00     0.187 HD
BRANCH  13  16
HETATM   16  C3  UNL     1      12.341  12.202  13.374  1.00  0.00     0.307 C
BRANCH  16  17
HETATM   17  N5  UNL     1      11.111  11.516  12.989  1.00  0.00    -0.073 N
ATOM     18  H53 UNL     1      11.274  10.535  12.763  1.00  0.00     0.274 HD
ATOM     19  H52 UNL     1      10.482  11.384  13.781  1.00  0.00     0.274 HD
ATOM     20  H51 UNL     1      10.661  12.016  12.222  1.00  0.00     0.274 HD
ENDBRANCH  16  17
ENDBRANCH  13  16
BRANCH  14  21
HETATM   21  N7  UNL     1      12.592  13.033  10.616  1.00  0.00    -0.344 N
ATOM     22  H72 UNL     1      11.614  12.872  10.856  1.00  0.00     0.176 HD
ATOM     23  H71 UNL     1      12.804  13.773   9.947  1.00  0.00     0.176 HD
ENDBRANCH  14  21
ENDBRANCH   4  13
BRANCH   6  24
HETATM   24  C4  UNL     1      15.496   8.011  12.188  1.00  0.00     0.118 C
HETATM   25  C5  UNL     1      14.997   7.447  13.507  1.00  0.00     0.100 C
HETATM   26  S1  UNL     1      15.178   5.786  12.800  1.00  0.00    -0.165 SA
HETATM   27  C6  UNL     1      16.499   6.866  12.151  1.00  0.00     0.100 C
ENDBRANCH   6  24
TORSDOF 7
ENDMDL