MODEL 1
REMARK VINA RESULT: -7.808610335      0.000      0.000
REMARK  4 active torsions:
REMARK  status: ('A' for Active; 'I' for Inactive)
REMARK    1  A    between atoms: C4_11  and  N4_12
REMARK    2  A    between atoms: N4_12  and  C5_14
REMARK    3  A    between atoms: C5_14  and  C6_15
REMARK    4  A    between atoms: N5_16  and  N6_18
ROOT
HETATM    1  N1  UNL     1      14.803   7.802  13.715  1.00  0.00    -0.234 N
ATOM      2  H11 UNL     1      15.149   7.788  12.755  1.00  0.00     0.174 HD
ATOM      3  H12 UNL     1      15.019   6.874  14.076  1.00  0.00     0.174 HD
HETATM    4  C1  UNL     1      14.218   8.724  14.400  1.00  0.00     0.676 A
HETATM    5  N2  UNL     1      13.763   8.742  15.664  1.00  0.00    -0.193 N
ATOM      6  H2  UNL     1      13.830   7.952  16.306  1.00  0.00     0.184 HD
HETATM    7  C2  UNL     1      13.213   9.923  15.981  1.00  0.00     0.066 A
HETATM    8  C3  UNL     1      13.323  10.702  14.856  1.00  0.00     0.117 A
HETATM    9  N3  UNL     1      13.929   9.968  13.915  1.00  0.00    -0.186 N
ATOM     10  H3  UNL     1      14.143  10.292  12.972  1.00  0.00     0.184 HD
HETATM   11  C4  UNL     1      12.884  12.074  14.659  1.00  0.00     0.146 C
HETATM   12  N7  UNL     1      12.281  12.875  15.463  1.00  0.00    -0.281 N
ATOM     13  H7  UNL     1      12.076  13.802  15.091  1.00  0.00     0.188 HD
HETATM   14  N8  UNL     1      11.865  12.643  16.795  1.00  0.00    -0.268 N
ATOM     15  H8  UNL     1      11.547  13.448  17.335  1.00  0.00     0.190 HD
HETATM   16  C7  UNL     1      11.856  11.385  17.436  1.00  0.00     0.241 C
HETATM   17  O1  UNL     1      10.940  11.291  18.328  1.00  0.00    -0.271 OA
HETATM   18  C8  UNL     1      12.652  10.169  17.310  1.00  0.00     0.164 C
ENDROOT
BRANCH  11  19
HETATM   19  N4  UNL     1      13.159  12.632  13.380  1.00  0.00    -0.369 N
ATOM     20  H4  UNL     1      13.992  13.214  13.296  1.00  0.00     0.161 HD
BRANCH  19  21
HETATM   21  C5  UNL     1      12.373  12.452  12.204  1.00  0.00     0.167 C
BRANCH  21  22
HETATM   22  C6  UNL     1      13.120  11.789  11.111  1.00  0.00     0.099 C
HETATM   23  N5  UNL     1      14.380  11.644  11.223  1.00  0.00    -0.321 N
ATOM     24  H5  UNL     1      14.857  11.985  12.058  1.00  0.00     0.185 HD
BRANCH  23  25
HETATM   25  N6  UNL     1      15.105  11.028  10.222  1.00  0.00    -0.346 N
ATOM     26  H62 UNL     1      14.728  10.184   9.791  1.00  0.00     0.176 HD
ATOM     27  H61 UNL     1      16.000  11.413   9.921  1.00  0.00     0.176 HD
ENDBRANCH  23  25
ENDBRANCH  21  22
ENDBRANCH  19  21
ENDBRANCH  11  19
TORSDOF 4
ENDMDL