MODEL 3
REMARK VINA RESULT: -6.168343304      3.485      5.465
REMARK  5 active torsions:
REMARK  status: ('A' for Active; 'I' for Inactive)
REMARK    1  A    between atoms: C2_2  and  C5_5
REMARK    2  A    between atoms: C6_6  and  N1_7
REMARK    3  A    between atoms: C7_11  and  N2_12
REMARK    4  A    between atoms: C8_16  and  N3_17
REMARK       I    between atoms: N3_17  and  C9_19
REMARK       I    between atoms: C9_19  and  N5_23
REMARK    5  A    between atoms: N5_23  and  N6_25
ROOT
HETATM    1  C5  UNL     1      12.381  10.634  15.920  1.00  0.00     0.051 C
HETATM    2  C6  UNL     1      13.177   9.437  16.388  1.00  0.00     0.222 C
HETATM    3  C7  UNL     1      13.907   9.503  15.038  1.00  0.00     0.237 C
HETATM    4  C8  UNL     1      12.849  10.466  14.541  1.00  0.00     0.138 C
ENDROOT
BRANCH   4   5
HETATM    5  N3  UNL     1      13.311  11.568  13.773  1.00  0.00    -0.218 N
HETATM    6  C9  UNL     1      12.721  12.010  12.557  1.00  0.00     0.687 C
HETATM    7  N4  UNL     1      11.455  12.110  12.387  1.00  0.00    -0.234 N
HETATM    8  N5  UNL     1      13.580  12.356  11.482  1.00  0.00    -0.119 N
ATOM      9  H42 UNL     1      10.837  11.862  13.160  1.00  0.00     0.174 HD
ATOM     10  H41 UNL     1      11.030  12.427  11.515  1.00  0.00     0.174 HD
ATOM     11  H5  UNL     1      13.531  13.314  11.136  1.00  0.00     0.207 HD
ATOM     12  H3  UNL     1      14.125  12.079  14.117  1.00  0.00     0.178 HD
BRANCH   8  13
HETATM   13  N6  UNL     1      14.468  11.513  10.869  1.00  0.00    -0.235 N
HETATM   14  N7  UNL     1      15.669  11.440  11.247  1.00  0.00    -0.330 N
ATOM     15  H72 UNL     1      15.968  12.027  12.025  1.00  0.00     0.178 HD
ATOM     16  H71 UNL     1      16.331  10.812  10.790  1.00  0.00     0.178 HD
ATOM     17  H6  UNL     1      14.152  10.933  10.092  1.00  0.00     0.208 HD
ENDBRANCH   8  13
ENDBRANCH   4   5
BRANCH   1  18
HETATM   18  C2  UNL     1      12.514  11.876  16.695  1.00  0.00    -0.044 C
HETATM   19  C1  UNL     1      11.649  11.690  17.958  1.00  0.00     0.015 C
HETATM   20  C3  UNL     1      13.855  12.306  17.117  1.00  0.00     0.015 C
HETATM   21  C4  UNL     1      11.860  12.991  15.903  1.00  0.00     0.015 C
ENDBRANCH   1  18
BRANCH   3  22
HETATM   22  N2  UNL     1      13.880   8.188  14.412  1.00  0.00    -0.071 N
ATOM     23  H23 UNL     1      14.198   7.453  15.044  1.00  0.00     0.274 HD
ATOM     24  H22 UNL     1      12.929   7.848  14.265  1.00  0.00     0.274 HD
ATOM     25  H21 UNL     1      14.420   8.216  13.548  1.00  0.00     0.274 HD
ENDBRANCH   3  22
BRANCH   2  26
HETATM   26  N1  UNL     1      14.045   9.645  17.510  1.00  0.00    -0.072 N
ATOM     27  H13 UNL     1      14.874   9.058  17.416  1.00  0.00     0.274 HD
ATOM     28  H12 UNL     1      14.465  10.573  17.451  1.00  0.00     0.274 HD
ATOM     29  H11 UNL     1      13.634   9.512  18.434  1.00  0.00     0.274 HD
ENDBRANCH   2  26
TORSDOF 5
ENDMDL