MODEL 2
REMARK VINA RESULT: -6.751972394      4.518      7.307
REMARK  3 active torsions:
REMARK  status: ('A' for Active; 'I' for Inactive)
REMARK       I    between atoms: C2_4  and  N2_5
REMARK       I    between atoms: C2_4  and  N3_8
REMARK    1  A    between atoms: N2_5  and  C3_6
REMARK    2  A    between atoms: N3_8  and  C4_10
REMARK    3  A    between atoms: C4_10  and  C5_11
ROOT
HETATM    1  C5  UNL     1      12.933  10.662  13.864  1.00  0.00     0.159 C
HETATM    2  C6  UNL     1      12.309  11.847  14.375  1.00  0.00    -0.061 C
HETATM    3  N4  UNL     1      11.870  12.829  15.201  1.00  0.00    -0.358 N
ATOM      4  H4  UNL     1      11.462  13.706  14.878  1.00  0.00     0.168 HD
HETATM    5  C7  UNL     1      12.056  12.473  16.640  1.00  0.00     0.148 C
HETATM    6  C8  UNL     1      13.224  11.630  16.928  1.00  0.00     0.141 C
HETATM    7  N5  UNL     1      13.357  10.297  16.386  1.00  0.00    -0.377 N
ATOM      8  H5  UNL     1      13.483   9.579  17.099  1.00  0.00     0.160 HD
HETATM    9  C9  UNL     1      13.348   9.778  15.050  1.00  0.00     0.089 C
HETATM   10  N6  UNL     1      13.667   8.579  14.811  1.00  0.00    -0.388 N
ATOM     11  H61 UNL     1      13.943   7.992  15.598  1.00  0.00     0.157 HD
ATOM     12  H62 UNL     1      13.661   8.210  13.860  1.00  0.00     0.157 HD
ENDROOT
BRANCH   1  13
HETATM   13  C4  UNL     1      14.241  10.888  13.075  1.00  0.00     0.149 C
BRANCH  13  14
HETATM   14  N3  UNL     1      14.031  10.502  11.720  1.00  0.00    -0.349 N
HETATM   15  C2  UNL     1      15.124  10.206  10.830  1.00  0.00     0.253 C
HETATM   16  N1  UNL     1      16.086  11.140  10.865  1.00  0.00    -0.355 N
HETATM   17  N2  UNL     1      15.304   9.172   9.996  1.00  0.00    -0.344 NA
HETATM   18  C1  UNL     1      17.263  11.028  10.038  1.00  0.00     0.150 C
ATOM     19  H1  UNL     1      15.983  11.942  11.486  1.00  0.00     0.163 HD
ATOM     20  H3  UNL     1      13.077  10.432  11.370  1.00  0.00     0.163 HD
BRANCH  17  21
HETATM   21  C3  UNL     1      15.484   8.119   9.148  1.00  0.00     0.445 C
HETATM   22  O1  UNL     1      15.935   8.029   7.977  1.00  0.00    -0.268 OA
ENDBRANCH  17  21
ENDBRANCH  13  14
ENDBRANCH   1  13
TORSDOF 3
ENDMDL