MODEL 5
REMARK VINA RESULT: -6.183064355      2.807      4.857
REMARK  2 active torsions:
REMARK  status: ('A' for Active; 'I' for Inactive)
REMARK       I    between atoms: N1_2  and  C2_4
REMARK       I    between atoms: C2_4  and  N2_6
REMARK    1  A    between atoms: N2_6  and  C3_8
REMARK    2  A    between atoms: C6_14  and  N4_15
REMARK       I    between atoms: N4_15  and  C7_17
REMARK       I    between atoms: C7_17  and  N5_19
ROOT
HETATM    1  C3  UNL     1      17.141   9.009   8.937  1.00  0.00     0.136 C
HETATM    2  C4  UNL     1      16.865  10.436   8.552  1.00  0.00     0.150 C
HETATM    3  N3  UNL     1      17.227  11.143   9.767  1.00  0.00    -0.357 N
ATOM      4  H3  UNL     1      17.696  12.045   9.842  1.00  0.00     0.162 HD
HETATM    5  C5  UNL     1      16.788  10.306  10.831  1.00  0.00     0.242 C
HETATM    6  O2  UNL     1      16.610  10.728  12.012  1.00  0.00    -0.271 OA
HETATM    7  C6  UNL     1      16.584   8.918  10.345  1.00  0.00     0.202 C
ENDROOT
BRANCH   1   8
HETATM    8  N2  UNL     1      16.534   8.060   8.050  1.00  0.00    -0.334 N
HETATM    9  C2  UNL     1      17.157   6.829   7.796  1.00  0.00     0.316 C
HETATM   10  N1  UNL     1      16.619   5.839   6.931  1.00  0.00    -0.347 N
HETATM   11  O1  UNL     1      18.250   6.564   8.352  1.00  0.00    -0.247 OA
HETATM   12  C1  UNL     1      17.268   4.574   6.678  1.00  0.00     0.151 C
ATOM     13  H1  UNL     1      15.731   6.030   6.467  1.00  0.00     0.163 HD
ATOM     14  H2  UNL     1      15.644   8.280   7.601  1.00  0.00     0.164 HD
ENDBRANCH   1   8
BRANCH   7  15
HETATM   15  N4  UNL     1      17.392   8.051  11.160  1.00  0.00    -0.328 N
HETATM   16  C7  UNL     1      16.976   6.764  11.592  1.00  0.00     0.316 C
HETATM   17  O3  UNL     1      15.834   6.378  11.231  1.00  0.00    -0.247 OA
HETATM   18  N5  UNL     1      17.782   5.928  12.389  1.00  0.00    -0.347 N
HETATM   19  C8  UNL     1      17.313   4.629  12.801  1.00  0.00     0.151 C
ATOM     20  H5  UNL     1      18.707   6.245  12.677  1.00  0.00     0.163 HD
ATOM     21  H4  UNL     1      18.315   8.378  11.443  1.00  0.00     0.165 HD
ENDBRANCH   7  15
TORSDOF 2
ENDMDL