MODEL 5
REMARK VINA RESULT: -5.679533926      6.051      9.655
REMARK  6 active torsions:
REMARK  status: ('A' for Active; 'I' for Inactive)
REMARK    1  A    between atoms: N1_2  and  C3_4
REMARK    2  A    between atoms: N1_2  and  C6_11
REMARK    3  A    between atoms: C3_4  and  C4_5
REMARK    4  A    between atoms: C4_5  and  C5_6
REMARK    5  A    between atoms: C5_6  and  N2_7
REMARK    6  A    between atoms: C9_17  and  N4_18
ROOT
HETATM    1  C6  UNL     1      17.603   7.544   8.746  1.00  0.00     0.281 C
HETATM    2  C7  UNL     1      17.981   7.556  10.201  1.00  0.00     0.273 C
HETATM    3  N3  UNL     1      18.072   8.870  10.767  1.00  0.00    -0.069 N
ATOM      4  H31 UNL     1      18.571   9.533  10.173  1.00  0.00     0.277 HD
ATOM      5  H32 UNL     1      18.700   8.922  11.570  1.00  0.00     0.277 HD
HETATM    6  C8  UNL     1      16.705   9.283  11.074  1.00  0.00     0.286 C
HETATM    7  C9  UNL     1      16.346  10.339  10.093  1.00  0.00     0.308 C
HETATM    8  N5  UNL     1      16.383   9.899   8.742  1.00  0.00    -0.350 N
ATOM      9  H5  UNL     1      15.802  10.414   8.082  1.00  0.00     0.163 HD
HETATM   10  C10 UNL     1      17.152   8.806   8.201  1.00  0.00     0.105 C
HETATM   11  N6  UNL     1      17.494   9.071   6.960  1.00  0.00    -0.387 N
ATOM     12  H61 UNL     1      17.177   9.960   6.576  1.00  0.00     0.157 HD
ATOM     13  H62 UNL     1      18.038   8.298   6.577  1.00  0.00     0.157 HD
ENDROOT
BRANCH   1  14
HETATM   14  N1  UNL     1      16.765   6.387   8.436  1.00  0.00    -0.062 N
HETATM   15  C1  UNL     1      16.727   5.573   9.647  1.00  0.00     0.273 C
HETATM   16  C2  UNL     1      15.389   6.838   8.297  1.00  0.00     0.273 C
BRANCH  14  17
HETATM   17  C3  UNL     1      17.212   5.553   7.399  1.00  0.00     0.239 C
BRANCH  17  18
HETATM   18  C4  UNL     1      18.510   4.852   7.569  1.00  0.00     0.055 C
BRANCH  18  19
HETATM   19  C5  UNL     1      19.265   4.960   6.238  1.00  0.00     0.231 C
BRANCH  19  20
HETATM   20  N2  UNL     1      19.699   6.333   6.010  1.00  0.00    -0.079 N
ATOM     21  H23 UNL     1      20.236   6.423   5.147  1.00  0.00     0.274 HD
ATOM     22  H22 UNL     1      18.918   6.943   5.766  1.00  0.00     0.274 HD
ATOM     23  H21 UNL     1      20.217   6.683   6.816  1.00  0.00     0.274 HD
ENDBRANCH  19  20
ENDBRANCH  18  19
ENDBRANCH  17  18
ENDBRANCH  14  17
ENDBRANCH   1  14
BRANCH   7  24
HETATM   24  N4  UNL     1      14.998  10.878  10.341  1.00  0.00    -0.057 N
ATOM     25  H43 UNL     1      14.601  10.505  11.203  1.00  0.00     0.276 HD
ATOM     26  H42 UNL     1      15.034  11.865  10.596  1.00  0.00     0.276 HD
ATOM     27  H41 UNL     1      14.377  10.719   9.547  1.00  0.00     0.276 HD
ENDBRANCH   7  24
TORSDOF 6
ENDMDL