MODEL 1
REMARK VINA RESULT: -7.101901704      0.000      0.000
REMARK  4 active torsions:
REMARK  status: ('A' for Active; 'I' for Inactive)
REMARK    1  A    between atoms: N1_2  and  C3_5
REMARK    2  A    between atoms: C3_5  and  C4_6
REMARK    3  A    between atoms: C4_6  and  N2_7
REMARK       I    between atoms: N2_7  and  C5_9
REMARK       I    between atoms: C5_9  and  N4_13
REMARK    4  A    between atoms: N4_13  and  C6_15
ROOT
HETATM    1  N2  UNL     1      13.618  11.941  11.046  1.00  0.00    -0.221 N
ATOM      2  H2  UNL     1      13.917  12.496  10.244  1.00  0.00     0.178 HD
HETATM    3  C5  UNL     1      12.737  12.486  12.007  1.00  0.00     0.669 C
HETATM    4  N3  UNL     1      11.507  12.655  11.706  1.00  0.00    -0.235 N
ATOM      5  H31 UNL     1      10.871  13.048  12.399  1.00  0.00     0.174 HD
ATOM      6  H32 UNL     1      11.179  12.394  10.776  1.00  0.00     0.174 HD
HETATM    7  N4  UNL     1      13.190  12.848  13.293  1.00  0.00    -0.196 N
ATOM      8  H4  UNL     1      14.124  13.249  13.381  1.00  0.00     0.180 HD
ENDROOT
BRANCH   1   9
HETATM    9  C4  UNL     1      14.085  10.588  11.217  1.00  0.00     0.199 C
BRANCH   9  10
HETATM   10  C3  UNL     1      15.216  10.225  10.318  1.00  0.00     0.265 C
BRANCH  10  11
HETATM   11  N1  UNL     1      16.494  10.122  10.900  1.00  0.00     0.026 N
HETATM   12  C1  UNL     1      17.459  10.716   9.960  1.00  0.00     0.362 C
HETATM   13  C2  UNL     1      16.960   8.827  11.230  1.00  0.00     0.362 C
HETATM   14  O1  UNL     1      16.533  10.939  12.003  1.00  0.00    -0.061 OA
ENDBRANCH  10  11
ENDBRANCH   9  10
ENDBRANCH   1   9
BRANCH   7  15
HETATM   15  C6  UNL     1      12.403  12.681  14.496  1.00  0.00     0.325 C
HETATM   16  C7  UNL     1      12.093  11.223  14.691  1.00  0.00     0.287 C
HETATM   17  N5  UNL     1      13.262  10.588  15.320  1.00  0.00    -0.070 N
HETATM   18  C8  UNL     1      13.285  11.015  16.696  1.00  0.00     0.260 C
ATOM     19  H52 UNL     1      13.271   9.573  15.216  1.00  0.00     0.277 HD
ATOM     20  H51 UNL     1      14.135  10.777  14.827  1.00  0.00     0.277 HD
HETATM   21  C9  UNL     1      12.962  12.470  16.822  1.00  0.00     0.262 C
HETATM   22  N6  UNL     1      13.158  13.228  15.609  1.00  0.00    -0.051 N
ATOM     23  H62 UNL     1      14.149  13.310  15.380  1.00  0.00     0.279 HD
ATOM     24  H61 UNL     1      12.943  14.216  15.752  1.00  0.00     0.279 HD
ENDBRANCH   7  15
TORSDOF 4
ENDMDL