MODEL 3
REMARK VINA RESULT: -7.217457989      5.291      7.976
REMARK  6 active torsions:
REMARK  status: ('A' for Active; 'I' for Inactive)
REMARK    1  A    between atoms: N1_1  and  C1_4
REMARK    2  A    between atoms: N3_10  and  C4_11
REMARK    3  A    between atoms: C4_11  and  C5_12
REMARK    4  A    between atoms: C5_12  and  N4_13
REMARK    5  A    between atoms: N4_13  and  C6_15
REMARK    6  A    between atoms: C7_20  and  N7_21
ROOT
HETATM    1  N4  UNL     1      14.987  10.183  12.704  1.00  0.00    -0.223 N
ATOM      2  H4  UNL     1      15.547  10.479  13.503  1.00  0.00     0.177 HD
ENDROOT
BRANCH   1   3
HETATM    3  C5  UNL     1      15.162   8.852  12.174  1.00  0.00     0.158 C
BRANCH   3   4
HETATM    4  C4  UNL     1      16.583   8.623  11.704  1.00  0.00     0.155 C
BRANCH   4   5
HETATM    5  N3  UNL     1      16.758   8.891  10.313  1.00  0.00    -0.286 N
HETATM    6  C1  UNL     1      16.694   7.982   9.202  1.00  0.00     0.099 C
HETATM    7  C2  UNL     1      16.689   8.794   7.986  1.00  0.00     0.200 C
HETATM    8  N2  UNL     1      17.149  10.093   8.388  1.00  0.00    -0.336 N
HETATM    9  C3  UNL     1      17.041  10.194   9.788  1.00  0.00     0.324 C
ATOM     10  H2  UNL     1      17.496  10.822   7.763  1.00  0.00     0.164 HD
HETATM   11  O1  UNL     1      17.177  11.275  10.437  1.00  0.00    -0.247 OA
BRANCH   6  12
HETATM   12  N1  UNL     1      16.652   6.709   9.315  1.00  0.00    -0.387 N
ATOM     13  H12 UNL     1      15.801   6.176   9.490  1.00  0.00     0.157 HD
ATOM     14  H11 UNL     1      17.418   6.037   9.253  1.00  0.00     0.157 HD
ENDBRANCH   6  12
ENDBRANCH   4   5
ENDBRANCH   3   4
ENDBRANCH   1   3
BRANCH   1  15
HETATM   15  C6  UNL     1      14.125  11.020  12.181  1.00  0.00     0.707 A
HETATM   16  N5  UNL     1      14.314  11.891  11.174  1.00  0.00    -0.117 N
HETATM   17  N6  UNL     1      13.205  12.568  10.927  1.00  0.00    -0.118 N
ATOM     18  H5  UNL     1      15.192  12.013  10.669  1.00  0.00     0.206 HD
HETATM   19  C7  UNL     1      12.280  12.121  11.796  1.00  0.00     0.705 A
ATOM     20  H6  UNL     1      13.076  13.288  10.217  1.00  0.00     0.206 HD
HETATM   21  N8  UNL     1      12.845  11.173  12.564  1.00  0.00    -0.020 N
ATOM     22  H8  UNL     1      12.381  10.656  13.312  1.00  0.00     0.203 HD
BRANCH  19  23
HETATM   23  N7  UNL     1      11.040  12.528  11.892  1.00  0.00    -0.233 N
ATOM     24  H72 UNL     1      10.513  12.987  11.149  1.00  0.00     0.174 HD
ATOM     25  H71 UNL     1      10.435  12.446  12.709  1.00  0.00     0.174 HD
ENDBRANCH  19  23
ENDBRANCH   1  15
TORSDOF 6
ENDMDL