MODEL 4
REMARK VINA RESULT: -7.855297952      0.961      1.068
REMARK  4 active torsions:
REMARK  status: ('A' for Active; 'I' for Inactive)
REMARK    1  A    between atoms: N1_1  and  N2_4
REMARK    2  A    between atoms: N2_4  and  N3_6
REMARK       I    between atoms: N3_6  and  C1_8
REMARK       I    between atoms: C1_8  and  N5_12
REMARK       I    between atoms: N5_12  and  C2_14
REMARK    3  A    between atoms: C2_14  and  C3_16
REMARK    4  A    between atoms: C5_18  and  C6_19
ROOT
HETATM    1  N3  UNL     1      14.101  11.306  11.022  1.00  0.00    -0.118 N
ATOM      2  H3  UNL     1      13.820  10.493  10.473  1.00  0.00     0.207 HD
HETATM    3  C1  UNL     1      13.094  12.175  11.563  1.00  0.00     0.694 C
HETATM    4  N4  UNL     1      12.663  13.090  10.739  1.00  0.00    -0.233 N
ATOM      5  H41 UNL     1      11.948  13.707  11.124  1.00  0.00     0.174 HD
ATOM      6  H42 UNL     1      13.065  13.149   9.804  1.00  0.00     0.174 HD
HETATM    7  N5  UNL     1      12.544  12.094  12.846  1.00  0.00    -0.153 N
ATOM      8  H5  UNL     1      11.794  12.731  13.114  1.00  0.00     0.187 HD
HETATM    9  C2  UNL     1      13.033  11.099  13.817  1.00  0.00     0.281 C
HETATM   10  O1  UNL     1      13.930  10.313  13.466  1.00  0.00    -0.266 OA
ENDROOT
BRANCH   9  11
HETATM   11  C3  UNL     1      12.469  11.057  15.171  1.00  0.00     0.075 C
HETATM   12  C4  UNL     1      12.035  12.185  15.952  1.00  0.00     0.079 C
HETATM   13  C5  UNL     1      12.434  11.848  17.400  1.00  0.00     0.110 C
HETATM   14  C7  UNL     1      12.733  10.406  17.382  1.00  0.00     0.135 C
HETATM   15  N6  UNL     1      13.250  10.135  16.042  1.00  0.00    -0.388 N
ATOM     16  H6  UNL     1      13.973   9.471  15.768  1.00  0.00     0.159 HD
BRANCH  13  17
HETATM   17  C6  UNL     1      13.483  12.734  17.918  1.00  0.00     0.178 C
HETATM   18  O2  UNL     1      14.195  13.447  17.171  1.00  0.00    -0.648 OA
HETATM   19  O3  UNL     1      13.759  12.848  19.278  1.00  0.00    -0.648 OA
ENDBRANCH  13  17
ENDBRANCH   9  11
BRANCH   1  20
HETATM   20  N2  UNL     1      15.407  11.545  11.228  1.00  0.00    -0.235 N
ATOM     21  H2  UNL     1      15.809  12.426  10.909  1.00  0.00     0.208 HD
BRANCH  20  22
HETATM   22  N1  UNL     1      16.168  10.681  11.825  1.00  0.00    -0.330 N
ATOM     23  H12 UNL     1      16.761  11.007  12.588  1.00  0.00     0.178 HD
ATOM     24  H11 UNL     1      16.181   9.700  11.546  1.00  0.00     0.178 HD
ENDBRANCH  20  22
ENDBRANCH   1  20
TORSDOF 4
ENDMDL