MODEL 5
REMARK VINA RESULT: -5.674654296      1.096      1.473
REMARK  4 active torsions:
REMARK  status: ('A' for Active; 'I' for Inactive)
REMARK    1  A    between atoms: C2_2  and  C3_3
REMARK    2  A    between atoms: C3_3  and  C4_4
REMARK    3  A    between atoms: C4_4  and  C6_6
REMARK    4  A    between atoms: C22_22  and  O1_23
ROOT
HETATM    1  C6  UNL     1      -5.845  20.038  -2.502  1.00  0.00    -0.006 C
HETATM    2  C7  UNL     1      -6.055  20.009  -3.976  1.00  0.00     0.006 C
HETATM    3  C8  UNL     1      -4.720  19.611  -4.594  1.00  0.00     0.010 C
HETATM    4  C9  UNL     1      -4.082  18.832  -3.467  1.00  0.00     0.019 C
HETATM    5  C10 UNL     1      -2.624  18.696  -3.623  1.00  0.00    -0.068 C
HETATM    6  C11 UNL     1      -2.213  17.775  -4.494  1.00  0.00    -0.022 C
HETATM    7  C12 UNL     1      -0.798  17.484  -4.794  1.00  0.00     0.032 C
HETATM    8  C13 UNL     1       0.129  18.427  -4.136  1.00  0.00    -0.005 C
HETATM    9  C14 UNL     1       1.410  18.590  -4.906  1.00  0.00     0.009 C
HETATM   10  C15 UNL     1       1.499  19.919  -5.609  1.00  0.00    -0.018 C
HETATM   11  C16 UNL     1       2.842  20.019  -6.282  1.00  0.00     0.010 C
HETATM   12  C17 UNL     1       1.334  21.082  -4.688  1.00  0.00     0.005 C
HETATM   13  C18 UNL     1       0.616  20.636  -3.401  1.00  0.00     0.006 C
HETATM   14  C19 UNL     1      -0.510  19.782  -3.798  1.00  0.00     0.005 C
HETATM   15  C20 UNL     1      -1.618  19.533  -2.860  1.00  0.00     0.009 C
HETATM   16  C21 UNL     1      -1.136  18.690  -1.689  1.00  0.00     0.023 C
HETATM   17  C22 UNL     1      -2.353  20.719  -2.361  1.00  0.00     0.131 C
HETATM   18  C23 UNL     1      -3.591  20.427  -1.601  1.00  0.00     0.038 C
HETATM   19  C24 UNL     1      -4.530  19.433  -2.176  1.00  0.00     0.001 C
ENDROOT
BRANCH   1  20
HETATM   20  C4  UNL     1      -7.018  19.465  -1.720  1.00  0.00    -0.014 C
HETATM   21  C5  UNL     1      -6.672  18.250  -0.964  1.00  0.00     0.010 C
BRANCH  20  22
HETATM   22  C3  UNL     1      -8.127  19.276  -2.694  1.00  0.00     0.004 C
BRANCH  22  23
HETATM   23  C2  UNL     1      -9.440  18.837  -2.188  1.00  0.00    -0.004 C
HETATM   24  C1  UNL     1      -9.547  17.511  -1.525  1.00  0.00     0.005 C
ENDBRANCH  22  23
ENDBRANCH  20  22
ENDBRANCH   1  20
BRANCH  17  25
HETATM   25  O1  UNL     1      -1.585  21.501  -1.463  1.00  0.00    -0.394 OA
ATOM     26  H1  UNL     1      -0.652  21.436  -1.625  1.00  0.00     0.210 HD
ENDBRANCH  17  25
TORSDOF 4
ENDMDL