MODEL 4
REMARK VINA RESULT: -4.917970227      0.886      1.128
REMARK  3 active torsions:
REMARK  status: ('A' for Active; 'I' for Inactive)
REMARK    1  A    between atoms: C2_2  and  C3_3
REMARK    2  A    between atoms: C3_3  and  N1_4
REMARK       I    between atoms: N1_4  and  C4_6
REMARK    3  A    between atoms: C4_6  and  C5_8
ROOT
HETATM    1  C5  UNL     1      -2.898  18.539  -1.536  1.00  0.00     0.086 C
HETATM    2  C6  UNL     1      -2.416  19.809  -0.812  1.00  0.00     0.015 C
HETATM    3  C7  UNL     1      -0.927  19.692  -1.047  1.00  0.00     0.007 C
HETATM    4  C8  UNL     1      -0.756  18.931  -2.311  1.00  0.00    -0.001 C
HETATM    5  C9  UNL     1      -0.000  19.738  -3.308  1.00  0.00    -0.001 C
HETATM    6  C10 UNL     1      -0.146  21.209  -3.181  1.00  0.00     0.033 C
HETATM    7  C11 UNL     1      -0.015  21.958  -4.475  1.00  0.00    -0.018 C
HETATM    8  C12 UNL     1       0.386  21.385  -5.577  1.00  0.00    -0.047 C
HETATM    9  C13 UNL     1       0.436  22.313  -6.714  1.00  0.00     0.004 C
HETATM   10  C14 UNL     1       0.979  21.921  -8.011  1.00  0.00    -0.025 C
HETATM   11  C15 UNL     1       0.363  20.860  -8.862  1.00  0.00     0.038 C
HETATM   12  C16 UNL     1       0.642  19.409  -8.348  1.00  0.00     0.084 C
HETATM   13  C17 UNL     1       0.699  19.453  -6.936  1.00  0.00    -0.173 C
HETATM   14  C18 UNL     1       0.724  19.906  -5.587  1.00  0.00     0.089 C
HETATM   15  C19 UNL     1      -0.277  19.184  -4.660  1.00  0.00     0.009 C
HETATM   16  C20 UNL     1      -1.671  19.287  -5.107  1.00  0.00     0.007 C
HETATM   17  C21 UNL     1      -2.636  19.324  -3.920  1.00  0.00     0.011 C
HETATM   18  C22 UNL     1      -2.150  18.518  -2.776  1.00  0.00    -0.028 C
HETATM   19  C23 UNL     1      -2.061  17.063  -3.267  1.00  0.00     0.016 C
ENDROOT
BRANCH   1  20
HETATM   20  C4  UNL     1      -4.331  18.517  -1.483  1.00  0.00     0.222 C
HETATM   21  N1  UNL     1      -5.254  19.440  -1.979  1.00  0.00    -0.361 N
ATOM     22  H1  UNL     1      -4.904  20.269  -2.457  1.00  0.00     0.162 HD
HETATM   23  O1  UNL     1      -4.855  17.501  -0.892  1.00  0.00    -0.273 OA
BRANCH  21  24
HETATM   24  C3  UNL     1      -6.680  19.274  -1.847  1.00  0.00     0.122 C
BRANCH  24  25
HETATM   25  C2  UNL     1      -7.442  20.327  -2.602  1.00  0.00     0.015 C
HETATM   26  C1  UNL     1      -7.946  19.667  -3.889  1.00  0.00     0.006 C
ENDBRANCH  24  25
ENDBRANCH  21  24
ENDBRANCH   1  20
TORSDOF 3
ENDMDL