MODEL 5
REMARK VINA RESULT: -5.279786262      1.950      6.929
REMARK  2 active torsions:
REMARK  status: ('A' for Active; 'I' for Inactive)
REMARK    1  A    between atoms: C9_10  and  C10_11
REMARK    2  A    between atoms: N2_16  and  C15_18
ROOT
HETATM    1  C1  UNL     1       3.794  19.300  -6.380  1.00  0.00     0.229 C
HETATM    2  N1  UNL     1       2.826  19.594  -5.776  1.00  0.00    -0.429 NA
HETATM    3  C2  UNL     1       1.696  19.965  -5.033  1.00  0.00     0.112 A
HETATM    4  C3  UNL     1       1.892  20.951  -4.058  1.00  0.00     0.045 A
HETATM    5  C4  UNL     1       0.805  21.321  -3.315  1.00  0.00     0.004 A
HETATM    6  C5  UNL     1      -0.420  20.742  -3.524  1.00  0.00     0.014 A
HETATM    7  C6  UNL     1      -0.585  19.794  -4.466  1.00  0.00    -0.004 A
HETATM    8  C7  UNL     1       0.470  19.381  -5.248  1.00  0.00    -0.005 A
HETATM    9  C8  UNL     1       0.519  18.389  -6.364  1.00  0.00     0.047 C
HETATM   10  C9  UNL     1       0.234  17.023  -5.864  1.00  0.00    -0.010 C
HETATM   11  C12 UNL     1      -0.958  17.027  -4.994  1.00  0.00     0.011 C
HETATM   12  C13 UNL     1      -2.057  17.973  -5.322  1.00  0.00     0.058 C
HETATM   13  C14 UNL     1      -1.973  19.283  -4.538  1.00  0.00     0.016 C
HETATM   14  N2  UNL     1      -2.839  19.423  -3.496  1.00  0.00    -0.383 N
ATOM     15  H2  UNL     1      -3.460  20.226  -3.593  1.00  0.00     0.160 HD
ENDROOT
BRANCH  10  16
HETATM   16  C10 UNL     1       0.099  15.995  -6.961  1.00  0.00     0.000 C
HETATM   17  C11 UNL     1      -0.663  16.490  -8.150  1.00  0.00     0.005 C
ENDBRANCH  10  16
BRANCH  14  18
HETATM   18  C15 UNL     1      -3.048  18.712  -2.348  1.00  0.00     0.031 C
HETATM   19  C16 UNL     1      -2.486  17.325  -2.203  1.00  0.00     0.035 C
HETATM   20  C17 UNL     1      -2.725  16.726  -0.840  1.00  0.00    -0.012 C
HETATM   21  C18 UNL     1      -1.836  17.489   0.124  1.00  0.00     0.009 C
HETATM   22  C22 UNL     1      -4.119  16.798  -0.341  1.00  0.00     0.009 C
HETATM   23  C19 UNL     1      -2.229  18.925   0.040  1.00  0.00    -0.012 C
HETATM   24  C20 UNL     1      -3.646  19.064   0.596  1.00  0.00     0.009 C
HETATM   25  C24 UNL     1      -2.227  19.526  -1.299  1.00  0.00     0.035 C
HETATM   26  C21 UNL     1      -4.509  18.283  -0.324  1.00  0.00    -0.012 C
HETATM   27  C23 UNL     1      -4.442  18.713  -1.773  1.00  0.00     0.035 C
ENDBRANCH  14  18
TORSDOF 2
ENDMDL