MODEL 2
REMARK VINA RESULT: -5.982091958      1.774      2.936
REMARK  4 active torsions:
REMARK  status: ('A' for Active; 'I' for Inactive)
REMARK    1  A    between atoms: C2_2  and  C4_4
REMARK    2  A    between atoms: C4_4  and  C5_5
REMARK    3  A    between atoms: C5_5  and  C6_6
REMARK    4  A    between atoms: C20_20  and  O1_21
ROOT
HETATM    1  C6  UNL     1      -5.316  18.439  -1.466  1.00  0.00    -0.024 C
HETATM    2  C7  UNL     1      -5.019  19.164  -2.506  1.00  0.00    -0.079 C
HETATM    3  C8  UNL     1      -5.794  19.978  -3.423  1.00  0.00     0.034 C
HETATM    4  C9  UNL     1      -5.180  19.534  -4.788  1.00  0.00     0.010 C
HETATM    5  C10 UNL     1      -3.718  19.753  -4.406  1.00  0.00    -0.002 C
HETATM    6  C11 UNL     1      -3.568  19.332  -3.015  1.00  0.00     0.019 C
HETATM    7  C12 UNL     1      -2.864  18.047  -2.756  1.00  0.00     0.010 C
HETATM    8  C13 UNL     1      -1.851  17.642  -3.758  1.00  0.00     0.006 C
HETATM    9  C14 UNL     1      -1.465  18.778  -4.659  1.00  0.00    -0.002 C
HETATM   10  C15 UNL     1      -2.755  19.170  -5.391  1.00  0.00    -0.005 C
HETATM   11  C16 UNL     1      -3.311  18.003  -6.164  1.00  0.00     0.006 C
HETATM   12  C17 UNL     1      -2.281  17.307  -6.981  1.00  0.00     0.006 C
HETATM   13  C18 UNL     1      -1.012  18.087  -7.012  1.00  0.00    -0.004 C
HETATM   14  C19 UNL     1       0.070  17.441  -7.847  1.00  0.00     0.037 C
HETATM   15  C20 UNL     1       1.156  18.438  -8.079  1.00  0.00     0.118 C
HETATM   16  C21 UNL     1       1.602  19.199  -6.893  1.00  0.00     0.032 C
HETATM   17  C22 UNL     1       0.549  19.553  -5.903  1.00  0.00     0.012 C
HETATM   18  C23 UNL     1      -0.425  18.392  -5.675  1.00  0.00    -0.036 C
HETATM   19  C24 UNL     1       0.421  17.253  -5.125  1.00  0.00     0.016 C
ENDROOT
BRANCH   1  20
HETATM   20  C5  UNL     1      -6.560  18.150  -0.796  1.00  0.00     0.028 C
BRANCH  20  21
HETATM   21  C4  UNL     1      -7.648  19.115  -0.992  1.00  0.00     0.007 C
BRANCH  21  22
HETATM   22  C2  UNL     1      -8.633  18.528  -2.047  1.00  0.00    -0.023 C
HETATM   23  C1  UNL     1      -9.557  17.599  -1.328  1.00  0.00     0.009 C
HETATM   24  C3  UNL     1      -9.422  19.711  -2.564  1.00  0.00     0.009 C
ENDBRANCH  21  22
ENDBRANCH  20  21
ENDBRANCH   1  20
BRANCH  15  25
HETATM   25  O1  UNL     1       0.767  19.254  -9.151  1.00  0.00    -0.396 OA
ATOM     26  H1  UNL     1       1.515  19.352  -9.727  1.00  0.00     0.210 HD
ENDBRANCH  15  25
TORSDOF 4
ENDMDL