MODEL 1
REMARK VINA RESULT: -8.845548371      0.000      0.000
REMARK  3 active torsions:
REMARK  status: ('A' for Active; 'I' for Inactive)
REMARK    1  A    between atoms: C10_10  and  C11_11
REMARK    2  A    between atoms: C11_11  and  N1_12
REMARK    3  A    between atoms: N1_12  and  C12_15
ROOT
HETATM    1  N1  UNL     1      -0.565  21.101  -3.539  1.00  0.00    -0.065 N
ATOM      2  H11 UNL     1      -1.094  21.973  -3.525  1.00  0.00     0.278 HD
ATOM      3  H12 UNL     1      -1.194  20.553  -4.126  1.00  0.00     0.278 HD
ENDROOT
BRANCH   1   4
HETATM    4  C11 UNL     1      -0.427  20.532  -2.215  1.00  0.00     0.237 C
BRANCH   4   5
HETATM    5  C10 UNL     1      -1.589  19.582  -1.900  1.00  0.00     0.011 C
HETATM    6  C9  UNL     1      -1.913  18.836  -3.171  1.00  0.00     0.007 C
HETATM    7  C8  UNL     1      -3.243  18.145  -3.112  1.00  0.00     0.014 C
HETATM    8  C3  UNL     1      -4.363  19.076  -2.686  1.00  0.00    -0.023 C
HETATM    9  C2  UNL     1      -4.879  18.628  -1.365  1.00  0.00    -0.021 C
HETATM   10  C4  UNL     1      -5.486  19.009  -3.680  1.00  0.00     0.013 C
HETATM   11  C25 UNL     1      -3.785  20.444  -2.532  1.00  0.00     0.014 C
HETATM   12  C1  UNL     1      -6.150  18.655  -0.978  1.00  0.00    -0.030 C
HETATM   13  C7  UNL     1      -7.353  19.107  -1.691  1.00  0.00     0.027 C
HETATM   14  C6  UNL     1      -7.189  20.382  -2.456  1.00  0.00     0.004 C
HETATM   15  C5  UNL     1      -6.357  20.229  -3.696  1.00  0.00     0.001 C
HETATM   16  C24 UNL     1      -2.746  20.404  -1.432  1.00  0.00     0.007 C
ENDBRANCH   4   5
ENDBRANCH   1   4
BRANCH   1  17
HETATM   17  C12 UNL     1       0.696  21.263  -4.131  1.00  0.00     0.134 C
HETATM   18  C13 UNL     1       1.161  22.666  -4.421  1.00  0.00     0.040 C
HETATM   19  C14 UNL     1       1.248  22.280  -5.880  1.00  0.00     0.015 C
HETATM   20  C15 UNL     1       1.018  20.820  -5.466  1.00  0.00     0.000 C
HETATM   21  C16 UNL     1       0.166  20.128  -6.388  1.00  0.00    -0.003 C
HETATM   22  C22 UNL     1       2.286  20.191  -5.031  1.00  0.00    -0.001 C
HETATM   23  C17 UNL     1      -0.677  19.001  -5.931  1.00  0.00     0.006 C
HETATM   24  C20 UNL     1       1.070  19.391  -7.397  1.00  0.00     0.010 C
HETATM   25  C18 UNL     1       0.280  17.853  -5.745  1.00  0.00     0.005 C
HETATM   26  C19 UNL     1       1.554  18.265  -6.485  1.00  0.00    -0.014 C
HETATM   27  C21 UNL     1       2.504  18.778  -5.424  1.00  0.00     0.010 C
HETATM   28  C23 UNL     1       1.818  20.388  -3.583  1.00  0.00     0.045 C
ENDBRANCH   1  17
TORSDOF 3
ENDMDL