MODEL 3
REMARK VINA RESULT: -5.506055140      0.080      1.486
REMARK  2 active torsions:
REMARK  status: ('A' for Active; 'I' for Inactive)
REMARK       I    between atoms: C1_2  and  N1_3
REMARK    1  A    between atoms: C1_2  and  C14_17
REMARK    2  A    between atoms: N1_3  and  C2_5
ROOT
HETATM    1  O1  UNL     1      -1.190  20.380  -2.754  1.00  0.00    -0.273 OA
HETATM    2  C1  UNL     1      -1.101  19.688  -3.824  1.00  0.00     0.226 C
HETATM    3  N1  UNL     1      -2.259  19.015  -4.288  1.00  0.00    -0.356 N
ATOM      4  H1  UNL     1      -2.198  18.459  -5.142  1.00  0.00     0.162 HD
ENDROOT
BRANCH   3   5
HETATM    5  C2  UNL     1      -3.525  19.091  -3.589  1.00  0.00     0.084 C
HETATM    6  C3  UNL     1      -4.690  18.879  -4.552  1.00  0.00     0.025 C
HETATM    7  C4  UNL     1      -5.676  20.022  -4.503  1.00  0.00     0.002 C
HETATM    8  C5  UNL     1      -7.082  19.640  -4.826  1.00  0.00     0.000 C
HETATM    9  C6  UNL     1      -8.074  20.292  -3.863  1.00  0.00     0.000 C
HETATM   10  C7  UNL     1      -8.603  19.301  -2.852  1.00  0.00     0.000 C
HETATM   11  C8  UNL     1      -8.312  19.710  -1.434  1.00  0.00     0.000 C
HETATM   12  C9  UNL     1      -7.438  18.711  -0.704  1.00  0.00     0.000 C
HETATM   13  C10 UNL     1      -6.102  19.285  -0.329  1.00  0.00     0.000 C
HETATM   14  C11 UNL     1      -4.978  18.281  -0.450  1.00  0.00     0.000 C
HETATM   15  C12 UNL     1      -4.827  17.775  -1.867  1.00  0.00     0.002 C
HETATM   16  C13 UNL     1      -3.503  18.095  -2.467  1.00  0.00     0.025 C
ENDBRANCH   3   5
BRANCH   2  17
HETATM   17  C14 UNL     1       0.177  19.603  -4.541  1.00  0.00     0.042 C
HETATM   18  C15 UNL     1       0.225  20.653  -5.622  1.00  0.00     0.024 C
HETATM   19  C16 UNL     1       1.528  20.562  -6.381  1.00  0.00    -0.013 C
HETATM   20  C17 UNL     1       1.797  19.196  -6.930  1.00  0.00     0.009 C
HETATM   21  C21 UNL     1       2.628  20.921  -5.392  1.00  0.00     0.009 C
HETATM   22  C18 UNL     1       1.758  18.193  -5.795  1.00  0.00    -0.013 C
HETATM   23  C19 UNL     1       2.834  18.517  -4.792  1.00  0.00     0.009 C
HETATM   24  C23 UNL     1       0.404  18.244  -5.157  1.00  0.00     0.024 C
HETATM   25  C20 UNL     1       2.616  19.929  -4.265  1.00  0.00    -0.013 C
HETATM   26  C22 UNL     1       1.297  19.947  -3.560  1.00  0.00     0.024 C
ENDBRANCH   2  17
TORSDOF 2
ENDMDL