MODEL 2
REMARK VINA RESULT: -5.184636320      1.469      2.369
REMARK  3 active torsions:
REMARK  status: ('A' for Active; 'I' for Inactive)
REMARK    1  A    between atoms: C8_8  and  C10_10
REMARK    2  A    between atoms: C20_21  and  C21_22
REMARK    3  A    between atoms: C21_22  and  C22_23
ROOT
HETATM    1  C1  UNL     1      -0.338  16.430  -6.066  1.00  0.00     0.015 C
HETATM    2  C2  UNL     1      -0.731  17.651  -5.842  1.00  0.00    -0.079 C
HETATM    3  C3  UNL     1      -2.174  17.911  -5.789  1.00  0.00     0.039 C
HETATM    4  C4  UNL     1      -2.669  18.896  -4.796  1.00  0.00    -0.002 C
HETATM    5  C5  UNL     1      -3.071  18.307  -3.493  1.00  0.00    -0.005 C
HETATM    6  C6  UNL     1      -4.263  19.035  -2.889  1.00  0.00     0.006 C
HETATM    7  C7  UNL     1      -3.869  19.480  -1.515  1.00  0.00     0.011 C
HETATM    8  C8  UNL     1      -2.630  18.710  -1.201  1.00  0.00    -0.031 C
HETATM    9  C9  UNL     1      -1.688  19.391  -0.270  1.00  0.00     0.016 C
HETATM   10  C11 UNL     1      -1.966  18.587  -2.551  1.00  0.00    -0.001 C
HETATM   11  C12 UNL     1      -1.335  19.890  -3.009  1.00  0.00     0.011 C
HETATM   12  C13 UNL     1      -1.677  19.962  -4.431  1.00  0.00    -0.004 C
HETATM   13  C14 UNL     1      -0.635  19.968  -5.464  1.00  0.00     0.004 C
HETATM   14  C15 UNL     1       0.151  21.201  -5.707  1.00  0.00     0.007 C
HETATM   15  C16 UNL     1       1.082  20.728  -6.797  1.00  0.00     0.011 C
HETATM   16  C17 UNL     1       0.923  19.213  -6.905  1.00  0.00    -0.028 A
HETATM   17  C18 UNL     1       0.767  18.641  -8.213  1.00  0.00     0.011 A
HETATM   18  C19 UNL     1       2.092  18.503  -7.461  1.00  0.00     0.011 A
HETATM   19  C20 UNL     1       0.215  18.761  -5.653  1.00  0.00    -0.006 C
ENDROOT
BRANCH   8  20
HETATM   20  C10 UNL     1      -2.962  17.311  -0.735  1.00  0.00     0.095 C
HETATM   21  S1  UNL     1      -1.717  16.618   0.350  1.00  0.00    -0.097 SA
ENDBRANCH   8  20
BRANCH  19  22
HETATM   22  C21 UNL     1       1.210  18.345  -4.675  1.00  0.00     0.015 C
BRANCH  22  23
HETATM   23  C22 UNL     1       2.508  19.083  -4.565  1.00  0.00    -0.004 C
HETATM   24  C23 UNL     1       2.351  19.967  -3.310  1.00  0.00     0.005 C
ENDBRANCH  22  23
ENDBRANCH  19  22
TORSDOF 3
ENDMDL