MODEL 5
REMARK VINA RESULT: -7.049503387      1.781      5.550
REMARK  4 active torsions:
REMARK  status: ('A' for Active; 'I' for Inactive)
REMARK    1  A    between atoms: C10_10  and  C11_11
REMARK    2  A    between atoms: C11_11  and  C13_13
REMARK    3  A    between atoms: C13_13  and  C14_14
REMARK    4  A    between atoms: C20_20  and  N1_21
ROOT
HETATM    1  C1  UNL     1      -4.325  18.916  -3.941  1.00  0.00     0.010 C
HETATM    2  C2  UNL     1      -2.992  18.971  -3.306  1.00  0.00    -0.014 C
HETATM    3  C3  UNL     1      -3.092  18.244  -1.955  1.00  0.00     0.005 C
HETATM    4  C4  UNL     1      -2.280  16.968  -2.097  1.00  0.00     0.005 C
HETATM    5  C5  UNL     1      -2.225  16.796  -3.631  1.00  0.00    -0.010 C
HETATM    6  C6  UNL     1      -1.155  15.879  -4.064  1.00  0.00     0.006 C
HETATM    7  C7  UNL     1      -0.315  16.410  -5.242  1.00  0.00     0.010 C
HETATM    8  C8  UNL     1      -1.188  17.208  -6.121  1.00  0.00    -0.036 C
HETATM    9  C9  UNL     1      -2.435  16.408  -6.401  1.00  0.00     0.016 C
HETATM   10  C10 UNL     1      -0.711  17.778  -7.371  1.00  0.00    -0.002 C
HETATM   11  C21 UNL     1      -1.452  19.129  -7.495  1.00  0.00     0.006 C
HETATM   12  C22 UNL     1      -2.337  19.230  -6.261  1.00  0.00     0.006 C
HETATM   13  C23 UNL     1      -1.501  18.478  -5.303  1.00  0.00    -0.001 C
HETATM   14  C24 UNL     1      -1.876  18.259  -3.948  1.00  0.00    -0.002 C
ENDROOT
BRANCH  10  15
HETATM   15  C11 UNL     1       0.701  17.872  -7.732  1.00  0.00    -0.010 C
HETATM   16  C12 UNL     1       0.890  19.023  -8.765  1.00  0.00     0.010 C
BRANCH  15  17
HETATM   17  C13 UNL     1       1.696  18.254  -6.652  1.00  0.00     0.032 C
BRANCH  17  18
HETATM   18  C14 UNL     1       1.656  19.758  -6.630  1.00  0.00    -0.022 C
HETATM   19  C15 UNL     1       1.788  20.597  -5.681  1.00  0.00    -0.054 C
HETATM   20  C16 UNL     1       1.681  22.085  -6.028  1.00  0.00     0.036 C
HETATM   21  C20 UNL     1       2.055  20.355  -4.273  1.00  0.00     0.212 C
HETATM   22  C17 UNL     1       0.466  22.545  -5.230  1.00  0.00     0.004 C
HETATM   23  C18 UNL     1       0.551  22.201  -3.781  1.00  0.00     0.003 C
HETATM   24  C19 UNL     1       0.759  20.736  -3.526  1.00  0.00     0.037 C
BRANCH  21  25
HETATM   25  N1  UNL     1       2.507  19.081  -3.854  1.00  0.00    -0.071 N
ATOM     26  H13 UNL     1       3.322  18.827  -4.410  1.00  0.00     0.275 HD
ATOM     27  H12 UNL     1       2.916  19.171  -2.924  1.00  0.00     0.275 HD
ATOM     28  H11 UNL     1       1.860  18.293  -3.848  1.00  0.00     0.275 HD
ENDBRANCH  21  25
ENDBRANCH  17  18
ENDBRANCH  15  17
ENDBRANCH  10  15
TORSDOF 4
ENDMDL