MODEL 2
REMARK VINA RESULT: -9.614690912      0.093      1.440
REMARK  3 active torsions:
REMARK  status: ('A' for Active; 'I' for Inactive)
REMARK    1  A    between atoms: C8_8  and  N1_9
REMARK    2  A    between atoms: N1_9  and  C9_11
REMARK    3  A    between atoms: C9_11  and  C11_13
ROOT
HETATM    1  N1  UNL     1      -1.690  17.822  -4.282  1.00  0.00    -0.408 N
ATOM      2  H1  UNL     1      -1.367  16.855  -4.327  1.00  0.00     0.154 HD
ENDROOT
BRANCH   1   3
HETATM    3  C8  UNL     1      -2.235  18.286  -3.078  1.00  0.00     0.028 C
HETATM    4  C7  UNL     1      -1.459  19.183  -2.204  1.00  0.00     0.039 C
HETATM    5  C5  UNL     1      -2.334  19.610  -1.015  1.00  0.00    -0.040 C
HETATM    6  C4  UNL     1      -2.715  18.424  -0.158  1.00  0.00     0.018 C
HETATM    7  C6  UNL     1      -1.544  20.592  -0.149  1.00  0.00     0.015 C
HETATM    8  C25 UNL     1      -3.535  20.381  -1.517  1.00  0.00     0.023 C
HETATM    9  C3  UNL     1      -3.527  17.484  -1.053  1.00  0.00     0.017 C
HETATM   10  C2  UNL     1      -4.686  18.280  -1.507  1.00  0.00    -0.077 C
HETATM   11  C21 UNL     1      -2.672  17.081  -2.241  1.00  0.00     0.039 C
HETATM   12  C1  UNL     1      -5.904  17.968  -1.170  1.00  0.00     0.015 C
HETATM   13  C23 UNL     1      -4.371  19.443  -2.362  1.00  0.00    -0.018 C
HETATM   14  C22 UNL     1      -3.544  18.978  -3.514  1.00  0.00     0.044 C
HETATM   15  C24 UNL     1      -5.577  20.154  -2.901  1.00  0.00     0.020 C
ENDBRANCH   1   3
BRANCH   1  16
HETATM   16  C9  UNL     1      -1.568  18.618  -5.425  1.00  0.00     0.082 C
HETATM   17  C10 UNL     1      -1.976  17.897  -6.657  1.00  0.00     0.032 C
BRANCH  16  18
HETATM   18  C11 UNL     1      -0.231  19.306  -5.466  1.00  0.00    -0.020 C
HETATM   19  C12 UNL     1      -0.184  20.502  -4.535  1.00  0.00     0.016 C
HETATM   20  C13 UNL     1       1.199  21.109  -4.499  1.00  0.00    -0.013 C
HETATM   21  C14 UNL     1       1.624  21.507  -5.891  1.00  0.00     0.009 C
HETATM   22  C18 UNL     1       2.182  20.143  -3.927  1.00  0.00     0.009 C
HETATM   23  C15 UNL     1       1.654  20.252  -6.727  1.00  0.00    -0.013 C
HETATM   24  C16 UNL     1       2.630  19.240  -6.201  1.00  0.00     0.009 C
HETATM   25  C20 UNL     1       0.232  19.723  -6.817  1.00  0.00     0.016 C
HETATM   26  C17 UNL     1       2.165  18.893  -4.786  1.00  0.00    -0.013 C
HETATM   27  C19 UNL     1       0.803  18.300  -4.927  1.00  0.00     0.016 C
ENDBRANCH  16  18
ENDBRANCH   1  16
TORSDOF 3
ENDMDL