MODEL 5
REMARK VINA RESULT: -6.594465416      2.697      3.740
REMARK  5 active torsions:
REMARK  status: ('A' for Active; 'I' for Inactive)
REMARK    1  A    between atoms: C2_2  and  C8_15
REMARK    2  A    between atoms: N1_3  and  N2_5
REMARK    3  A    between atoms: N2_5  and  C3_7
REMARK    4  A    between atoms: C3_7  and  N3_9
REMARK    5  A    between atoms: N3_9  and  C4_11
ROOT
HETATM    1  N2  UNL     1      11.053   5.452   0.186  1.00  0.00    -0.276 N
ATOM      2  H2  UNL     1      10.165   5.354  -0.305  1.00  0.00     0.189 HD
ENDROOT
BRANCH   1   3
HETATM    3  N1  UNL     1      12.002   4.439   0.131  1.00  0.00    -0.302 N
HETATM    4  C2  UNL     1      12.117   3.615  -0.851  1.00  0.00     0.034 C
HETATM    5  C1  UNL     1      11.253   3.651  -2.031  1.00  0.00     0.070 C
ATOM      6  H1  UNL     1      12.647   4.342   0.915  1.00  0.00     0.186 HD
BRANCH   4   7
HETATM    7  C8  UNL     1      13.170   2.599  -0.760  1.00  0.00     0.012 A
HETATM    8  C9  UNL     1      14.429   2.754  -0.202  1.00  0.00     0.040 A
HETATM    9  C10 UNL     1      15.082   1.547  -0.334  1.00  0.00     0.142 A
HETATM   10  O1  UNL     1      14.276   0.717  -0.930  1.00  0.00    -0.334 OA
HETATM   11  C11 UNL     1      13.131   1.286  -1.205  1.00  0.00     0.154 A
ENDBRANCH   4   7
ENDBRANCH   1   3
BRANCH   1  12
HETATM   12  C3  UNL     1      11.328   6.612   0.924  1.00  0.00     0.187 C
HETATM   13  S1  UNL     1      10.530   7.976   0.569  1.00  0.00    -0.040 SA
BRANCH  12  14
HETATM   14  N3  UNL     1      12.281   6.627   1.967  1.00  0.00    -0.358 N
ATOM     15  H3  UNL     1      11.994   6.256   2.873  1.00  0.00     0.162 HD
BRANCH  14  16
HETATM   16  C4  UNL     1      13.614   7.121   1.850  1.00  0.00     0.021 C
HETATM   17  C5  UNL     1      14.036   7.171   0.380  1.00  0.00     0.037 C
HETATM   18  C6  UNL     1      14.577   6.191   2.557  1.00  0.00     0.037 C
HETATM   19  C7  UNL     1      13.804   8.496   2.434  1.00  0.00     0.037 C
ENDBRANCH  14  16
ENDBRANCH  12  14
ENDBRANCH   1  12
TORSDOF 5
ENDMDL