MODEL 2
REMARK VINA RESULT: -7.233071517      0.587      1.315
REMARK  4 active torsions:
REMARK  status: ('A' for Active; 'I' for Inactive)
REMARK    1  A    between atoms: N3_6  and  N4_8
REMARK    2  A    between atoms: N4_8  and  C4_10
REMARK    3  A    between atoms: C4_10  and  N5_12
REMARK    4  A    between atoms: N5_12  and  C5_14
ROOT
HETATM    1  N1  UNL     1      17.959  11.040   1.245  1.00  0.00    -0.189 NA
HETATM    2  C1  UNL     1      17.062  10.755   1.920  1.00  0.00     0.130 C
HETATM    3  C2  UNL     1      15.952  10.427   2.750  1.00  0.00     0.209 C
HETATM    4  C3  UNL     1      15.295  11.449   3.492  1.00  0.00     0.130 C
HETATM    5  N2  UNL     1      14.780  12.285   4.096  1.00  0.00    -0.189 NA
HETATM    6  N3  UNL     1      15.556   9.239   2.826  1.00  0.00    -0.280 N
ATOM      7  H3  UNL     1      14.757   9.084   3.441  1.00  0.00     0.188 HD
ENDROOT
BRANCH   6   8
HETATM    8  N4  UNL     1      16.042   8.124   2.202  1.00  0.00    -0.275 N
ATOM      9  H4  UNL     1      16.653   8.252   1.396  1.00  0.00     0.189 HD
BRANCH   8  10
HETATM   10  C4  UNL     1      15.739   6.777   2.620  1.00  0.00     0.191 C
HETATM   11  S1  UNL     1      14.435   6.558   3.545  1.00  0.00    -0.039 SA
BRANCH  10  12
HETATM   12  N5  UNL     1      16.551   5.705   2.198  1.00  0.00    -0.332 N
ATOM     13  H5  UNL     1      17.523   5.730   2.502  1.00  0.00     0.168 HD
BRANCH  12  14
HETATM   14  C5  UNL     1      16.176   4.600   1.404  1.00  0.00     0.034 A
HETATM   15  C6  UNL     1      15.103   4.517   0.567  1.00  0.00     0.029 A
HETATM   16  C7  UNL     1      14.829   3.389  -0.212  1.00  0.00     0.002 A
HETATM   17  C8  UNL     1      15.654   2.295  -0.158  1.00  0.00     0.000 A
HETATM   18  C9  UNL     1      16.747   2.341   0.677  1.00  0.00     0.002 A
HETATM   19  C10 UNL     1      17.004   3.449   1.431  1.00  0.00     0.029 A
ENDBRANCH  12  14
ENDBRANCH  10  12
ENDBRANCH   8  10
ENDBRANCH   6   8
TORSDOF 4
ENDMDL