MODEL 1
REMARK VINA RESULT: -6.613279369      0.000      0.000
REMARK  4 active torsions:
REMARK  status: ('A' for Active; 'I' for Inactive)
REMARK    1  A    between atoms: C4_5  and  C5_6
REMARK       I    between atoms: C5_6  and  N1_8
REMARK    2  A    between atoms: N1_8  and  N2_10
REMARK       I    between atoms: N2_10  and  C6_12
REMARK    3  A    between atoms: C6_12  and  O3_14
REMARK    4  A    between atoms: O3_14  and  C7_15
ROOT
HETATM    1  C5  UNL     1      15.264   6.009   0.726  1.00  0.00     0.277 C
HETATM    2  O1  UNL     1      16.287   5.794   1.448  1.00  0.00    -0.265 OA
HETATM    3  N1  UNL     1      14.916   7.355   0.443  1.00  0.00    -0.261 N
ATOM      4  H1  UNL     1      14.096   7.536  -0.136  1.00  0.00     0.190 HD
ENDROOT
BRANCH   3   5
HETATM    5  N2  UNL     1      15.643   8.433   0.919  1.00  0.00    -0.242 N
HETATM    6  C6  UNL     1      15.020   9.688   1.097  1.00  0.00     0.379 C
HETATM    7  O2  UNL     1      13.785   9.850   0.822  1.00  0.00    -0.237 OA
ATOM      8  H2  UNL     1      16.632   8.321   1.142  1.00  0.00     0.192 HD
BRANCH   6   9
HETATM    9  O3  UNL     1      15.670  10.811   1.565  1.00  0.00    -0.298 OA
BRANCH   9  10
HETATM   10  C7  UNL     1      16.408  10.818   2.765  1.00  0.00     0.125 C
HETATM   11  C8  UNL     1      17.728  11.496   2.669  1.00  0.00     0.040 C
HETATM   12  C9  UNL     1      15.576  11.528   3.813  1.00  0.00     0.040 C
ENDBRANCH   9  10
ENDBRANCH   6   9
ENDBRANCH   3   5
BRANCH   1  13
HETATM   13  C4  UNL     1      14.503   4.869   0.228  1.00  0.00     0.074 A
HETATM   14  S1  UNL     1      12.883   4.847  -0.292  1.00  0.00    -0.096 SA
HETATM   15  C3  UNL     1      12.743   3.199  -0.708  1.00  0.00     0.057 A
HETATM   16  C2  UNL     1      13.987   2.709  -0.423  1.00  0.00    -0.054 A
HETATM   17  C1  UNL     1      14.295   1.239  -0.657  1.00  0.00     0.048 C
HETATM   18  C10 UNL     1      14.896   3.568   0.060  1.00  0.00     0.031 A
ENDBRANCH   1  13
TORSDOF 4
ENDMDL