MODEL 1
REMARK VINA RESULT: -6.186090604      0.000      0.000
REMARK  5 active torsions:
REMARK  status: ('A' for Active; 'I' for Inactive)
REMARK    1  A    between atoms: C2_2  and  C3_3
REMARK    2  A    between atoms: C6_7  and  S2_8
REMARK    3  A    between atoms: S2_8  and  N1_9
REMARK    4  A    between atoms: S2_8  and  N2_13
REMARK    5  A    between atoms: C8_16  and  O2_17
ROOT
HETATM    1  C3  UNL     1      15.637   5.111   1.241  1.00  0.00    -0.011 A
HETATM    2  C4  UNL     1      14.627   5.182   0.330  1.00  0.00    -0.011 A
HETATM    3  C5  UNL     1      13.866   4.142  -0.418  1.00  0.00     0.057 C
HETATM    4  S1  UNL     1      14.345   6.877   0.182  1.00  0.00    -0.080 SA
HETATM    5  C6  UNL     1      15.526   7.420   1.287  1.00  0.00     0.132 A
HETATM    6  C8  UNL     1      16.101   6.261   1.734  1.00  0.00     0.101 A
ENDROOT
BRANCH   5   7
HETATM    7  S2  UNL     1      15.854   9.095   1.696  1.00  0.00     0.142 S
HETATM    8  O1  UNL     1      15.199   9.966   0.632  1.00  0.00    -0.223 OA
BRANCH   7   9
HETATM    9  N1  UNL     1      15.089   9.416   3.211  1.00  0.00    -0.341 N
ATOM     10  H12 UNL     1      14.183   9.052   3.506  1.00  0.00     0.167 HD
ATOM     11  H11 UNL     1      15.708  10.029   3.741  1.00  0.00     0.167 HD
ENDBRANCH   7   9
BRANCH   7  12
HETATM   12  N2  UNL     1      17.360   9.418   1.711  1.00  0.00    -0.336 N
HETATM   13  C7  UNL     1      17.844  10.504   0.869  1.00  0.00     0.158 C
ATOM     14  H2  UNL     1      18.003   8.885   2.298  1.00  0.00     0.170 HD
ENDBRANCH   7  12
ENDBRANCH   5   7
BRANCH   6  15
HETATM   15  O2  UNL     1      17.140   6.386   2.682  1.00  0.00    -0.358 OA
ATOM     16  H2  UNL     1      17.627   7.181   2.865  1.00  0.00     0.217 HD
ENDBRANCH   6  15
BRANCH   1  17
HETATM   17  C2  UNL     1      16.179   3.757   1.650  1.00  0.00     0.038 C
HETATM   18  C1  UNL     1      17.283   3.396   0.711  1.00  0.00     0.010 C
ENDBRANCH   1  17
TORSDOF 5
ENDMDL