MODEL 1
REMARK VINA RESULT: -6.667620414      0.000      0.000
REMARK  6 active torsions:
REMARK  status: ('A' for Active; 'I' for Inactive)
REMARK    1  A    between atoms: C2_2  and  O1_5
REMARK    2  A    between atoms: O1_5  and  C5_6
REMARK    3  A    between atoms: C5_6  and  O3_8
REMARK    4  A    between atoms: O3_8  and  C6_9
REMARK    5  A    between atoms: C8_11  and  C9_12
REMARK    6  A    between atoms: C10_13  and  C11_14
ROOT
HETATM    1  C6  UNL     1      16.037   5.984   1.794  1.00  0.00     0.196 A
HETATM    2  C7  UNL     1      15.201   5.137   1.113  1.00  0.00     0.078 A
HETATM    3  C8  UNL     1      15.935   4.026   0.793  1.00  0.00    -0.009 A
HETATM    4  C12 UNL     1      17.208   4.250   1.301  1.00  0.00     0.156 A
HETATM    5  O6  UNL     1      17.209   5.406   1.873  1.00  0.00    -0.299 OA
ENDROOT
BRANCH   1   6
HETATM    6  O3  UNL     1      15.678   7.226   2.296  1.00  0.00    -0.231 OA
BRANCH   6   7
HETATM    7  C5  UNL     1      14.536   7.324   3.080  1.00  0.00     0.414 C
HETATM    8  O2  UNL     1      14.202   6.395   3.874  1.00  0.00    -0.229 OA
BRANCH   7   9
HETATM    9  O1  UNL     1      13.697   8.428   3.052  1.00  0.00    -0.288 OA
BRANCH   9  10
HETATM   10  C2  UNL     1      12.962   8.812   1.922  1.00  0.00     0.062 C
HETATM   11  C1  UNL     1      11.718   9.611   2.287  1.00  0.00     0.046 C
HETATM   12  C3  UNL     1      12.519   7.661   1.079  1.00  0.00     0.046 C
HETATM   13  C4  UNL     1      13.853   9.777   1.132  1.00  0.00     0.046 C
ENDBRANCH   9  10
ENDBRANCH   7   9
ENDBRANCH   6   7
ENDBRANCH   1   6
BRANCH   3  14
HETATM   14  C9  UNL     1      15.467   2.870   0.074  1.00  0.00     0.020 C
HETATM   15  C10 UNL     1      14.189   2.735  -0.202  1.00  0.00     0.085 C
BRANCH  15  16
HETATM   16  C11 UNL     1      13.682   1.581  -0.926  1.00  0.00     0.198 C
HETATM   17  O4  UNL     1      14.246   0.476  -0.858  1.00  0.00    -0.645 OA
HETATM   18  O5  UNL     1      12.535   1.688  -1.724  1.00  0.00    -0.645 OA
ENDBRANCH  15  16
ENDBRANCH   3  14
TORSDOF 6
ENDMDL