MODEL 3
REMARK VINA RESULT: -5.577289741      1.994      4.697
REMARK  7 active torsions:
REMARK  status: ('A' for Active; 'I' for Inactive)
REMARK    1  A    between atoms: C2_2  and  N1_3
REMARK    2  A    between atoms: N1_3  and  C4_5
REMARK    3  A    between atoms: C4_5  and  O1_6
REMARK    4  A    between atoms: C4_5  and  N2_8
REMARK    5  A    between atoms: N2_8  and  N3_9
REMARK    6  A    between atoms: N2_8  and  C9_16
REMARK    7  A    between atoms: C8_13  and  O2_14
ROOT
HETATM    1  N2  UNL     1      14.772   7.022   1.425  1.00  0.00    -0.239 N
ENDROOT
BRANCH   1   2
HETATM    2  C4  UNL     1      15.316   8.082   0.725  1.00  0.00     0.237 C
BRANCH   2   3
HETATM    3  N1  UNL     1      16.030   9.238   0.977  1.00  0.00    -0.351 N
HETATM    4  C3  UNL     1      15.946   9.788   2.390  1.00  0.00     0.153 C
BRANCH   3   5
HETATM    5  C2  UNL     1      16.853  10.029   0.133  1.00  0.00     0.121 C
HETATM    6  C1  UNL     1      18.072  10.579   0.862  1.00  0.00     0.026 C
ENDBRANCH   3   5
ENDBRANCH   2   3
BRANCH   2   7
HETATM    7  O1  UNL     1      15.067   7.927  -0.600  1.00  0.00    -0.331 OA
ATOM      8  H1  UNL     1      14.665   7.086  -0.784  1.00  0.00     0.221 HD
ENDBRANCH   2   7
ENDBRANCH   1   2
BRANCH   1   9
HETATM    9  N3  UNL     1      15.488   5.765   1.230  1.00  0.00    -0.240 N
HETATM   10  C5  UNL     1      15.070   4.724   0.505  1.00  0.00     0.119 A
HETATM   11  C6  UNL     1      16.039   3.716   0.558  1.00  0.00     0.024 A
HETATM   12  C7  UNL     1      17.051   4.219   1.355  1.00  0.00     0.059 A
HETATM   13  C8  UNL     1      16.672   5.492   1.753  1.00  0.00     0.161 A
BRANCH  13  14
HETATM   14  O2  UNL     1      17.463   6.300   2.574  1.00  0.00    -0.345 OA
ATOM     15  H2  UNL     1      17.186   6.991   3.163  1.00  0.00     0.219 HD
ENDBRANCH  13  14
ENDBRANCH   1   9
BRANCH   1  16
HETATM   16  C9  UNL     1      13.680   6.885   2.331  1.00  0.00     0.047 C
HETATM   17  C10 UNL     1      13.046   8.259   2.647  1.00  0.00     0.040 C
HETATM   18  C11 UNL     1      12.544   6.089   1.681  1.00  0.00     0.040 C
HETATM   19  C12 UNL     1      13.968   6.294   3.665  1.00  0.00     0.040 C
ENDBRANCH   1  16
TORSDOF 7
ENDMDL