MODEL 2
REMARK VINA RESULT: -6.887367648      2.954      6.401
REMARK  3 active torsions:
REMARK  status: ('A' for Active; 'I' for Inactive)
REMARK    1  A    between atoms: N1_4  and  C3_6
REMARK    2  A    between atoms: C4_8  and  N2_9
REMARK    3  A    between atoms: N2_9  and  N3_11
ROOT
HETATM    1  C3  UNL     1      14.254   3.956   0.019  1.00  0.00     0.116 A
HETATM    2  S2  UNL     1      12.839   4.943  -0.343  1.00  0.00    -0.032 SA
HETATM    3  C4  UNL     1      11.868   3.759  -1.064  1.00  0.00     0.166 A
HETATM    4  N4  UNL     1      12.635   2.680  -1.007  1.00  0.00    -0.325 N
ATOM      5  H4  UNL     1      12.301   1.790  -1.378  1.00  0.00     0.169 HD
HETATM    6  C8  UNL     1      13.836   2.770  -0.464  1.00  0.00     0.150 A
HETATM    7  C9  UNL     1      14.676   1.554  -0.416  1.00  0.00     0.120 C
HETATM    8  N5  UNL     1      15.303   0.581  -0.400  1.00  0.00    -0.190 NA
ENDROOT
BRANCH   1   9
HETATM    9  N1  UNL     1      15.378   4.508   0.643  1.00  0.00    -0.343 N
HETATM   10  C2  UNL     1      15.745   5.252   1.716  1.00  0.00     0.074 C
HETATM   11  C1  UNL     1      17.253   5.545   1.870  1.00  0.00     0.081 C
HETATM   12  S1  UNL     1      14.870   5.896   2.870  1.00  0.00    -0.066 SA
ATOM     13  H1  UNL     1      16.210   4.267   0.104  1.00  0.00     0.167 HD
ENDBRANCH   1   9
BRANCH   3  14
HETATM   14  N2  UNL     1      10.652   3.861  -1.565  1.00  0.00    -0.280 N
ATOM     15  H2  UNL     1       9.892   3.322  -1.149  1.00  0.00     0.189 HD
BRANCH  14  16
HETATM   16  N3  UNL     1      10.387   4.687  -2.645  1.00  0.00    -0.308 N
HETATM   17  C5  UNL     1       9.776   4.161  -3.661  1.00  0.00    -0.004 C
HETATM   18  C6  UNL     1       9.360   2.754  -3.712  1.00  0.00     0.064 C
HETATM   19  C7  UNL     1       9.493   5.045  -4.817  1.00  0.00     0.064 C
ATOM     20  H3  UNL     1      10.663   5.669  -2.641  1.00  0.00     0.186 HD
ENDBRANCH  14  16
ENDBRANCH   3  14
TORSDOF 3
ENDMDL