MODEL 2
REMARK VINA RESULT: -7.255091229      1.857      2.600
REMARK  4 active torsions:
REMARK  status: ('A' for Active; 'I' for Inactive)
REMARK    1  A    between atoms: C5_6  and  C6_7
REMARK       I    between atoms: C6_7  and  N1_9
REMARK    2  A    between atoms: N1_9  and  N2_11
REMARK       I    between atoms: N2_11  and  C7_13
REMARK    3  A    between atoms: C7_13  and  O4_15
REMARK    4  A    between atoms: O4_15  and  C8_16
ROOT
HETATM    1  C6  UNL     1      15.339   6.452   1.804  1.00  0.00     0.273 C
HETATM    2  O2  UNL     1      15.202   6.412   3.085  1.00  0.00    -0.266 OA
HETATM    3  N1  UNL     1      15.779   7.664   1.258  1.00  0.00    -0.261 N
ATOM      4  H1  UNL     1      15.905   7.765   0.250  1.00  0.00     0.190 HD
ENDROOT
BRANCH   1   5
HETATM    5  C5  UNL     1      15.031   5.262   1.068  1.00  0.00     0.071 A
HETATM    6  C3  UNL     1      13.817   5.091   0.355  1.00  0.00     0.065 A
HETATM    7  O1  UNL     1      13.859   3.901  -0.184  1.00  0.00    -0.319 OA
HETATM    8  C4  UNL     1      12.718   6.084   0.251  1.00  0.00     0.078 C
HETATM    9  C2  UNL     1      14.949   3.285   0.092  1.00  0.00     0.056 A
HETATM   10  C1  UNL     1      15.292   1.932  -0.368  1.00  0.00     0.077 C
HETATM   11  C11 UNL     1      15.744   4.108   0.896  1.00  0.00    -0.014 A
HETATM   12  C12 UNL     1      17.079   3.760   1.438  1.00  0.00     0.052 C
ENDBRANCH   1   5
BRANCH   3  13
HETATM   13  N2  UNL     1      16.049   8.765   2.142  1.00  0.00    -0.242 N
HETATM   14  C7  UNL     1      16.391  10.038   1.609  1.00  0.00     0.379 C
HETATM   15  O3  UNL     1      16.463  10.223   0.364  1.00  0.00    -0.237 OA
ATOM     16  H2  UNL     1      15.995   8.633   3.152  1.00  0.00     0.192 HD
BRANCH  14  17
HETATM   17  O4  UNL     1      16.654  11.103   2.424  1.00  0.00    -0.298 OA
BRANCH  17  18
HETATM   18  C8  UNL     1      15.934  11.412   3.600  1.00  0.00     0.125 C
HETATM   19  C9  UNL     1      14.482  11.698   3.355  1.00  0.00     0.040 C
HETATM   20  C10 UNL     1      16.542  12.499   4.415  1.00  0.00     0.040 C
ENDBRANCH  17  18
ENDBRANCH  14  17
ENDBRANCH   3  13
TORSDOF 4
ENDMDL