MODEL 2
REMARK VINA RESULT: -6.848010524      0.046      1.065
REMARK  5 active torsions:
REMARK  status: ('A' for Active; 'I' for Inactive)
REMARK    1  A    between atoms: C5_6  and  C6_7
REMARK    2  A    between atoms: N1_8  and  N2_10
REMARK    3  A    between atoms: N2_10  and  C7_12
REMARK    4  A    between atoms: C7_12  and  N3_14
REMARK    5  A    between atoms: N3_14  and  C8_16
ROOT
HETATM    1  N2  UNL     1      16.535   5.662   2.401  1.00  0.00    -0.277 N
ATOM      2  H2  UNL     1      17.534   5.851   2.477  1.00  0.00     0.189 HD
ENDROOT
BRANCH   1   3
HETATM    3  N1  UNL     1      16.137   4.413   1.942  1.00  0.00    -0.307 N
HETATM    4  C6  UNL     1      15.811   4.261   0.723  1.00  0.00     0.144 C
ATOM      5  H1  UNL     1      16.107   3.620   2.582  1.00  0.00     0.186 HD
BRANCH   4   6
HETATM    6  C5  UNL     1      15.387   2.944   0.224  1.00  0.00     0.097 A
HETATM    7  C2  UNL     1      14.174   2.645  -0.347  1.00  0.00    -0.025 A
HETATM    8  C1  UNL     1      13.065   3.598  -0.566  1.00  0.00     0.051 C
HETATM    9  C3  UNL     1      14.183   1.303  -0.676  1.00  0.00     0.034 A
HETATM   10  C4  UNL     1      15.426   0.845  -0.280  1.00  0.00     0.143 A
HETATM   11  O1  UNL     1      16.089   1.855   0.242  1.00  0.00    -0.321 OA
ENDBRANCH   4   6
ENDBRANCH   1   3
BRANCH   1  12
HETATM   12  C7  UNL     1      15.633   6.686   2.771  1.00  0.00     0.187 C
HETATM   13  S1  UNL     1      14.315   6.248   3.616  1.00  0.00    -0.040 SA
BRANCH  12  14
HETATM   14  N3  UNL     1      15.909   8.021   2.396  1.00  0.00    -0.358 N
ATOM     15  H3  UNL     1      16.630   8.531   2.906  1.00  0.00     0.162 HD
BRANCH  14  16
HETATM   16  C8  UNL     1      15.215   8.697   1.321  1.00  0.00     0.021 C
HETATM   17  C9  UNL     1      16.144   9.708   0.694  1.00  0.00     0.037 C
HETATM   18  C10 UNL     1      13.970   9.351   1.878  1.00  0.00     0.037 C
HETATM   19  C11 UNL     1      14.868   7.688   0.242  1.00  0.00     0.037 C
ENDBRANCH  14  16
ENDBRANCH  12  14
ENDBRANCH   1  12
TORSDOF 5
ENDMDL