MODEL 2
REMARK VINA RESULT: -7.871248214      1.953      3.129
REMARK  8 active torsions:
REMARK  status: ('A' for Active; 'I' for Inactive)
REMARK    1  A    between atoms: O1_2  and  C2_3
REMARK    2  A    between atoms: C2_3  and  C3_5
REMARK    3  A    between atoms: C3_5  and  C4_6
REMARK    4  A    between atoms: C4_6  and  O3_7
REMARK    5  A    between atoms: O3_7  and  C5_8
REMARK    6  A    between atoms: C5_8  and  C6_10
REMARK    7  A    between atoms: C16_20  and  O5_22
REMARK    8  A    between atoms: C24_31  and  O7_32
ROOT
HETATM    1  C6  UNL     1     -29.031 -27.785   9.054  1.00  0.00     0.052 C
HETATM    2  C7  UNL     1     -30.483 -27.835   9.310  1.00  0.00     0.026 C
HETATM    3  C8  UNL     1     -28.273 -26.742   9.867  1.00  0.00     0.028 C
HETATM    4  C9  UNL     1     -28.129 -26.990  11.287  1.00  0.00    -0.046 C
HETATM    5  C10 UNL     1     -26.777 -26.440  11.753  1.00  0.00     0.015 C
HETATM    6  C11 UNL     1     -29.151 -26.139  12.052  1.00  0.00     0.015 C
HETATM    7  C12 UNL     1     -28.338 -28.418  11.658  1.00  0.00     0.018 C
HETATM    8  C13 UNL     1     -27.913 -29.448  10.607  1.00  0.00    -0.031 C
HETATM    9  C14 UNL     1     -26.363 -29.322  10.666  1.00  0.00     0.016 C
HETATM   10  C15 UNL     1     -28.320 -29.132   9.213  1.00  0.00     0.046 C
HETATM   11  C16 UNL     1     -28.825 -30.260   8.414  1.00  0.00     0.061 C
HETATM   12  C17 UNL     1     -29.569 -30.044   7.160  1.00  0.00     0.046 C
HETATM   13  C18 UNL     1     -29.594 -31.304   9.163  1.00  0.00     0.052 C
HETATM   14  C19 UNL     1     -28.818 -31.830  10.342  1.00  0.00    -0.004 C
HETATM   15  C20 UNL     1     -27.741 -32.802   9.812  1.00  0.00     0.021 C
HETATM   16  C21 UNL     1     -29.793 -32.747  10.991  1.00  0.00     0.017 A
HETATM   17  C22 UNL     1     -30.650 -32.338  11.976  1.00  0.00    -0.024 A
HETATM   18  C23 UNL     1     -31.454 -33.374  12.381  1.00  0.00     0.152 A
HETATM   19  O6  UNL     1     -31.097 -34.407  11.656  1.00  0.00    -0.299 OA
HETATM   20  C24 UNL     1     -30.131 -34.100  10.828  1.00  0.00     0.190 A
HETATM   21  C25 UNL     1     -30.490 -30.906  12.369  1.00  0.00     0.042 C
HETATM   22  C26 UNL     1     -28.988 -30.739  12.512  1.00  0.00     0.011 C
HETATM   23  C27 UNL     1     -28.251 -30.778  11.206  1.00  0.00     0.007 C
ENDROOT
BRANCH   1  24
HETATM   24  C5  UNL     1     -28.796 -27.192   7.693  1.00  0.00     0.267 C
HETATM   25  O4  UNL     1     -27.826 -27.543   6.992  1.00  0.00    -0.264 OA
BRANCH  24  26
HETATM   26  O3  UNL     1     -29.657 -26.233   7.190  1.00  0.00    -0.320 OA
BRANCH  26  27
HETATM   27  C4  UNL     1     -29.289 -24.966   6.746  1.00  0.00     0.188 C
BRANCH  27  28
HETATM   28  C3  UNL     1     -28.405 -24.190   7.684  1.00  0.00     0.138 C
BRANCH  28  29
HETATM   29  C2  UNL     1     -27.201 -23.746   6.927  1.00  0.00     0.260 C
HETATM   30  O2  UNL     1     -26.659 -24.516   6.090  1.00  0.00    -0.265 OA
BRANCH  29  31
HETATM   31  O1  UNL     1     -26.658 -22.488   7.126  1.00  0.00    -0.326 OA
HETATM   32  C1  UNL     1     -27.413 -21.347   6.726  1.00  0.00     0.213 C
ENDBRANCH  29  31
ENDBRANCH  28  29
ENDBRANCH  27  28
ENDBRANCH  26  27
ENDBRANCH  24  26
ENDBRANCH   1  24
BRANCH  11  33
HETATM   33  O5  UNL     1     -27.679 -30.992   7.949  1.00  0.00    -0.390 OA
ATOM     34  H5  UNL     1     -27.475 -31.640   8.612  1.00  0.00     0.210 HD
ENDBRANCH  11  33
BRANCH  20  35
HETATM   35  O7  UNL     1     -29.527 -34.949   9.929  1.00  0.00    -0.340 OA
ATOM     36  H7  UNL     1     -29.750 -35.002   9.007  1.00  0.00     0.220 HD
ENDBRANCH  20  35
TORSDOF 8
ENDMDL