MODEL 3
REMARK VINA RESULT: -9.460900917      9.952     13.703
REMARK  6 active torsions:
REMARK  status: ('A' for Active; 'I' for Inactive)
REMARK    1  A    between atoms: O1_2  and  N1_3
REMARK    2  A    between atoms: C5_8  and  C6_9
REMARK    3  A    between atoms: C6_9  and  C7_10
REMARK    4  A    between atoms: C7_10  and  C9_12
REMARK    5  A    between atoms: C16_21  and  O3_22
REMARK    6  A    between atoms: C18_25  and  O4_26
ROOT
HETATM    1  C9  UNL     1     -29.328 -30.156   8.637  1.00  0.00     0.004 C
HETATM    2  C10 UNL     1     -29.665 -28.745   8.416  1.00  0.00     0.046 C
HETATM    3  C11 UNL     1     -29.188 -27.857   9.576  1.00  0.00    -0.026 A
HETATM    4  C12 UNL     1     -29.048 -28.423  10.805  1.00  0.00    -0.001 A
HETATM    5  S1  UNL     1     -28.502 -27.153  11.789  1.00  0.00    -0.068 SA
HETATM    6  C13 UNL     1     -28.458 -25.913  10.620  1.00  0.00     0.132 A
HETATM    7  O2  UNL     1     -28.116 -24.624  10.697  1.00  0.00    -0.301 OA
HETATM    8  C14 UNL     1     -28.152 -23.829   9.676  1.00  0.00     0.096 A
HETATM    9  C15 UNL     1     -27.800 -22.501   9.747  1.00  0.00     0.075 A
HETATM   10  C16 UNL     1     -27.841 -21.671   8.666  1.00  0.00     0.071 A
HETATM   11  C17 UNL     1     -28.240 -22.148   7.456  1.00  0.00     0.074 A
HETATM   12  C18 UNL     1     -28.608 -23.504   7.343  1.00  0.00     0.085 A
HETATM   13  C19 UNL     1     -28.560 -24.339   8.463  1.00  0.00     0.082 A
HETATM   14  C20 UNL     1     -28.915 -25.661   8.366  1.00  0.00     0.201 A
HETATM   15  O5  UNL     1     -29.277 -26.092   7.273  1.00  0.00    -0.286 OA
HETATM   16  C21 UNL     1     -28.877 -26.533   9.478  1.00  0.00     0.063 A
HETATM   17  C22 UNL     1     -29.371 -29.866  10.979  1.00  0.00     0.062 C
HETATM   18  C23 UNL     1     -28.720 -30.489  12.139  1.00  0.00     0.243 C
HETATM   19  N2  UNL     1     -28.334 -31.819  11.705  1.00  0.00    -0.074 N
ATOM     20  H21 UNL     1     -28.721 -32.557  12.294  1.00  0.00     0.277 HD
ATOM     21  H22 UNL     1     -27.348 -32.020  11.869  1.00  0.00     0.277 HD
HETATM   22  C24 UNL     1     -28.713 -31.953  10.307  1.00  0.00     0.242 C
HETATM   23  C25 UNL     1     -28.556 -30.529   9.825  1.00  0.00    -0.006 C
HETATM   24  C26 UNL     1     -27.130 -30.175   9.918  1.00  0.00     0.018 C
ENDROOT
BRANCH   1  25
HETATM   25  C7  UNL     1     -28.921 -30.953   7.416  1.00  0.00    -0.013 C
HETATM   26  C8  UNL     1     -28.815 -32.413   7.605  1.00  0.00     0.010 C
BRANCH  25  27
HETATM   27  C6  UNL     1     -27.667 -30.360   6.821  1.00  0.00     0.015 C
BRANCH  27  28
HETATM   28  C5  UNL     1     -27.555 -30.242   5.365  1.00  0.00     0.034 C
HETATM   29  C2  UNL     1     -26.427 -29.645   4.672  1.00  0.00     0.014 C
HETATM   30  N1  UNL     1     -25.316 -29.945   4.099  1.00  0.00    -0.275 N
HETATM   31  C3  UNL     1     -27.108 -28.302   4.840  1.00  0.00     0.056 C
ATOM     32  H1  UNL     1     -24.998 -30.915   4.075  1.00  0.00     0.193 HD
HETATM   33  C4  UNL     1     -28.417 -29.066   4.878  1.00  0.00     0.016 C
BRANCH  30  34
HETATM   34  O1  UNL     1     -24.563 -28.964   3.524  1.00  0.00    -0.285 OA
HETATM   35  C1  UNL     1     -23.215 -28.787   3.963  1.00  0.00     0.237 C
ENDBRANCH  30  34
ENDBRANCH  27  28
ENDBRANCH  25  27
ENDBRANCH   1  25
BRANCH  12  36
HETATM   36  O4  UNL     1     -28.988 -23.884   6.109  1.00  0.00    -0.360 OA
ATOM     37  H4  UNL     1     -29.270 -24.788   6.041  1.00  0.00     0.217 HD
ENDBRANCH  12  36
BRANCH  10  38
HETATM   38  O3  UNL     1     -27.476 -20.314   8.767  1.00  0.00    -0.361 OA
ATOM     39  H3  UNL     1     -26.650 -19.996   8.422  1.00  0.00     0.217 HD
ENDBRANCH  10  38
TORSDOF 6
ENDMDL