MODEL 5
REMARK VINA RESULT: -8.014371743      1.794      4.736
REMARK  9 active torsions:
REMARK  status: ('A' for Active; 'I' for Inactive)
REMARK    1  A    between atoms: C2_2  and  C3_3
REMARK    2  A    between atoms: C6_6  and  C7_7
REMARK    3  A    between atoms: N1_9  and  O1_11
REMARK    4  A    between atoms: C15_19  and  O2_20
REMARK    5  A    between atoms: O2_20  and  C16_21
REMARK    6  A    between atoms: C16_21  and  C17_23
REMARK    7  A    between atoms: C19_25  and  O4_26
REMARK    8  A    between atoms: C21_28  and  O5_29
REMARK    9  A    between atoms: C24_35  and  O6_36
ROOT
HETATM    1  C3  UNL     1     -16.030 -20.219   1.072  1.00  0.00    -0.017 C
HETATM    2  C4  UNL     1     -14.530 -20.498   0.833  1.00  0.00     0.020 C
HETATM    3  C5  UNL     1     -16.638 -20.319  -0.294  1.00  0.00     0.021 C
HETATM    4  C6  UNL     1     -17.989 -19.743  -0.485  1.00  0.00     0.027 C
HETATM    5  C15 UNL     1     -19.074 -20.688   0.016  1.00  0.00     0.139 C
HETATM    6  C23 UNL     1     -18.920 -20.924   1.513  1.00  0.00     0.065 C
HETATM    7  C24 UNL     1     -17.806 -21.871   1.818  1.00  0.00     0.129 C
HETATM    8  C25 UNL     1     -16.506 -21.179   2.077  1.00  0.00    -0.011 C
HETATM    9  C26 UNL     1     -15.493 -22.313   2.309  1.00  0.00     0.018 C
HETATM   10  C27 UNL     1     -16.616 -20.510   3.454  1.00  0.00     0.018 C
ENDROOT
BRANCH   5  11
HETATM   11  O2  UNL     1     -20.359 -20.269  -0.311  1.00  0.00    -0.310 OA
BRANCH  11  12
HETATM   12  C16 UNL     1     -21.462 -21.063  -0.311  1.00  0.00     0.310 C
HETATM   13  O3  UNL     1     -22.432 -20.742  -1.040  1.00  0.00    -0.258 OA
BRANCH  12  14
HETATM   14  C17 UNL     1     -21.595 -22.281   0.489  1.00  0.00     0.111 A
HETATM   15  C18 UNL     1     -22.367 -22.317   1.625  1.00  0.00     0.075 A
HETATM   16  C19 UNL     1     -22.532 -23.431   2.421  1.00  0.00     0.105 A
HETATM   17  C21 UNL     1     -21.873 -24.575   2.038  1.00  0.00     0.114 A
HETATM   18  C22 UNL     1     -21.104 -24.531   0.901  1.00  0.00     0.128 A
HETATM   19  N2  UNL     1     -20.960 -23.429   0.142  1.00  0.00    -0.358 N
ATOM     20  H2  UNL     1     -20.374 -23.456  -0.692  1.00  0.00     0.165 HD
BRANCH  16  21
HETATM   21  O4  UNL     1     -23.336 -23.378   3.560  1.00  0.00    -0.353 OA
HETATM   22  C20 UNL     1     -24.507 -22.625   3.643  1.00  0.00     0.210 C
ENDBRANCH  16  21
BRANCH  17  23
HETATM   23  O5  UNL     1     -22.020 -25.717   2.821  1.00  0.00    -0.357 OA
ATOM     24  H5  UNL     1     -22.188 -26.545   2.386  1.00  0.00     0.218 HD
ENDBRANCH  17  23
ENDBRANCH  12  14
ENDBRANCH  11  12
ENDBRANCH   5  11
BRANCH   4  25
HETATM   25  C7  UNL     1     -18.313 -19.205  -1.829  1.00  0.00     0.047 C
HETATM   26  C8  UNL     1     -17.816 -19.945  -2.985  1.00  0.00     0.015 C
HETATM   27  N1  UNL     1     -17.162 -21.031  -2.842  1.00  0.00    -0.277 N
HETATM   28  C9  UNL     1     -18.022 -19.491  -4.390  1.00  0.00     0.055 C
ATOM     29  H1  UNL     1     -17.004 -21.357  -1.888  1.00  0.00     0.193 HD
HETATM   30  C10 UNL     1     -18.254 -18.006  -4.473  1.00  0.00     0.006 C
HETATM   31  C11 UNL     1     -18.957 -17.416  -3.303  1.00  0.00     0.010 C
HETATM   32  C12 UNL     1     -18.117 -17.734  -2.046  1.00  0.00    -0.038 C
HETATM   33  C13 UNL     1     -16.742 -17.286  -2.363  1.00  0.00     0.015 C
HETATM   34  C14 UNL     1     -18.680 -16.875  -0.954  1.00  0.00     0.015 C
BRANCH  27  35
HETATM   35  O1  UNL     1     -16.659 -21.790  -3.848  1.00  0.00    -0.290 OA
ATOM     36  H1  UNL     1     -16.180 -22.604  -3.741  1.00  0.00     0.244 HD
ENDBRANCH  27  35
ENDBRANCH   4  25
BRANCH   7  37
HETATM   37  O6  UNL     1     -17.713 -22.934   0.925  1.00  0.00    -0.395 OA
ATOM     38  H6  UNL     1     -17.015 -23.545   1.129  1.00  0.00     0.210 HD
ENDBRANCH   7  37
BRANCH   1  39
HETATM   39  C2  UNL     1     -16.064 -18.847   1.649  1.00  0.00    -0.027 C
HETATM   40  C1  UNL     1     -15.354 -17.826   1.217  1.00  0.00     0.008 C
ENDBRANCH   1  39
TORSDOF 9
ENDMDL