MODEL 1
REMARK VINA RESULT: -9.159808245      0.000      0.000
REMARK  6 active torsions:
REMARK  status: ('A' for Active; 'I' for Inactive)
REMARK    1  A    between atoms: C10_16  and  S1_17
REMARK    2  A    between atoms: S1_17  and  C11_18
REMARK    3  A    between atoms: C13_20  and  O3_21
REMARK    4  A    between atoms: C13_20  and  C14_23
REMARK    5  A    between atoms: C14_23  and  C15_24
REMARK    6  A    between atoms: C15_24  and  O4_25
ROOT
HETATM    1  C1  UNL     1     -16.689 -28.299   2.820  1.00  0.00     0.015 C
HETATM    2  C2  UNL     1     -16.646 -28.180   1.310  1.00  0.00    -0.037 C
HETATM    3  C3  UNL     1     -15.209 -28.293   0.887  1.00  0.00     0.015 C
HETATM    4  C4  UNL     1     -17.429 -29.269   0.652  1.00  0.00     0.095 C
HETATM    5  C5  UNL     1     -18.876 -28.982   0.738  1.00  0.00     0.184 C
HETATM    6  O1  UNL     1     -19.662 -29.891   0.333  1.00  0.00    -0.290 OA
HETATM    7  C6  UNL     1     -19.371 -27.712   1.265  1.00  0.00     0.131 A
HETATM    8  O2  UNL     1     -20.612 -27.626   1.667  1.00  0.00    -0.288 OA
HETATM    9  C7  UNL     1     -21.129 -26.514   2.154  1.00  0.00     0.164 A
HETATM   10  N1  UNL     1     -22.381 -26.486   2.542  1.00  0.00    -0.378 N
ATOM     11  H11 UNL     1     -22.781 -25.627   2.918  1.00  0.00     0.158 HD
ATOM     12  H12 UNL     1     -22.961 -27.321   2.470  1.00  0.00     0.158 HD
HETATM   13  C8  UNL     1     -20.344 -25.383   2.252  1.00  0.00     0.112 A
HETATM   14  C9  UNL     1     -20.942 -24.192   2.785  1.00  0.00     0.105 C
HETATM   15  N2  UNL     1     -21.403 -23.225   3.217  1.00  0.00    -0.191 NA
HETATM   16  C10 UNL     1     -19.009 -25.398   1.842  1.00  0.00     0.035 A
HETATM   17  C24 UNL     1     -18.537 -26.593   1.345  1.00  0.00    -0.001 A
HETATM   18  C25 UNL     1     -17.146 -26.798   0.875  1.00  0.00     0.052 C
ENDROOT
BRANCH  16  19
HETATM   19  S1  UNL     1     -17.982 -23.989   1.969  1.00  0.00    -0.121 SA
BRANCH  19  20
HETATM   20  C11 UNL     1     -18.663 -22.440   1.453  1.00  0.00     0.074 C
HETATM   21  C12 UNL     1     -19.431 -22.430   0.166  1.00  0.00     0.055 C
HETATM   22  C13 UNL     1     -20.110 -21.130   0.002  1.00  0.00     0.061 C
HETATM   23  C16 UNL     1     -19.605 -19.959   0.747  1.00  0.00     0.045 C
HETATM   24  C17 UNL     1     -18.335 -20.046   1.498  1.00  0.00     0.016 C
HETATM   25  C18 UNL     1     -17.424 -18.925   1.089  1.00  0.00    -0.034 C
HETATM   26  C22 UNL     1     -17.644 -21.344   1.311  1.00  0.00     0.022 C
HETATM   27  C19 UNL     1     -18.234 -17.650   0.884  1.00  0.00     0.016 C
HETATM   28  C20 UNL     1     -16.360 -18.582   2.088  1.00  0.00     0.016 C
HETATM   29  C21 UNL     1     -16.841 -19.290  -0.276  1.00  0.00     0.083 C
HETATM   30  S2  UNL     1     -17.098 -21.110  -0.424  1.00  0.00    -0.157 SA
HETATM   31  C23 UNL     1     -16.454 -21.610   2.126  1.00  0.00     0.028 C
BRANCH  22  32
HETATM   32  O3  UNL     1     -20.085 -20.869  -1.402  1.00  0.00    -0.390 OA
ATOM     33  H3  UNL     1     -20.861 -21.294  -1.747  1.00  0.00     0.210 HD
ENDBRANCH  22  32
BRANCH  22  34
HETATM   34  C14 UNL     1     -21.589 -21.318   0.275  1.00  0.00     0.064 C
BRANCH  34  35
HETATM   35  C15 UNL     1     -22.494 -20.634  -0.691  1.00  0.00     0.167 C
BRANCH  35  36
HETATM   36  O4  UNL     1     -23.360 -19.759  -0.031  1.00  0.00    -0.401 OA
ATOM     37  H4  UNL     1     -24.170 -19.653  -0.515  1.00  0.00     0.209 HD
ENDBRANCH  35  36
ENDBRANCH  34  35
ENDBRANCH  22  34
ENDBRANCH  19  20
ENDBRANCH  16  19
TORSDOF 6
ENDMDL