MODEL 2
REMARK VINA RESULT: -7.294233973      0.923      1.257
REMARK  7 active torsions:
REMARK  status: ('A' for Active; 'I' for Inactive)
REMARK    1  A    between atoms: C2_2  and  O1_3
REMARK    2  A    between atoms: O1_3  and  C3_4
REMARK    3  A    between atoms: C3_4  and  C4_6
REMARK    4  A    between atoms: C9_11  and  O3_12
REMARK    5  A    between atoms: C10_14  and  O4_15
REMARK    6  A    between atoms: C20_26  and  O5_27
REMARK    7  A    between atoms: C22_32  and  C23_33
ROOT
HETATM    1  C4  UNL     1     -28.053 -23.032   8.240  1.00  0.00     0.073 A
HETATM    2  C5  UNL     1     -27.296 -23.761   9.159  1.00  0.00     0.028 A
HETATM    3  C6  UNL     1     -27.187 -23.451  10.492  1.00  0.00    -0.045 A
HETATM    4  C7  UNL     1     -27.864 -22.350  10.957  1.00  0.00    -0.020 A
HETATM    5  C8  UNL     1     -28.615 -21.613  10.090  1.00  0.00     0.047 A
HETATM    6  C9  UNL     1     -28.722 -21.936   8.730  1.00  0.00     0.082 A
HETATM    7  C10 UNL     1     -27.794 -21.924  12.384  1.00  0.00     0.155 C
HETATM    8  C11 UNL     1     -27.228 -20.553  12.590  1.00  0.00     0.015 C
HETATM    9  C12 UNL     1     -28.269 -19.468  12.562  1.00  0.00     0.012 C
HETATM   10  C13 UNL     1     -26.121 -20.164  11.676  1.00  0.00     0.007 C
HETATM   11  C14 UNL     1     -24.763 -20.647  12.061  1.00  0.00     0.000 C
HETATM   12  C15 UNL     1     -24.605 -20.947  13.533  1.00  0.00     0.000 C
HETATM   13  C16 UNL     1     -23.158 -21.280  13.802  1.00  0.00     0.000 C
HETATM   14  C17 UNL     1     -22.756 -22.639  13.322  1.00  0.00     0.000 C
HETATM   15  C18 UNL     1     -23.317 -23.767  14.158  1.00  0.00     0.003 C
HETATM   16  C19 UNL     1     -23.292 -25.049  13.351  1.00  0.00     0.042 C
HETATM   17  C20 UNL     1     -24.409 -25.970  13.789  1.00  0.00     0.217 C
HETATM   18  C21 UNL     1     -25.027 -26.683  12.650  1.00  0.00     0.288 C
HETATM   19  O6  UNL     1     -24.302 -27.442  11.960  1.00  0.00    -0.262 OA
HETATM   20  O7  UNL     1     -26.337 -26.526  12.360  1.00  0.00    -0.309 OA
HETATM   21  C22 UNL     1     -27.077 -25.345  12.138  1.00  0.00     0.171 C
HETATM   22  C27 UNL     1     -26.359 -24.309  11.357  1.00  0.00     0.076 C
ENDROOT
BRANCH   1  23
HETATM   23  C3  UNL     1     -28.086 -23.467   6.853  1.00  0.00     0.296 C
HETATM   24  O2  UNL     1     -29.106 -23.711   6.180  1.00  0.00    -0.259 OA
BRANCH  23  25
HETATM   25  O1  UNL     1     -26.868 -23.640   6.182  1.00  0.00    -0.318 OA
BRANCH  25  26
HETATM   26  C2  UNL     1     -26.239 -22.553   5.530  1.00  0.00     0.174 C
HETATM   27  C1  UNL     1     -25.104 -23.023   4.662  1.00  0.00     0.034 C
ENDBRANCH  25  26
ENDBRANCH  23  25
ENDBRANCH   1  23
BRANCH   6  28
HETATM   28  O3  UNL     1     -29.499 -21.147   7.911  1.00  0.00    -0.360 OA
ATOM     29  H3  UNL     1     -30.226 -20.642   8.257  1.00  0.00     0.217 HD
ENDBRANCH   6  28
BRANCH   7  30
HETATM   30  O4  UNL     1     -29.132 -21.862  12.841  1.00  0.00    -0.391 OA
ATOM     31  H4  UNL     1     -29.168 -22.399  13.624  1.00  0.00     0.210 HD
ENDBRANCH   7  30
BRANCH  21  32
HETATM   32  C23 UNL     1     -28.309 -25.757  11.431  1.00  0.00    -0.004 A
HETATM   33  C24 UNL     1     -28.424 -26.613  10.355  1.00  0.00     0.036 A
HETATM   34  C25 UNL     1     -29.757 -26.713  10.021  1.00  0.00     0.142 A
HETATM   35  O8  UNL     1     -30.433 -25.963  10.840  1.00  0.00    -0.334 OA
HETATM   36  C26 UNL     1     -29.606 -25.373  11.699  1.00  0.00     0.151 A
ENDBRANCH  21  32
BRANCH  17  37
HETATM   37  O5  UNL     1     -25.347 -25.269  14.543  1.00  0.00    -0.386 OA
ATOM     38  H5  UNL     1     -26.100 -25.818  14.727  1.00  0.00     0.210 HD
ENDBRANCH  17  37
TORSDOF 7
ENDMDL