MODEL 3
REMARK VINA RESULT: -8.358712560      3.037      5.226
REMARK  6 active torsions:
REMARK  status: ('A' for Active; 'I' for Inactive)
REMARK    1  A    between atoms: C5_6  and  O2_7
REMARK    2  A    between atoms: C12_15  and  S1_16
REMARK    3  A    between atoms: S1_16  and  S2_17
REMARK    4  A    between atoms: S2_17  and  C13_18
REMARK    5  A    between atoms: N1_21  and  O3_22
REMARK    6  A    between atoms: C20_28  and  O4_29
ROOT
HETATM    1  C1  UNL     1     -18.572 -24.793   0.523  1.00  0.00     0.027 C
HETATM    2  C2  UNL     1     -19.486 -25.335   1.259  1.00  0.00     0.008 A
HETATM    3  C3  UNL     1     -19.296 -26.754   1.662  1.00  0.00     0.141 A
HETATM    4  C4  UNL     1     -20.194 -27.401   2.387  1.00  0.00     0.226 A
HETATM    5  O1  UNL     1     -21.324 -26.691   2.753  1.00  0.00    -0.261 OA
HETATM    6  C5  UNL     1     -21.540 -25.382   2.403  1.00  0.00     0.197 A
HETATM    7  C6  UNL     1     -20.679 -24.633   1.664  1.00  0.00     0.040 A
HETATM    8  C7  UNL     1     -20.982 -23.273   1.325  1.00  0.00    -0.034 C
HETATM    9  C8  UNL     1     -21.295 -22.975  -0.129  1.00  0.00     0.048 C
HETATM   10  C9  UNL     1     -21.387 -21.413  -0.023  1.00  0.00    -0.028 C
HETATM   11  C10 UNL     1     -22.621 -21.134   0.765  1.00  0.00     0.016 C
HETATM   12  C11 UNL     1     -21.505 -20.932  -1.445  1.00  0.00     0.016 C
HETATM   13  C12 UNL     1     -20.082 -21.173   0.619  1.00  0.00     0.099 C
HETATM   14  C20 UNL     1     -20.160 -22.146   1.814  1.00  0.00     0.163 C
HETATM   15  O5  UNL     1     -19.730 -28.694   2.595  1.00  0.00    -0.290 OA
HETATM   16  C21 UNL     1     -18.491 -28.870   1.962  1.00  0.00     0.171 A
HETATM   17  C22 UNL     1     -17.374 -29.214   2.921  1.00  0.00     0.079 C
HETATM   18  C23 UNL     1     -18.534 -29.888   0.854  1.00  0.00     0.079 C
HETATM   19  O6  UNL     1     -18.254 -27.611   1.398  1.00  0.00    -0.309 OA
ENDROOT
BRANCH  14  20
HETATM   20  O4  UNL     1     -18.980 -22.392   2.428  1.00  0.00    -0.390 OA
ATOM     21  H4  UNL     1     -18.575 -21.717   2.960  1.00  0.00     0.210 HD
ENDBRANCH  14  20
BRANCH   6  22
HETATM   22  O2  UNL     1     -22.722 -24.759   2.829  1.00  0.00    -0.340 OA
ATOM     23  H2  UNL     1     -22.746 -23.810   2.874  1.00  0.00     0.220 HD
ENDBRANCH   6  22
BRANCH  13  24
HETATM   24  S1  UNL     1     -19.390 -19.631   0.908  1.00  0.00    -0.088 SA
BRANCH  24  25
HETATM   25  S2  UNL     1     -18.078 -19.103  -0.646  1.00  0.00    -0.088 SA
BRANCH  25  26
HETATM   26  C13 UNL     1     -16.460 -19.264   0.146  1.00  0.00     0.085 C
HETATM   27  C14 UNL     1     -16.447 -18.355   1.337  1.00  0.00     0.008 C
HETATM   28  C15 UNL     1     -16.074 -18.709   2.537  1.00  0.00     0.115 C
HETATM   29  N1  UNL     1     -15.631 -20.022   2.846  1.00  0.00    -0.263 N
HETATM   30  C16 UNL     1     -15.417 -20.921   1.739  1.00  0.00     0.053 C
HETATM   31  C17 UNL     1     -15.634 -22.344   2.256  1.00  0.00     0.041 C
HETATM   32  C18 UNL     1     -14.000 -20.864   1.215  1.00  0.00     0.041 C
HETATM   33  C19 UNL     1     -16.425 -20.709   0.647  1.00  0.00     0.052 C
BRANCH  29  34
HETATM   34  O3  UNL     1     -15.443 -20.346   4.136  1.00  0.00    -0.287 OA
ATOM     35  H3  UNL     1     -16.068 -20.027   4.777  1.00  0.00     0.244 HD
ENDBRANCH  29  34
ENDBRANCH  25  26
ENDBRANCH  24  25
ENDBRANCH  13  24
TORSDOF 6
ENDMDL