MODEL 2
REMARK VINA RESULT: -8.478751009      1.119      1.420
REMARK  6 active torsions:
REMARK  status: ('A' for Active; 'I' for Inactive)
REMARK    1  A    between atoms: C4_4  and  C5_5
REMARK    2  A    between atoms: C5_5  and  C6_7
REMARK    3  A    between atoms: C11_13  and  O3_14
REMARK    4  A    between atoms: C20_24  and  C21_25
REMARK    5  A    between atoms: N1_26  and  O4_28
REMARK    6  A    between atoms: C22_30  and  O5_31
ROOT
HETATM    1  C6  UNL     1     -28.470 -25.237   7.747  1.00  0.00     0.123 C
HETATM    2  C7  UNL     1     -29.762 -24.804   7.001  1.00  0.00     0.055 C
HETATM    3  C8  UNL     1     -27.974 -26.449   7.011  1.00  0.00     0.058 C
HETATM    4  C9  UNL     1     -28.838 -27.567   7.463  1.00  0.00     0.059 A
HETATM    5  C10 UNL     1     -28.340 -28.808   6.879  1.00  0.00     0.068 A
HETATM    6  O2  UNL     1     -28.064 -29.353   5.729  1.00  0.00    -0.291 OA
HETATM    7  C11 UNL     1     -27.615 -30.578   5.825  1.00  0.00     0.183 A
HETATM    8  C12 UNL     1     -27.609 -30.830   7.205  1.00  0.00     0.074 A
HETATM    9  C13 UNL     1     -28.070 -29.699   7.839  1.00  0.00    -0.019 A
HETATM   10  C14 UNL     1     -28.386 -29.080   9.187  1.00  0.00     0.029 A
HETATM   11  C15 UNL     1     -27.166 -29.369   9.974  1.00  0.00     0.016 C
HETATM   12  C16 UNL     1     -28.950 -27.774   8.967  1.00  0.00     0.008 A
HETATM   13  C17 UNL     1     -30.483 -28.012   9.107  1.00  0.00     0.014 C
HETATM   14  C18 UNL     1     -30.793 -28.246  10.559  1.00  0.00     0.007 C
HETATM   15  C19 UNL     1     -30.711 -26.813  11.103  1.00  0.00     0.008 C
HETATM   16  C20 UNL     1     -31.461 -26.672  12.354  1.00  0.00     0.060 C
HETATM   17  C22 UNL     1     -31.479 -25.257  12.818  1.00  0.00     0.127 C
HETATM   18  C23 UNL     1     -30.325 -24.421  12.422  1.00  0.00     0.033 C
HETATM   19  C24 UNL     1     -29.596 -24.747  11.203  1.00  0.00     0.015 C
HETATM   20  C25 UNL     1     -29.344 -26.266  11.007  1.00  0.00    -0.008 C
HETATM   21  C26 UNL     1     -28.487 -26.492  12.258  1.00  0.00     0.019 C
HETATM   22  C27 UNL     1     -28.602 -26.561   9.747  1.00  0.00     0.075 C
HETATM   23  C28 UNL     1     -27.127 -26.418  10.093  1.00  0.00     0.047 C
HETATM   24  O6  UNL     1     -28.846 -25.403   8.988  1.00  0.00    -0.360 OA
ENDROOT
BRANCH   1  25
HETATM   25  C5  UNL     1     -27.521 -24.131   7.442  1.00  0.00     0.183 C
HETATM   26  O1  UNL     1     -27.038 -23.978   6.302  1.00  0.00    -0.290 OA
BRANCH  25  27
HETATM   27  C4  UNL     1     -27.096 -23.167   8.433  1.00  0.00     0.055 C
HETATM   28  C2  UNL     1     -27.715 -22.085   8.768  1.00  0.00    -0.084 C
HETATM   29  C1  UNL     1     -27.142 -21.190   9.814  1.00  0.00     0.043 C
HETATM   30  C3  UNL     1     -29.000 -21.658   8.161  1.00  0.00     0.043 C
ENDBRANCH  25  27
ENDBRANCH   1  25
BRANCH   7  31
HETATM   31  O3  UNL     1     -27.223 -31.465   4.849  1.00  0.00    -0.341 OA
ATOM     32  H3  UNL     1     -26.383 -31.881   4.694  1.00  0.00     0.220 HD
ENDBRANCH   7  31
BRANCH  16  33
HETATM   33  C21 UNL     1     -31.210 -27.673  13.416  1.00  0.00     0.094 C
HETATM   34  N1  UNL     1     -32.154 -28.279  13.987  1.00  0.00    -0.284 N
ATOM     35  H1  UNL     1     -33.119 -28.084  13.720  1.00  0.00     0.192 HD
BRANCH  34  36
HETATM   36  O4  UNL     1     -31.887 -29.202  14.967  1.00  0.00    -0.291 OA
ATOM     37  H4  UNL     1     -32.047 -28.988  15.879  1.00  0.00     0.244 HD
ENDBRANCH  34  36
ENDBRANCH  16  33
BRANCH  17  38
HETATM   38  O5  UNL     1     -31.542 -25.289  14.232  1.00  0.00    -0.395 OA
ATOM     39  H5  UNL     1     -32.031 -24.522  14.504  1.00  0.00     0.210 HD
ENDBRANCH  17  38
TORSDOF 6
ENDMDL