MODEL 3
REMARK VINA RESULT: -8.159862957     11.058     14.665
REMARK  8 active torsions:
REMARK  status: ('A' for Active; 'I' for Inactive)
REMARK    1  A    between atoms: C5_5  and  O1_6
REMARK    2  A    between atoms: C5_5  and  C8_11
REMARK    3  A    between atoms: O1_6  and  C6_7
REMARK    4  A    between atoms: C6_7  and  C7_8
REMARK    5  A    between atoms: C7_8  and  O2_9
REMARK    6  A    between atoms: C9_13  and  S2_14
REMARK    7  A    between atoms: C17_22  and  O3_23
REMARK    8  A    between atoms: C21_29  and  O4_30
ROOT
HETATM    1  C1  UNL     1     -28.237 -25.633  15.030  1.00  0.00     0.102 C
HETATM    2  C2  UNL     1     -28.130 -25.539  13.817  1.00  0.00    -0.151 C
HETATM    3  C3  UNL     1     -27.970 -25.405  12.398  1.00  0.00     0.013 C
HETATM    4  C4  UNL     1     -26.540 -25.552  11.932  1.00  0.00     0.060 C
HETATM    5  C5  UNL     1     -28.951 -25.186  11.547  1.00  0.00     0.100 C
ENDROOT
BRANCH   5   6
HETATM    6  O1  UNL     1     -30.228 -25.071  11.942  1.00  0.00    -0.346 OA
BRANCH   6   7
HETATM    7  C6  UNL     1     -31.220 -25.966  12.263  1.00  0.00     0.201 C
BRANCH   7   8
HETATM    8  C7  UNL     1     -31.825 -25.489  13.600  1.00  0.00     0.190 C
BRANCH   8   9
HETATM    9  O2  UNL     1     -33.185 -25.262  13.357  1.00  0.00    -0.399 OA
ATOM     10  H2  UNL     1     -33.619 -25.312  14.200  1.00  0.00     0.209 HD
ENDBRANCH   8   9
ENDBRANCH   7   8
ENDBRANCH   6   7
ENDBRANCH   5   6
BRANCH   5  11
HETATM   11  C8  UNL     1     -28.604 -25.059  10.118  1.00  0.00     0.048 A
HETATM   12  S1  UNL     1     -27.949 -23.618   9.415  1.00  0.00    -0.079 SA
HETATM   13  C9  UNL     1     -27.788 -24.168   7.816  1.00  0.00     0.048 A
HETATM   14  C11 UNL     1     -28.245 -25.467   7.857  1.00  0.00    -0.022 A
HETATM   15  C12 UNL     1     -28.672 -25.930   9.063  1.00  0.00    -0.021 A
HETATM   16  C25 UNL     1     -28.248 -26.354   6.629  1.00  0.00     0.083 C
HETATM   17  C13 UNL     1     -29.207 -27.336   9.127  1.00  0.00     0.051 C
HETATM   18  C14 UNL     1     -30.732 -27.311   8.920  1.00  0.00     0.020 C
HETATM   19  C15 UNL     1     -28.695 -28.240   8.109  1.00  0.00    -0.028 A
HETATM   20  C16 UNL     1     -28.256 -27.781   6.902  1.00  0.00    -0.011 A
HETATM   21  C24 UNL     1     -28.675 -29.596   8.342  1.00  0.00     0.003 A
HETATM   22  C17 UNL     1     -27.805 -28.640   5.929  1.00  0.00     0.094 A
HETATM   23  C18 UNL     1     -27.770 -29.987   6.117  1.00  0.00     0.093 A
HETATM   24  C19 UNL     1     -27.317 -30.932   5.139  1.00  0.00     0.103 C
HETATM   25  C20 UNL     1     -28.221 -30.451   7.360  1.00  0.00     0.051 A
HETATM   26  N1  UNL     1     -26.955 -31.698   4.320  1.00  0.00    -0.191 NA
HETATM   27  C21 UNL     1     -28.298 -31.731   7.829  1.00  0.00     0.154 A
HETATM   28  N2  UNL     1     -28.788 -31.705   9.081  1.00  0.00    -0.341 N
HETATM   29  C22 UNL     1     -29.015 -32.881   9.913  1.00  0.00     0.158 C
HETATM   30  C23 UNL     1     -29.024 -30.420   9.409  1.00  0.00     0.105 A
BRANCH  13  31
HETATM   31  S2  UNL     1     -27.160 -23.160   6.485  1.00  0.00    -0.127 SA
HETATM   32  C10 UNL     1     -27.409 -21.420   6.639  1.00  0.00     0.096 C
ENDBRANCH  13  31
BRANCH  22  33
HETATM   33  O3  UNL     1     -27.365 -28.137   4.705  1.00  0.00    -0.359 OA
ATOM     34  H3  UNL     1     -26.761 -28.643   4.174  1.00  0.00     0.217 HD
ENDBRANCH  22  33
BRANCH  27  35
HETATM   35  O4  UNL     1     -27.933 -32.906   7.144  1.00  0.00    -0.345 OA
ATOM     36  H4  UNL     1     -27.211 -33.486   7.352  1.00  0.00     0.219 HD
ENDBRANCH  27  35
ENDBRANCH   5  11
TORSDOF 8
ENDMDL