MODEL 2
REMARK VINA RESULT: -8.935570000      4.648      9.818
REMARK  6 active torsions:
REMARK  status: ('A' for Active; 'I' for Inactive)
REMARK    1  A    between atoms: C3_5  and  C4_6
REMARK    2  A    between atoms: C14_17  and  O2_18
REMARK    3  A    between atoms: C15_20  and  N2_21
REMARK    4  A    between atoms: N2_21  and  C16_23
REMARK    5  A    between atoms: C16_23  and  C17_24
REMARK    6  A    between atoms: C20_28  and  O4_29
ROOT
HETATM    1  C4  UNL     1     -21.608 -25.060   1.946  1.00  0.00     0.312 C
HETATM    2  O1  UNL     1     -21.697 -24.233   3.020  1.00  0.00    -0.352 OA
HETATM    3  C5  UNL     1     -21.028 -23.059   2.676  1.00  0.00     0.209 C
HETATM    4  C6  UNL     1     -20.230 -23.439   1.465  1.00  0.00     0.086 C
HETATM    5  C7  UNL     1     -18.785 -22.992   1.602  1.00  0.00     0.041 C
HETATM    6  C8  UNL     1     -18.785 -21.506   1.801  1.00  0.00     0.009 C
HETATM    7  C9  UNL     1     -19.466 -20.708   0.730  1.00  0.00    -0.002 C
HETATM    8  C10 UNL     1     -20.657 -21.325   0.135  1.00  0.00    -0.007 C
HETATM    9  C11 UNL     1     -20.952 -21.001  -1.300  1.00  0.00     0.005 C
HETATM   10  C12 UNL     1     -20.470 -19.664  -1.732  1.00  0.00     0.008 C
HETATM   11  C13 UNL     1     -19.144 -19.231  -1.242  1.00  0.00     0.025 C
HETATM   12  C14 UNL     1     -19.338 -17.888  -0.580  1.00  0.00     0.145 C
HETATM   13  C15 UNL     1     -17.955 -17.173  -0.793  1.00  0.00     0.110 C
HETATM   14  C21 UNL     1     -16.974 -18.056  -0.148  1.00  0.00     0.028 C
HETATM   15  C22 UNL     1     -17.527 -19.277   0.559  1.00  0.00     0.012 C
HETATM   16  C23 UNL     1     -18.442 -20.146  -0.273  1.00  0.00    -0.034 C
HETATM   17  C24 UNL     1     -17.641 -21.214  -0.908  1.00  0.00     0.016 C
HETATM   18  C25 UNL     1     -20.722 -22.827   0.203  1.00  0.00     0.045 C
HETATM   19  O5  UNL     1     -20.340 -24.802   1.350  1.00  0.00    -0.342 OA
ENDROOT
BRANCH   1  20
HETATM   20  C3  UNL     1     -21.549 -26.528   2.332  1.00  0.00     0.071 A
HETATM   21  N1  UNL     1     -22.528 -27.075   2.983  1.00  0.00    -0.353 N
HETATM   22  C2  UNL     1     -22.463 -28.348   3.318  1.00  0.00     0.047 A
ATOM     23  H1  UNL     1     -23.348 -26.521   3.234  1.00  0.00     0.166 HD
HETATM   24  C1  UNL     1     -23.489 -29.152   4.080  1.00  0.00     0.076 C
HETATM   25  S1  UNL     1     -20.953 -28.820   2.690  1.00  0.00    -0.087 SA
HETATM   26  C26 UNL     1     -20.483 -27.322   2.021  1.00  0.00     0.081 A
ENDBRANCH   1  20
BRANCH  12  27
HETATM   27  O2  UNL     1     -20.295 -17.147  -1.230  1.00  0.00    -0.393 OA
ATOM     28  H2  UNL     1     -19.926 -16.353  -1.596  1.00  0.00     0.210 HD
ENDBRANCH  12  27
BRANCH  13  29
HETATM   29  N2  UNL     1     -18.194 -15.839  -0.563  1.00  0.00    -0.391 N
ATOM     30  H2  UNL     1     -18.835 -15.640   0.206  1.00  0.00     0.159 HD
BRANCH  29  31
HETATM   31  C16 UNL     1     -17.691 -14.709  -1.224  1.00  0.00     0.099 C
BRANCH  31  32
HETATM   32  C17 UNL     1     -17.532 -14.952  -2.671  1.00  0.00     0.039 A
HETATM   33  C18 UNL     1     -16.347 -14.926  -3.352  1.00  0.00     0.042 A
HETATM   34  C19 UNL     1     -16.638 -15.078  -4.717  1.00  0.00     0.146 A
HETATM   35  O3  UNL     1     -17.903 -15.186  -4.801  1.00  0.00    -0.300 OA
HETATM   36  C20 UNL     1     -18.530 -15.126  -3.635  1.00  0.00     0.194 A
BRANCH  36  37
HETATM   37  O4  UNL     1     -19.894 -15.232  -3.474  1.00  0.00    -0.340 OA
ATOM     38  H4  UNL     1     -20.584 -15.196  -4.127  1.00  0.00     0.220 HD
ENDBRANCH  36  37
ENDBRANCH  31  32
ENDBRANCH  29  31
ENDBRANCH  13  29
TORSDOF 6
ENDMDL