MODEL 3
REMARK VINA RESULT: -7.777770901      1.557      1.996
REMARK  6 active torsions:
REMARK  status: ('A' for Active; 'I' for Inactive)
REMARK    1  A    between atoms: C2_2  and  C3_3
REMARK    2  A    between atoms: C3_3  and  C4_4
REMARK    3  A    between atoms: C8_8  and  O1_9
REMARK    4  A    between atoms: C9_11  and  O2_12
REMARK    5  A    between atoms: C20_28  and  O3_29
REMARK    6  A    between atoms: C23_32  and  O4_33
ROOT
HETATM    1  C4  UNL     1     -18.683 -23.082   1.394  1.00  0.00    -0.018 A
HETATM    2  C5  UNL     1     -17.583 -22.257   1.472  1.00  0.00     0.022 A
HETATM    3  C6  UNL     1     -17.650 -20.903   1.257  1.00  0.00    -0.020 A
HETATM    4  C7  UNL     1     -18.937 -20.424   0.948  1.00  0.00     0.025 A
HETATM    5  C8  UNL     1     -20.046 -21.227   0.866  1.00  0.00     0.112 A
HETATM    6  C9  UNL     1     -19.920 -22.565   1.090  1.00  0.00     0.108 A
HETATM    7  C11 UNL     1     -19.058 -18.943   0.649  1.00  0.00     0.103 C
HETATM    8  N1  UNL     1     -18.479 -18.827  -0.615  1.00  0.00    -0.369 N
ATOM      9  H1  UNL     1     -18.750 -19.511  -1.321  1.00  0.00     0.165 HD
HETATM   10  C12 UNL     1     -17.561 -17.853  -0.983  1.00  0.00     0.024 C
HETATM   11  C13 UNL     1     -17.631 -16.510  -0.292  1.00  0.00     0.107 C
HETATM   12  C14 UNL     1     -17.776 -15.354  -1.308  1.00  0.00     0.023 C
HETATM   13  C15 UNL     1     -16.465 -15.035  -1.945  1.00  0.00     0.017 C
HETATM   14  C16 UNL     1     -16.015 -16.248  -2.741  1.00  0.00     0.105 C
HETATM   15  N2  UNL     1     -15.401 -17.194  -1.910  1.00  0.00    -0.235 NA
HETATM   16  S1  UNL     1     -14.550 -16.524  -0.523  1.00  0.00    -0.006 SA
HETATM   17  S2  UNL     1     -16.239 -16.040   0.734  1.00  0.00    -0.070 SA
HETATM   18  C17 UNL     1     -16.279 -18.317  -1.473  1.00  0.00     0.151 C
HETATM   19  C18 UNL     1     -15.399 -19.264  -0.810  1.00  0.00    -0.018 A
HETATM   20  C19 UNL     1     -14.222 -19.440  -1.585  1.00  0.00     0.047 A
HETATM   21  C20 UNL     1     -13.162 -20.221  -1.254  1.00  0.00     0.071 A
HETATM   22  C22 UNL     1     -13.250 -20.893  -0.059  1.00  0.00     0.074 A
HETATM   23  C23 UNL     1     -14.358 -20.770   0.739  1.00  0.00     0.079 A
HETATM   24  C24 UNL     1     -15.454 -19.955   0.377  1.00  0.00     0.006 A
HETATM   25  C25 UNL     1     -16.524 -20.006   1.378  1.00  0.00     0.027 C
ENDROOT
BRANCH   1  26
HETATM   26  C3  UNL     1     -18.534 -24.548   1.643  1.00  0.00     0.068 C
BRANCH  26  27
HETATM   27  C2  UNL     1     -17.189 -24.899   2.162  1.00  0.00    -0.032 C
HETATM   28  C1  UNL     1     -16.814 -26.147   2.357  1.00  0.00     0.007 C
ENDBRANCH  26  27
ENDBRANCH   1  26
BRANCH   6  29
HETATM   29  O2  UNL     1     -21.050 -23.351   1.001  1.00  0.00    -0.353 OA
HETATM   30  C10 UNL     1     -21.837 -23.539   2.153  1.00  0.00     0.210 C
ENDBRANCH   6  29
BRANCH   5  31
HETATM   31  O1  UNL     1     -21.286 -20.645   0.550  1.00  0.00    -0.357 OA
ATOM     32  H1  UNL     1     -21.502 -19.795   0.915  1.00  0.00     0.217 HD
ENDBRANCH   5  31
BRANCH  23  33
HETATM   33  O4  UNL     1     -14.334 -21.486   1.926  1.00  0.00    -0.360 OA
ATOM     34  H4  UNL     1     -15.064 -22.076   2.071  1.00  0.00     0.217 HD
ENDBRANCH  23  33
BRANCH  21  35
HETATM   35  O3  UNL     1     -12.024 -20.347  -2.079  1.00  0.00    -0.356 OA
HETATM   36  C21 UNL     1     -11.004 -21.251  -1.765  1.00  0.00     0.210 C
ENDBRANCH  21  35
TORSDOF 6
ENDMDL