MODEL 4
REMARK VINA RESULT: -8.281558295      1.029      1.384
REMARK  7 active torsions:
REMARK  status: ('A' for Active; 'I' for Inactive)
REMARK    1  A    between atoms: C2_2  and  C3_3
REMARK    2  A    between atoms: C2_2  and  C12_13
REMARK    3  A    between atoms: C3_3  and  C4_4
REMARK    4  A    between atoms: C4_4  and  C5_5
REMARK    5  A    between atoms: C5_5  and  C6_7
REMARK    6  A    between atoms: C14_15  and  O2_17
REMARK    7  A    between atoms: C22_26  and  O4_27
ROOT
HETATM    1  C12 UNL     1      -3.211  -5.081  21.573  1.00  0.00    -0.002 C
HETATM    2  C13 UNL     1      -4.622  -5.661  21.507  1.00  0.00     0.019 C
HETATM    3  C14 UNL     1      -3.381  -3.844  22.425  1.00  0.00     0.062 C
HETATM    4  C15 UNL     1      -2.274  -2.869  22.384  1.00  0.00     0.046 C
HETATM    5  C16 UNL     1      -3.778  -4.076  23.850  1.00  0.00     0.038 C
HETATM    6  C17 UNL     1      -3.541  -5.427  24.374  1.00  0.00     0.009 C
HETATM    7  C18 UNL     1      -2.401  -6.148  23.705  1.00  0.00    -0.001 C
HETATM    8  C19 UNL     1      -2.347  -7.449  24.429  1.00  0.00     0.046 C
HETATM    9  C20 UNL     1      -1.101  -8.213  24.174  1.00  0.00    -0.024 A
HETATM   10  C21 UNL     1      -0.842  -9.474  24.584  1.00  0.00     0.152 A
HETATM   11  O3  UNL     1       0.362  -9.770  24.152  1.00  0.00    -0.299 OA
HETATM   12  C22 UNL     1       0.893  -8.769  23.486  1.00  0.00     0.189 A
HETATM   13  C23 UNL     1      -0.021  -7.705  23.461  1.00  0.00     0.008 A
HETATM   14  C24 UNL     1       0.132  -6.399  22.842  1.00  0.00     0.045 C
HETATM   15  C25 UNL     1      -0.882  -6.007  21.813  1.00  0.00     0.015 C
HETATM   16  C26 UNL     1      -2.357  -6.135  22.232  1.00  0.00    -0.029 C
HETATM   17  C27 UNL     1      -2.804  -7.491  21.731  1.00  0.00     0.016 C
ENDROOT
BRANCH   1  18
HETATM   18  C2  UNL     1      -2.876  -4.687  20.200  1.00  0.00    -0.006 C
HETATM   19  C1  UNL     1      -3.909  -3.946  19.399  1.00  0.00     0.011 C
BRANCH  18  20
HETATM   20  C3  UNL     1      -1.615  -3.898  19.978  1.00  0.00     0.013 C
BRANCH  20  21
HETATM   21  C4  UNL     1      -1.760  -2.945  18.771  1.00  0.00     0.084 C
BRANCH  21  22
HETATM   22  C5  UNL     1      -1.128  -3.677  17.624  1.00  0.00     0.155 C
HETATM   23  O1  UNL     1      -1.526  -3.551  16.449  1.00  0.00    -0.293 OA
BRANCH  22  24
HETATM   24  C6  UNL     1       0.007  -4.589  17.856  1.00  0.00    -0.016 C
HETATM   25  C7  UNL     1       0.095  -5.709  17.155  1.00  0.00    -0.016 C
HETATM   26  C8  UNL     1       1.205  -6.679  17.330  1.00  0.00     0.028 C
HETATM   27  C9  UNL     1       1.397  -6.795  18.849  1.00  0.00     0.004 C
HETATM   28  C10 UNL     1       1.851  -5.453  19.318  1.00  0.00     0.005 C
HETATM   29  C11 UNL     1       1.051  -4.294  18.846  1.00  0.00     0.042 C
ENDBRANCH  22  24
ENDBRANCH  21  22
ENDBRANCH  20  21
ENDBRANCH  18  20
ENDBRANCH   1  18
BRANCH   3  30
HETATM   30  O2  UNL     1      -4.527  -3.128  21.946  1.00  0.00    -0.389 OA
ATOM     31  H2  UNL     1      -5.075  -2.916  22.693  1.00  0.00     0.210 HD
ENDBRANCH   3  30
BRANCH  12  32
HETATM   32  O4  UNL     1       2.147  -8.713  22.883  1.00  0.00    -0.340 OA
ATOM     33  H4  UNL     1       2.541  -9.348  22.295  1.00  0.00     0.220 HD
ENDBRANCH  12  32
TORSDOF 7
ENDMDL