MODEL 5
REMARK VINA RESULT: -7.321671789      2.153      7.032
REMARK  6 active torsions:
REMARK  status: ('A' for Active; 'I' for Inactive)
REMARK    1  A    between atoms: C2_2  and  C3_3
REMARK    2  A    between atoms: C11_12  and  O2_13
REMARK    3  A    between atoms: C13_16  and  C14_17
REMARK    4  A    between atoms: C14_17  and  O3_18
REMARK    5  A    between atoms: C14_17  and  C15_20
REMARK    6  A    between atoms: C14_17  and  C18_23
ROOT
HETATM    1  C3  UNL     1      -1.975  -9.114  24.504  1.00  0.00     0.092 C
HETATM    2  C4  UNL     1      -0.551  -9.516  24.108  1.00  0.00     0.048 C
HETATM    3  C5  UNL     1       0.115  -8.459  23.269  1.00  0.00     0.018 C
HETATM    4  C6  UNL     1       1.596  -8.312  23.512  1.00  0.00     0.010 C
HETATM    5  C7  UNL     1       1.366  -6.861  23.888  1.00  0.00     0.033 C
HETATM    6  C8  UNL     1      -0.109  -7.080  23.844  1.00  0.00     0.126 C
HETATM    7  O1  UNL     1      -0.654  -7.265  25.114  1.00  0.00    -0.372 OA
HETATM    8  C9  UNL     1      -2.003  -7.707  24.996  1.00  0.00     0.193 C
HETATM    9  C10 UNL     1      -2.719  -6.753  24.114  1.00  0.00     0.016 A
HETATM   10  C11 UNL     1      -2.834  -5.430  24.501  1.00  0.00     0.075 A
HETATM   11  C12 UNL     1      -3.481  -4.541  23.679  1.00  0.00     0.047 A
HETATM   12  C13 UNL     1      -4.046  -4.898  22.442  1.00  0.00    -0.020 A
HETATM   13  C24 UNL     1      -3.887  -6.242  22.133  1.00  0.00     0.020 A
HETATM   14  C25 UNL     1      -3.245  -7.159  22.932  1.00  0.00    -0.017 A
HETATM   15  C26 UNL     1      -3.114  -8.584  22.531  1.00  0.00     0.152 C
HETATM   16  C27 UNL     1      -4.474  -8.987  21.930  1.00  0.00     0.045 C
HETATM   17  O4  UNL     1      -2.904  -9.450  23.562  1.00  0.00    -0.368 OA
ENDROOT
BRANCH  12  18
HETATM   18  C14 UNL     1      -4.691  -3.895  21.616  1.00  0.00     0.091 C
BRANCH  18  19
HETATM   19  O3  UNL     1      -5.689  -4.602  20.867  1.00  0.00    -0.384 OA
ATOM     20  H3  UNL     1      -5.898  -4.039  20.130  1.00  0.00     0.211 HD
ENDBRANCH  18  19
BRANCH  18  21
HETATM   21  C15 UNL     1      -5.579  -2.943  22.375  1.00  0.00     0.017 C
HETATM   22  C16 UNL     1      -6.254  -2.089  21.286  1.00  0.00     0.013 C
HETATM   23  C17 UNL     1      -6.634  -3.466  23.223  1.00  0.00     0.013 C
ENDBRANCH  18  21
BRANCH  18  24
HETATM   24  C18 UNL     1      -3.903  -3.258  20.532  1.00  0.00     0.025 C
HETATM   25  C19 UNL     1      -2.518  -2.834  21.057  1.00  0.00     0.008 C
HETATM   26  C20 UNL     1      -1.982  -1.824  20.035  1.00  0.00     0.000 C
HETATM   27  C21 UNL     1      -1.759  -2.543  18.710  1.00  0.00     0.000 C
HETATM   28  C22 UNL     1      -3.109  -3.038  18.239  1.00  0.00     0.000 C
HETATM   29  C23 UNL     1      -3.608  -4.032  19.303  1.00  0.00     0.008 C
ENDBRANCH  18  24
ENDBRANCH  12  18
BRANCH  10  30
HETATM   30  O2  UNL     1      -2.304  -5.004  25.704  1.00  0.00    -0.360 OA
ATOM     31  H2  UNL     1      -2.753  -5.190  26.520  1.00  0.00     0.217 HD
ENDBRANCH  10  30
BRANCH   1  32
HETATM   32  C2  UNL     1      -2.268 -10.017  25.717  1.00  0.00     0.036 C
HETATM   33  C1  UNL     1      -2.465 -11.451  25.288  1.00  0.00     0.008 C
ENDBRANCH   1  32
TORSDOF 6
ENDMDL