MODEL 1
REMARK VINA RESULT: -8.190017547      0.000      0.000
REMARK  6 active torsions:
REMARK  status: ('A' for Active; 'I' for Inactive)
REMARK    1  A    between atoms: C3_3  and  O1_4
REMARK    2  A    between atoms: N1_19  and  O2_21
REMARK    3  A    between atoms: C21_27  and  C22_28
REMARK    4  A    between atoms: C22_28  and  C24_30
REMARK    5  A    between atoms: C24_30  and  C25_31
REMARK    6  A    between atoms: C25_31  and  C26_32
ROOT
HETATM    1  C1  UNL     1       1.841  -6.280  23.862  1.00  0.00     0.022 C
HETATM    2  C2  UNL     1       0.708  -6.488  23.222  1.00  0.00    -0.035 C
HETATM    3  C3  UNL     1      -0.530  -6.452  24.050  1.00  0.00     0.151 C
HETATM    4  C4  UNL     1      -1.260  -5.254  23.481  1.00  0.00     0.043 C
HETATM    5  C5  UNL     1      -1.695  -5.571  22.062  1.00  0.00     0.009 C
HETATM    6  C6  UNL     1      -0.655  -6.101  21.158  1.00  0.00    -0.015 C
HETATM    7  C7  UNL     1      -1.273  -6.998  20.103  1.00  0.00     0.020 C
HETATM    8  C8  UNL     1      -0.173  -4.918  20.282  1.00  0.00     0.014 C
HETATM    9  C9  UNL     1      -1.300  -4.499  19.414  1.00  0.00     0.007 C
HETATM   10  C10 UNL     1      -2.539  -4.068  20.179  1.00  0.00     0.005 C
HETATM   11  C11 UNL     1      -2.860  -2.730  19.639  1.00  0.00    -0.026 C
HETATM   12  C12 UNL     1      -2.837  -2.977  18.099  1.00  0.00     0.019 C
HETATM   13  C13 UNL     1      -1.812  -1.652  19.834  1.00  0.00     0.019 C
HETATM   14  C14 UNL     1      -4.171  -2.134  19.852  1.00  0.00    -0.015 C
HETATM   15  C15 UNL     1      -5.278  -2.157  20.569  1.00  0.00     0.024 C
HETATM   16  C16 UNL     1      -5.615  -3.039  21.679  1.00  0.00     0.031 C
HETATM   17  N1  UNL     1      -6.882  -3.225  21.777  1.00  0.00    -0.274 N
ATOM     18  H1  UNL     1      -7.512  -2.772  21.115  1.00  0.00     0.193 HD
HETATM   19  C17 UNL     1      -4.766  -3.750  22.706  1.00  0.00     0.060 C
HETATM   20  C18 UNL     1      -3.972  -4.752  22.014  1.00  0.00     0.016 C
HETATM   21  C19 UNL     1      -2.535  -4.387  21.602  1.00  0.00    -0.034 C
HETATM   22  C20 UNL     1      -2.151  -3.176  22.450  1.00  0.00     0.016 C
HETATM   23  C21 UNL     1       0.559  -6.711  21.782  1.00  0.00    -0.059 C
ENDROOT
BRANCH  23  24
HETATM   24  C22 UNL     1       0.942  -8.086  21.434  1.00  0.00     0.012 C
HETATM   25  C23 UNL     1       1.303  -9.069  22.497  1.00  0.00     0.015 C
BRANCH  24  26
HETATM   26  C24 UNL     1       2.075  -8.224  20.440  1.00  0.00     0.016 C
BRANCH  26  27
HETATM   27  C25 UNL     1       2.246  -7.136  19.457  1.00  0.00     0.078 C
BRANCH  27  28
HETATM   28  C26 UNL     1       1.889  -7.468  18.070  1.00  0.00     0.123 C
HETATM   29  C27 UNL     1       1.151  -6.483  17.212  1.00  0.00     0.091 C
HETATM   30  O3  UNL     1       2.163  -8.524  17.564  1.00  0.00    -0.298 OA
ENDBRANCH  27  28
ENDBRANCH  26  27
ENDBRANCH  24  26
ENDBRANCH  23  24
BRANCH   3  31
HETATM   31  O1  UNL     1      -1.296  -7.571  24.075  1.00  0.00    -0.391 OA
ATOM     32  H1  UNL     1      -1.352  -8.082  23.276  1.00  0.00     0.210 HD
ENDBRANCH   3  31
BRANCH  17  33
HETATM   33  O2  UNL     1      -7.386  -4.015  22.747  1.00  0.00    -0.290 OA
ATOM     34  H2  UNL     1      -7.719  -4.880  22.540  1.00  0.00     0.244 HD
ENDBRANCH  17  33
TORSDOF 6
ENDMDL