MODEL 4
REMARK VINA RESULT: -7.783295893      1.743      3.074
REMARK  6 active torsions:
REMARK  status: ('A' for Active; 'I' for Inactive)
REMARK    1  A    between atoms: C2_2  and  C24_28
REMARK    2  A    between atoms: C3_3  and  C4_4
REMARK    3  A    between atoms: C4_4  and  C5_5
REMARK    4  A    between atoms: C17_17  and  C18_18
REMARK    5  A    between atoms: C22_24  and  O1_25
REMARK    6  A    between atoms: C24_28  and  O2_29
ROOT
HETATM    1  C5  UNL     1      -0.075  -5.351  18.719  1.00  0.00    -0.003 C
HETATM    2  C6  UNL     1      -0.498  -4.057  18.045  1.00  0.00     0.009 C
HETATM    3  C7  UNL     1      -1.921  -3.791  18.475  1.00  0.00     0.028 C
HETATM    4  C8  UNL     1      -2.109  -3.979  19.931  1.00  0.00    -0.023 C
HETATM    5  C9  UNL     1      -1.277  -4.568  20.759  1.00  0.00    -0.072 C
HETATM    6  C10 UNL     1       0.009  -5.117  20.185  1.00  0.00     0.019 C
HETATM    7  C11 UNL     1       0.367  -6.340  20.973  1.00  0.00     0.010 C
HETATM    8  C12 UNL     1      -0.890  -7.006  21.494  1.00  0.00     0.010 C
HETATM    9  C13 UNL     1      -1.521  -6.190  22.602  1.00  0.00    -0.034 C
HETATM   10  C14 UNL     1      -0.703  -6.442  23.877  1.00  0.00     0.016 C
HETATM   11  C15 UNL     1      -2.888  -6.715  22.853  1.00  0.00     0.010 C
HETATM   12  C16 UNL     1      -3.714  -5.775  23.732  1.00  0.00     0.009 C
HETATM   13  C17 UNL     1      -3.883  -4.518  22.808  1.00  0.00     0.030 C
HETATM   14  C22 UNL     1      -2.527  -3.907  22.849  1.00  0.00     0.132 C
HETATM   15  C23 UNL     1      -1.460  -4.748  22.205  1.00  0.00     0.052 C
ENDROOT
BRANCH   1  16
HETATM   16  C4  UNL     1       1.355  -5.599  18.222  1.00  0.00     0.032 C
BRANCH  16  17
HETATM   17  C3  UNL     1       1.326  -6.679  17.203  1.00  0.00    -0.022 C
HETATM   18  C2  UNL     1       1.790  -7.892  17.415  1.00  0.00    -0.064 C
HETATM   19  C1  UNL     1       2.381  -8.230  18.733  1.00  0.00     0.045 C
BRANCH  18  20
HETATM   20  C24 UNL     1       1.734  -8.932  16.354  1.00  0.00     0.197 C
BRANCH  20  21
HETATM   21  O2  UNL     1       1.865 -10.223  16.889  1.00  0.00    -0.397 OA
ATOM     22  H2  UNL     1       1.512 -10.274  17.770  1.00  0.00     0.209 HD
ENDBRANCH  20  21
ENDBRANCH  18  20
ENDBRANCH  16  17
ENDBRANCH   1  16
BRANCH  14  23
HETATM   23  O1  UNL     1      -2.377  -2.608  22.486  1.00  0.00    -0.394 OA
ATOM     24  H1  UNL     1      -1.595  -2.347  22.014  1.00  0.00     0.210 HD
ENDBRANCH  14  23
BRANCH  13  25
HETATM   25  C18 UNL     1      -4.956  -3.659  23.350  1.00  0.00     0.066 C
HETATM   26  C19 UNL     1      -5.654  -4.260  24.499  1.00  0.00     0.032 C
HETATM   27  C20 UNL     1      -6.765  -3.316  24.940  1.00  0.00     0.055 C
HETATM   28  C21 UNL     1      -7.564  -4.057  25.990  1.00  0.00     0.022 C
HETATM   29  S1  UNL     1      -7.856  -3.164  23.461  1.00  0.00    -0.093 SA
HETATM   30  S2  UNL     1      -6.244  -3.459  22.037  1.00  0.00    -0.092 SA
ENDBRANCH  13  25
TORSDOF 6
ENDMDL