MODEL 5
REMARK VINA RESULT: -6.124394788      2.508      4.866
REMARK  7 active torsions:
REMARK  status: ('A' for Active; 'I' for Inactive)
REMARK    1  A    between atoms: S1_2  and  C2_3
REMARK    2  A    between atoms: C4_5  and  C5_6
REMARK    3  A    between atoms: C5_6  and  C6_7
REMARK    4  A    between atoms: C22_23  and  O1_24
REMARK    5  A    between atoms: C23_26  and  C24_27
REMARK    6  A    between atoms: C24_27  and  O2_28
REMARK    7  A    between atoms: C25_30  and  O3_32
ROOT
HETATM    1  C6  UNL     1       8.225 -14.426  22.402  1.00  0.00     0.032 C
HETATM    2  C7  UNL     1       7.242 -13.319  22.220  1.00  0.00    -0.037 C
HETATM    3  C8  UNL     1       7.461 -12.152  23.162  1.00  0.00     0.015 C
HETATM    4  C9  UNL     1       5.890 -13.882  22.615  1.00  0.00     0.014 C
HETATM    5  C10 UNL     1       4.833 -13.756  21.586  1.00  0.00     0.036 C
HETATM    6  C11 UNL     1       5.037 -14.467  20.295  1.00  0.00    -0.069 C
HETATM    7  C12 UNL     1       5.203 -13.574  19.072  1.00  0.00     0.035 C
HETATM    8  C13 UNL     1       6.629 -13.748  18.588  1.00  0.00     0.010 C
HETATM    9  C14 UNL     1       7.611 -13.515  19.679  1.00  0.00     0.002 C
HETATM   10  C15 UNL     1       7.251 -12.749  20.835  1.00  0.00     0.015 C
HETATM   11  C16 UNL     1       8.337 -14.893  19.920  1.00  0.00     0.020 C
HETATM   12  C17 UNL     1       9.258 -14.903  18.759  1.00  0.00     0.024 C
HETATM   13  C18 UNL     1       7.279 -15.884  20.042  1.00  0.00    -0.021 A
HETATM   14  C19 UNL     1       5.897 -15.637  20.281  1.00  0.00    -0.025 A
HETATM   15  C20 UNL     1       5.047 -16.739  20.463  1.00  0.00     0.015 A
HETATM   16  C21 UNL     1       5.446 -18.042  20.424  1.00  0.00     0.038 A
HETATM   17  C22 UNL     1       6.757 -18.282  20.189  1.00  0.00     0.078 A
HETATM   18  C23 UNL     1       7.646 -17.206  20.001  1.00  0.00     0.027 A
HETATM   19  C25 UNL     1       9.137 -14.566  21.166  1.00  0.00     0.071 C
HETATM   20  C26 UNL     1      10.281 -15.358  21.597  1.00  0.00     0.047 C
ENDROOT
BRANCH   1  21
HETATM   21  C5  UNL     1       8.942 -14.544  23.687  1.00  0.00     0.036 C
BRANCH  21  22
HETATM   22  C4  UNL     1       8.203 -15.238  24.769  1.00  0.00    -0.013 C
HETATM   23  C2  UNL     1       7.948 -16.515  24.722  1.00  0.00    -0.030 C
HETATM   24  C3  UNL     1       8.314 -17.392  23.590  1.00  0.00     0.055 C
BRANCH  23  25
HETATM   25  S1  UNL     1       7.046 -17.276  26.089  1.00  0.00    -0.140 SA
HETATM   26  C1  UNL     1       5.311 -16.751  26.085  1.00  0.00     0.095 C
ENDBRANCH  23  25
ENDBRANCH  21  22
ENDBRANCH   1  21
BRANCH  19  27
HETATM   27  O3  UNL     1       9.693 -13.278  20.863  1.00  0.00    -0.389 OA
ATOM     28  H3  UNL     1       9.719 -12.766  21.662  1.00  0.00     0.210 HD
ENDBRANCH  19  27
BRANCH  18  29
HETATM   29  C24 UNL     1       8.949 -17.606  19.655  1.00  0.00     0.146 C
BRANCH  29  30
HETATM   30  O2  UNL     1       9.152 -18.369  18.615  1.00  0.00    -0.372 OA
ATOM     31  H2  UNL     1       9.587 -18.025  17.844  1.00  0.00     0.216 HD
ENDBRANCH  29  30
ENDBRANCH  18  29
BRANCH  17  32
HETATM   32  O1  UNL     1       7.235 -19.620  20.134  1.00  0.00    -0.360 OA
ATOM     33  H1  UNL     1       8.114 -19.797  19.822  1.00  0.00     0.217 HD
ENDBRANCH  17  32
TORSDOF 7
ENDMDL