MODEL 5
REMARK VINA RESULT: -7.236117904      1.803      5.828
REMARK  8 active torsions:
REMARK  status: ('A' for Active; 'I' for Inactive)
REMARK    1  A    between atoms: C4_4  and  C6_6
REMARK    2  A    between atoms: C6_6  and  C7_7
REMARK    3  A    between atoms: C6_6  and  C12_14
REMARK    4  A    between atoms: C7_7  and  O2_9
REMARK    5  A    between atoms: O2_9  and  C8_10
REMARK    6  A    between atoms: C15_17  and  C16_18
REMARK    7  A    between atoms: C16_18  and  O3_19
REMARK    8  A    between atoms: C17_21  and  O4_22
ROOT
HETATM    1  C12 UNL     1      -1.662  -6.822  22.253  1.00  0.00    -0.002 C
HETATM    2  C13 UNL     1      -2.392  -8.185  22.462  1.00  0.00     0.021 C
HETATM    3  C14 UNL     1      -1.805  -6.194  23.643  1.00  0.00     0.024 C
HETATM    4  C15 UNL     1      -1.515  -4.727  23.634  1.00  0.00     0.039 C
HETATM    5  C17 UNL     1      -2.628  -4.130  22.748  1.00  0.00     0.130 C
HETATM    6  C18 UNL     1      -2.209  -4.542  21.320  1.00  0.00     0.032 C
HETATM    7  C19 UNL     1      -2.951  -3.678  20.397  1.00  0.00    -0.041 C
HETATM    8  C20 UNL     1      -2.419  -2.245  20.517  1.00  0.00     0.015 C
HETATM    9  C21 UNL     1      -2.959  -3.958  18.934  1.00  0.00     0.015 C
HETATM   10  C22 UNL     1      -4.407  -3.757  20.861  1.00  0.00     0.009 C
HETATM   11  C23 UNL     1      -4.811  -5.175  20.871  1.00  0.00     0.002 C
HETATM   12  C24 UNL     1      -3.954  -6.181  21.522  1.00  0.00     0.011 C
HETATM   13  C25 UNL     1      -2.429  -6.026  21.241  1.00  0.00    -0.026 C
HETATM   14  C26 UNL     1      -2.314  -6.665  19.905  1.00  0.00     0.016 C
ENDROOT
BRANCH   1  15
HETATM   15  C6  UNL     1      -0.276  -7.277  22.041  1.00  0.00     0.032 C
BRANCH  15  16
HETATM   16  C4  UNL     1       0.708  -6.707  21.133  1.00  0.00    -0.047 C
HETATM   17  C2  UNL     1       1.570  -7.320  20.352  1.00  0.00    -0.081 C
HETATM   18  C1  UNL     1       2.419  -6.575  19.365  1.00  0.00     0.043 C
HETATM   19  C3  UNL     1       1.819  -8.771  20.345  1.00  0.00     0.043 C
HETATM   20  C5  UNL     1       0.750  -5.204  20.847  1.00  0.00     0.049 C
ENDBRANCH  15  16
BRANCH  15  21
HETATM   21  C7  UNL     1       0.413  -7.809  23.269  1.00  0.00     0.291 C
HETATM   22  O1  UNL     1       1.298  -7.070  23.869  1.00  0.00    -0.260 OA
BRANCH  21  23
HETATM   23  O2  UNL     1       0.247  -9.002  23.873  1.00  0.00    -0.307 OA
BRANCH  23  24
HETATM   24  C8  UNL     1      -0.135  -9.414  25.111  1.00  0.00     0.060 C
HETATM   25  C9  UNL     1       1.072 -10.082  25.805  1.00  0.00     0.046 C
HETATM   26  C10 UNL     1      -0.696  -8.462  26.089  1.00  0.00     0.046 C
HETATM   27  C11 UNL     1      -1.153 -10.566  25.001  1.00  0.00     0.046 C
ENDBRANCH  23  24
ENDBRANCH  21  23
ENDBRANCH  15  21
ENDBRANCH   1  15
BRANCH   4  28
HETATM   28  C16 UNL     1      -1.667  -4.193  25.013  1.00  0.00     0.171 C
BRANCH  28  29
HETATM   29  O3  UNL     1      -2.283  -5.133  25.827  1.00  0.00    -0.400 OA
ATOM     30  H3  UNL     1      -3.139  -4.823  26.098  1.00  0.00     0.209 HD
ENDBRANCH  28  29
ENDBRANCH   4  28
BRANCH   5  31
HETATM   31  O4  UNL     1      -2.539  -2.797  22.993  1.00  0.00    -0.395 OA
ATOM     32  H4  UNL     1      -1.900  -2.746  23.694  1.00  0.00     0.210 HD
ENDBRANCH   5  31
TORSDOF 8
ENDMDL