MODEL 4
REMARK VINA RESULT: -7.736270634     11.681     13.617
REMARK  7 active torsions:
REMARK  status: ('A' for Active; 'I' for Inactive)
REMARK    1  A    between atoms: C2_2  and  C4_4
REMARK    2  A    between atoms: C4_4  and  C5_5
REMARK    3  A    between atoms: C5_5  and  C6_6
REMARK    4  A    between atoms: C13_13  and  O1_14
REMARK    5  A    between atoms: C19_21  and  O2_22
REMARK    6  A    between atoms: O2_22  and  C20_23
REMARK    7  A    between atoms: N1_25  and  O3_27
ROOT
HETATM    1  C6  UNL     1       3.932 -14.175  14.482  1.00  0.00     0.014 C
HETATM    2  C7  UNL     1       3.825 -13.097  15.471  1.00  0.00     0.009 C
HETATM    3  C8  UNL     1       5.224 -12.911  16.150  1.00  0.00     0.007 C
HETATM    4  C9  UNL     1       5.460 -14.211  16.820  1.00  0.00     0.005 C
HETATM    5  C10 UNL     1       6.099 -15.050  15.723  1.00  0.00     0.019 C
HETATM    6  C11 UNL     1       6.463 -16.414  16.142  1.00  0.00     0.012 C
HETATM    7  C12 UNL     1       7.343 -16.321  17.407  1.00  0.00     0.040 C
HETATM    8  C13 UNL     1       6.537 -15.603  18.466  1.00  0.00     0.073 C
HETATM    9  C14 UNL     1       6.847 -15.907  19.861  1.00  0.00    -0.010 C
HETATM   10  C15 UNL     1       5.622 -16.228  20.742  1.00  0.00     0.018 C
HETATM   11  C16 UNL     1       7.532 -17.306  19.816  1.00  0.00     0.018 C
HETATM   12  C17 UNL     1       7.759 -15.096  20.666  1.00  0.00     0.022 C
HETATM   13  C18 UNL     1       9.245 -15.432  20.402  1.00  0.00     0.013 C
HETATM   14  C19 UNL     1       7.634 -13.636  20.729  1.00  0.00     0.135 C
HETATM   15  C22 UNL     1       6.412 -12.982  20.281  1.00  0.00     0.034 C
HETATM   16  C23 UNL     1       5.596 -13.499  19.175  1.00  0.00     0.015 C
HETATM   17  C24 UNL     1       6.352 -14.172  18.057  1.00  0.00    -0.008 C
HETATM   18  C25 UNL     1       7.553 -13.402  17.661  1.00  0.00     0.019 C
HETATM   19  C26 UNL     1       5.200 -14.981  14.563  1.00  0.00    -0.081 C
HETATM   20  C27 UNL     1       5.517 -15.678  13.488  1.00  0.00     0.015 C
ENDROOT
BRANCH  14  21
HETATM   21  O2  UNL     1       7.838 -13.244  22.104  1.00  0.00    -0.332 OA
BRANCH  21  22
HETATM   22  C20 UNL     1       7.733 -11.976  22.580  1.00  0.00     0.133 C
HETATM   23  C21 UNL     1       6.619 -11.571  23.472  1.00  0.00     0.099 C
HETATM   24  N1  UNL     1       8.663 -11.147  22.210  1.00  0.00    -0.251 N
ATOM     25  H1  UNL     1       9.402 -11.490  21.597  1.00  0.00     0.196 HD
BRANCH  24  26
HETATM   26  O3  UNL     1       8.698  -9.847  22.602  1.00  0.00    -0.288 OA
ATOM     27  H3  UNL     1       8.878  -9.129  22.006  1.00  0.00     0.244 HD
ENDBRANCH  24  26
ENDBRANCH  21  22
ENDBRANCH  14  21
BRANCH   8  28
HETATM   28  O1  UNL     1       5.242 -16.186  18.280  1.00  0.00    -0.388 OA
ATOM     29  H1  UNL     1       4.933 -15.717  17.514  1.00  0.00     0.210 HD
ENDBRANCH   8  28
BRANCH   1  30
HETATM   30  C5  UNL     1       2.822 -15.122  14.273  1.00  0.00     0.013 C
BRANCH  30  31
HETATM   31  C4  UNL     1       2.599 -15.685  12.915  1.00  0.00     0.033 C
BRANCH  31  32
HETATM   32  C2  UNL     1       2.238 -14.691  11.916  1.00  0.00    -0.093 C
HETATM   33  C1  UNL     1       2.981 -14.450  10.856  1.00  0.00     0.014 C
HETATM   34  C3  UNL     1       0.933 -13.963  12.099  1.00  0.00     0.042 C
ENDBRANCH  31  32
ENDBRANCH  30  31
ENDBRANCH   1  30
TORSDOF 7
ENDMDL