MODEL 3
REMARK VINA RESULT: -8.103082865      1.748      2.548
REMARK  6 active torsions:
REMARK  status: ('A' for Active; 'I' for Inactive)
REMARK    1  A    between atoms: C2_2  and  O1_3
REMARK    2  A    between atoms: C4_6  and  C5_7
REMARK    3  A    between atoms: C5_7  and  C6_8
REMARK    4  A    between atoms: N1_9  and  O2_11
REMARK    5  A    between atoms: O2_11  and  C7_12
REMARK    6  A    between atoms: C15_20  and  O3_22
ROOT
HETATM    1  C5  UNL     1       5.629 -13.287  19.515  1.00  0.00     0.052 C
ENDROOT
BRANCH   1   2
HETATM    2  C4  UNL     1       6.020 -14.380  20.424  1.00  0.00     0.002 C
HETATM    3  C3  UNL     1       6.806 -15.392  19.574  1.00  0.00     0.043 C
HETATM    4  C2  UNL     1       8.258 -15.126  19.513  1.00  0.00     0.055 C
HETATM    5  C1  UNL     1       8.861 -16.220  18.619  1.00  0.00     0.045 C
HETATM    6  C26 UNL     1       8.818 -15.186  20.916  1.00  0.00     0.043 C
HETATM    7  C25 UNL     1       7.801 -15.036  21.998  1.00  0.00     0.005 C
HETATM    8  C17 UNL     1       6.696 -14.046  21.709  1.00  0.00    -0.036 C
HETATM    9  C22 UNL     1       8.546 -14.798  23.285  1.00  0.00    -0.043 C
HETATM   10  C18 UNL     1       5.634 -14.283  22.803  1.00  0.00     0.016 C
HETATM   11  C19 UNL     1       7.136 -12.629  21.839  1.00  0.00     0.010 C
HETATM   12  C20 UNL     1       8.331 -12.414  22.734  1.00  0.00     0.002 C
HETATM   13  C21 UNL     1       8.419 -13.419  23.848  1.00  0.00     0.009 C
HETATM   14  C23 UNL     1      10.059 -15.043  23.123  1.00  0.00     0.015 C
HETATM   15  C24 UNL     1       8.100 -15.763  24.381  1.00  0.00     0.015 C
BRANCH   4  16
HETATM   16  O1  UNL     1       8.637 -13.929  18.932  1.00  0.00    -0.390 OA
ATOM     17  H1  UNL     1       8.686 -13.307  19.649  1.00  0.00     0.210 HD
ENDBRANCH   4  16
ENDBRANCH   1   2
BRANCH   1  18
HETATM   18  C6  UNL     1       5.244 -13.734  18.156  1.00  0.00     0.087 C
HETATM   19  N1  UNL     1       4.642 -12.941  17.334  1.00  0.00    -0.279 N
ATOM     20  H1  UNL     1       4.423 -11.987  17.618  1.00  0.00     0.193 HD
BRANCH  19  21
HETATM   21  O2  UNL     1       4.296 -13.379  16.083  1.00  0.00    -0.248 OA
BRANCH  21  22
HETATM   22  C7  UNL     1       4.934 -14.552  15.592  1.00  0.00     0.288 C
HETATM   23  C8  UNL     1       6.100 -14.064  14.732  1.00  0.00     0.064 C
HETATM   24  C9  UNL     1       5.473 -13.132  13.693  1.00  0.00     0.015 C
HETATM   25  C10 UNL     1       4.419 -13.920  12.978  1.00  0.00     0.049 C
HETATM   26  C11 UNL     1       3.406 -14.506  13.954  1.00  0.00     0.131 C
HETATM   27  C15 UNL     1       3.658 -13.129  11.965  1.00  0.00     0.060 C
HETATM   28  C12 UNL     1       2.364 -15.218  13.126  1.00  0.00     0.032 C
HETATM   29  O4  UNL     1       4.061 -15.334  14.841  1.00  0.00    -0.353 OA
HETATM   30  C13 UNL     1       2.792 -15.409  11.698  1.00  0.00     0.006 C
HETATM   31  C14 UNL     1       3.065 -14.128  10.973  1.00  0.00     0.038 C
HETATM   32  C16 UNL     1       4.509 -12.108  11.258  1.00  0.00     0.046 C
BRANCH  27  33
HETATM   33  O3  UNL     1       2.551 -12.515  12.582  1.00  0.00    -0.390 OA
ATOM     34  H3  UNL     1       1.774 -12.655  12.053  1.00  0.00     0.210 HD
ENDBRANCH  27  33
ENDBRANCH  21  22
ENDBRANCH  19  21
ENDBRANCH   1  18
TORSDOF 6
ENDMDL