MODEL 5
REMARK VINA RESULT: -6.924507809      1.555      1.955
REMARK  6 active torsions:
REMARK  status: ('A' for Active; 'I' for Inactive)
REMARK    1  A    between atoms: C2_2  and  C3_3
REMARK    2  A    between atoms: C3_3  and  C26_32
REMARK    3  A    between atoms: C4_4  and  C5_5
REMARK    4  A    between atoms: C8_8  and  O1_9
REMARK    5  A    between atoms: N1_11  and  C9_12
REMARK    6  A    between atoms: C15_18  and  O2_19
ROOT
HETATM    1  C5  UNL     1       5.683 -14.959  18.831  1.00  0.00     0.052 C
HETATM    2  C6  UNL     1       6.490 -16.175  19.220  1.00  0.00     0.012 A
HETATM    3  C7  UNL     1       7.751 -15.835  19.587  1.00  0.00     0.016 A
HETATM    4  C8  UNL     1       8.396 -17.009  19.918  1.00  0.00     0.152 A
HETATM    5  N1  UNL     1       7.579 -18.062  19.770  1.00  0.00    -0.303 N
HETATM    6  C15 UNL     1       6.423 -17.564  19.346  1.00  0.00     0.152 A
HETATM    7  C16 UNL     1       7.925 -14.354  19.486  1.00  0.00     0.099 C
HETATM    8  C17 UNL     1       8.486 -13.798  20.756  1.00  0.00     0.140 C
HETATM    9  O3  UNL     1       9.520 -14.080  21.315  1.00  0.00    -0.297 OA
HETATM   10  C18 UNL     1       7.505 -12.796  21.226  1.00  0.00     0.064 C
HETATM   11  C19 UNL     1       7.545 -12.530  22.683  1.00  0.00     0.040 C
HETATM   12  C20 UNL     1       6.222 -11.934  23.085  1.00  0.00    -0.024 C
HETATM   13  C21 UNL     1       5.138 -11.974  22.361  1.00  0.00    -0.087 C
HETATM   14  C22 UNL     1       3.900 -11.320  22.930  1.00  0.00     0.043 C
HETATM   15  C23 UNL     1       5.029 -12.620  21.009  1.00  0.00     0.039 C
HETATM   16  C24 UNL     1       6.202 -13.509  20.831  1.00  0.00     0.007 C
HETATM   17  C25 UNL     1       6.523 -13.834  19.395  1.00  0.00     0.019 C
ENDROOT
BRANCH   1  18
HETATM   18  C4  UNL     1       5.722 -14.877  17.364  1.00  0.00    -0.014 C
HETATM   19  C3  UNL     1       5.264 -13.885  16.627  1.00  0.00    -0.084 C
BRANCH  19  20
HETATM   20  C2  UNL     1       4.642 -12.715  17.257  1.00  0.00     0.029 C
HETATM   21  C1  UNL     1       3.873 -11.858  16.274  1.00  0.00     0.010 C
ENDBRANCH  19  20
BRANCH  19  22
HETATM   22  C26 UNL     1       5.398 -13.989  15.138  1.00  0.00     0.029 C
HETATM   23  C27 UNL     1       4.689 -15.260  14.723  1.00  0.00     0.010 C
ENDBRANCH  19  22
ENDBRANCH   1  18
BRANCH   6  24
HETATM   24  O2  UNL     1       5.226 -18.234  19.035  1.00  0.00    -0.345 OA
ATOM     25  H2  UNL     1       4.890 -18.896  19.628  1.00  0.00     0.219 HD
ENDBRANCH   6  24
BRANCH   4  26
HETATM   26  O1  UNL     1       9.731 -17.012  20.345  1.00  0.00    -0.345 OA
ATOM     27  H1  UNL     1       9.970 -17.292  21.220  1.00  0.00     0.219 HD
ENDBRANCH   4  26
BRANCH   5  28
HETATM   28  C9  UNL     1       7.873 -19.427  20.009  1.00  0.00     0.094 C
HETATM   29  C10 UNL     1       7.198 -20.391  19.031  1.00  0.00     0.026 C
HETATM   30  C11 UNL     1       7.655 -20.121  17.615  1.00  0.00     0.002 C
HETATM   31  C12 UNL     1       9.128 -20.556  17.576  1.00  0.00     0.000 C
HETATM   32  C13 UNL     1       9.853 -19.548  18.479  1.00  0.00     0.002 C
HETATM   33  C14 UNL     1       9.340 -19.786  19.887  1.00  0.00     0.026 C
ENDBRANCH   5  28
TORSDOF 6
ENDMDL