MODEL 2
REMARK VINA RESULT: -9.165267103      1.450      1.941
REMARK  6 active torsions:
REMARK  status: ('A' for Active; 'I' for Inactive)
REMARK    1  A    between atoms: C14_15  and  C15_16
REMARK    2  A    between atoms: C15_16  and  C16_17
REMARK    3  A    between atoms: C16_17  and  O2_18
REMARK    4  A    between atoms: C16_17  and  C17_20
REMARK    5  A    between atoms: C19_22  and  O3_23
REMARK    6  A    between atoms: N1_25  and  C20_26
ROOT
HETATM    1  C15 UNL     1       7.093 -14.872  17.532  1.00  0.00     0.048 C
ENDROOT
BRANCH   1   2
HETATM    2  C14 UNL     1       7.122 -14.861  19.021  1.00  0.00    -0.012 C
HETATM    3  C4  UNL     1       8.228 -15.572  19.686  1.00  0.00     0.003 C
HETATM    4  C3  UNL     1       7.617 -16.684  20.493  1.00  0.00     0.010 C
HETATM    5  C5  UNL     1       9.152 -14.696  20.519  1.00  0.00     0.024 C
HETATM    6  C2  UNL     1       6.152 -16.770  20.133  1.00  0.00    -0.017 C
HETATM    7  C1  UNL     1       5.839 -17.978  19.279  1.00  0.00     0.010 C
HETATM    8  C27 UNL     1       5.798 -15.483  19.467  1.00  0.00     0.016 C
HETATM    9  C6  UNL     1      10.211 -15.509  21.162  1.00  0.00     0.035 C
HETATM   10  C12 UNL     1       8.399 -13.773  21.439  1.00  0.00     0.134 C
HETATM   11  C7  UNL     1      10.421 -15.308  22.603  1.00  0.00    -0.023 C
HETATM   12  C8  UNL     1       9.565 -14.728  23.409  1.00  0.00    -0.077 C
HETATM   13  C9  UNL     1       9.080 -14.220  24.722  1.00  0.00     0.035 C
HETATM   14  C11 UNL     1       8.278 -14.226  22.845  1.00  0.00     0.044 C
HETATM   15  C10 UNL     1       8.389 -13.115  23.904  1.00  0.00     0.016 C
HETATM   16  O1  UNL     1       7.120 -13.532  20.940  1.00  0.00    -0.384 OA
HETATM   17  C13 UNL     1       7.125 -13.417  19.552  1.00  0.00     0.178 C
ENDBRANCH   1   2
BRANCH   1  18
HETATM   18  C16 UNL     1       6.350 -13.806  16.834  1.00  0.00     0.153 C
BRANCH  18  19
HETATM   19  O2  UNL     1       7.105 -12.957  16.069  1.00  0.00    -0.391 OA
ATOM     20  H2  UNL     1       6.777 -12.069  15.992  1.00  0.00     0.210 HD
ENDBRANCH  18  19
BRANCH  18  21
HETATM   21  C17 UNL     1       5.405 -14.505  15.879  1.00  0.00    -0.010 A
HETATM   22  C18 UNL     1       5.127 -15.855  15.912  1.00  0.00     0.067 A
HETATM   23  C19 UNL     1       4.229 -16.130  14.898  1.00  0.00     0.142 A
HETATM   24  N1  UNL     1       3.975 -14.966  14.270  1.00  0.00    -0.333 N
HETATM   25  C26 UNL     1       4.681 -13.980  14.856  1.00  0.00     0.103 A
BRANCH  23  26
HETATM   26  O3  UNL     1       3.709 -17.388  14.611  1.00  0.00    -0.346 OA
ATOM     27  H3  UNL     1       3.425 -17.678  13.752  1.00  0.00     0.219 HD
ENDBRANCH  23  26
BRANCH  24  28
HETATM   28  C20 UNL     1       3.095 -14.756  13.146  1.00  0.00     0.091 C
HETATM   29  C21 UNL     1       1.996 -13.785  13.434  1.00  0.00     0.026 C
HETATM   30  C22 UNL     1       1.002 -13.817  12.298  1.00  0.00     0.002 C
HETATM   31  C23 UNL     1       1.459 -14.736  11.182  1.00  0.00     0.000 C
HETATM   32  C24 UNL     1       2.869 -14.442  10.739  1.00  0.00     0.002 C
HETATM   33  C25 UNL     1       3.811 -14.329  11.908  1.00  0.00     0.026 C
ENDBRANCH  24  28
ENDBRANCH  18  21
ENDBRANCH   1  18
TORSDOF 6
ENDMDL