MODEL 1
REMARK VINA RESULT: -8.652596772      0.000      0.000
REMARK  14 active torsions:
REMARK  status: ('A' for Active; 'I' for Inactive)
REMARK    1  A    between atoms: C3_6  and  O1_7
REMARK    2  A    between atoms: O1_7  and  C4_8
REMARK    3  A    between atoms: C4_8  and  C5_9
REMARK    4  A    between atoms: C4_8  and  C6_12
REMARK    5  A    between atoms: C5_9  and  O2_10
REMARK    6  A    between atoms: C6_12  and  N2_13
REMARK    7  A    between atoms: C6_12  and  O3_17
REMARK    8  A    between atoms: C7_20  and  C8_21
REMARK    9  A    between atoms: C9_26  and  C10_27
REMARK   10  A    between atoms: C11_28  and  N5_29
REMARK   11  A    between atoms: C14_37  and  C15_38
REMARK   12  A    between atoms: C15_38  and  N9_39
REMARK   13  A    between atoms: C15_38  and  C16_43
REMARK   14  A    between atoms: C18_51  and  N12_52
ROOT
HETATM    1  C8  UNL     1      -3.589   9.766  56.240  1.00  0.00     0.154 A
HETATM    2  N3  UNL     1      -3.586   8.463  56.453  1.00  0.00    -0.283 N
ATOM      3  H3  UNL     1      -3.317   7.739  55.787  1.00  0.00     0.188 HD
HETATM    4  N4  UNL     1      -4.006   8.273  57.720  1.00  0.00    -0.283 N
ATOM      5  H4  UNL     1      -4.102   7.356  58.157  1.00  0.00     0.188 HD
HETATM    6  C9  UNL     1      -4.276   9.410  58.327  1.00  0.00     0.139 A
HETATM    7  N13 UNL     1      -4.006  10.353  57.370  1.00  0.00    -0.325 N
ATOM      8  H13 UNL     1      -4.108  11.359  57.501  1.00  0.00     0.169 HD
ENDROOT
BRANCH   6   9
HETATM    9  C10 UNL     1      -4.730   9.784  59.675  1.00  0.00     0.097 A
HETATM   10  C11 UNL     1      -5.983  10.070  60.041  1.00  0.00     0.125 A
HETATM   11  N10 UNL     1      -6.270  10.471  61.300  1.00  0.00    -0.338 N
HETATM   12  C17 UNL     1      -5.305  10.591  62.222  1.00  0.00     0.183 A
ATOM     13  H10 UNL     1      -7.235  10.685  61.551  1.00  0.00     0.168 HD
HETATM   14  N11 UNL     1      -4.023  10.316  61.920  1.00  0.00    -0.338 N
HETATM   15  C18 UNL     1      -3.749   9.923  60.677  1.00  0.00     0.117 A
ATOM     16  H11 UNL     1      -3.286  10.406  62.620  1.00  0.00     0.168 HD
BRANCH  10  17
HETATM   17  N5  UNL     1      -7.156   9.897  59.207  1.00  0.00    -0.326 N
HETATM   18  C12 UNL     1      -7.689  11.199  58.793  1.00  0.00     0.252 C
HETATM   19  N6  UNL     1      -8.607  11.009  57.702  1.00  0.00    -0.348 N
HETATM   20  C13 UNL     1      -9.546   9.900  57.834  1.00  0.00     0.186 C
ATOM     21  H6  UNL     1      -8.602  11.616  56.882  1.00  0.00     0.163 HD
HETATM   22  N7  UNL     1     -10.861  10.125  57.378  1.00  0.00    -0.064 NA
HETATM   23  N8  UNL     1      -9.092   8.813  58.346  1.00  0.00    -0.341 N
HETATM   24  C14 UNL     1      -7.694   8.685  58.777  1.00  0.00     0.230 C
ATOM     25  H8  UNL     1      -9.720   8.016  58.457  1.00  0.00     0.164 HD
BRANCH  24  26
HETATM   26  C15 UNL     1      -7.595   7.461  59.663  1.00  0.00     0.325 C
BRANCH  26  27
HETATM   27  N9  UNL     1      -9.049   7.041  59.762  1.00  0.00    -0.061 N
ATOM     28  H93 UNL     1      -9.590   7.141  58.903  1.00  0.00     0.275 HD
ATOM     29  H92 UNL     1      -9.207   6.038  59.854  1.00  0.00     0.275 HD
ATOM     30  H91 UNL     1      -9.371   7.607  60.547  1.00  0.00     0.275 HD
ENDBRANCH  26  27
BRANCH  26  31
HETATM   31  C16 UNL     1      -6.954   6.288  59.091  1.00  0.00     0.208 C
HETATM   32  O5  UNL     1      -6.236   6.440  58.049  1.00  0.00    -0.646 OA
HETATM   33  O6  UNL     1      -7.028   4.979  59.540  1.00  0.00    -0.646 OA
ENDBRANCH  26  31
ENDBRANCH  24  26
ENDBRANCH  10  17
BRANCH  15  34
HETATM   34  N12 UNL     1      -2.522   9.648  60.343  1.00  0.00    -0.385 N
ATOM     35 2H12 UNL     1      -2.225   8.675  60.261  1.00  0.00     0.157 HD
ATOM     36 1H12 UNL     1      -1.899  10.439  60.175  1.00  0.00     0.157 HD
ENDBRANCH  15  34
ENDBRANCH   6   9
BRANCH   1  37
HETATM   37  C7  UNL     1      -3.223  10.538  55.010  1.00  0.00     0.337 C
HETATM   38  O4  UNL     1      -2.270   9.929  54.240  1.00  0.00    -0.301 OA
HETATM   39  C3  UNL     1      -0.962  10.252  54.581  1.00  0.00     0.475 C
HETATM   40  N1  UNL     1      -0.728  11.652  54.701  1.00  0.00     0.001 N
HETATM   41  C2  UNL     1      -1.943  12.434  54.578  1.00  0.00     0.325 C
ATOM     42  H12 UNL     1      -0.022  11.964  54.034  1.00  0.00     0.286 HD
ATOM     43  H11 UNL     1      -0.240  11.868  55.569  1.00  0.00     0.286 HD
HETATM   44  C1  UNL     1      -1.639  13.794  55.180  1.00  0.00     0.071 C
HETATM   45  O7  UNL     1      -2.916  11.854  55.341  1.00  0.00    -0.321 OA
BRANCH  39  46
HETATM   46  O1  UNL     1      -0.101   9.733  53.620  1.00  0.00    -0.327 OA
BRANCH  46  47
HETATM   47  C4  UNL     1      -0.687   8.977  52.647  1.00  0.00     0.206 C
BRANCH  47  48
HETATM   48  C5  UNL     1       0.059   9.049  51.320  1.00  0.00     0.200 C
BRANCH  48  49
HETATM   49  O2  UNL     1       1.339   9.609  51.512  1.00  0.00    -0.398 OA
ATOM     50  H2  UNL     1       1.971   8.924  51.697  1.00  0.00     0.209 HD
ENDBRANCH  48  49
ENDBRANCH  47  48
BRANCH  47  51
HETATM   51  C6  UNL     1      -0.694   7.518  53.041  1.00  0.00     0.347 C
BRANCH  51  52
HETATM   52  N2  UNL     1       0.584   6.929  52.694  1.00  0.00    -0.051 N
ATOM     53  H23 UNL     1       0.558   6.450  51.794  1.00  0.00     0.277 HD
ATOM     54  H22 UNL     1       1.285   7.633  52.462  1.00  0.00     0.277 HD
ATOM     55  H21 UNL     1       0.884   6.316  53.452  1.00  0.00     0.277 HD
ENDBRANCH  51  52
BRANCH  51  56
HETATM   56  O3  UNL     1      -1.681   6.896  52.277  1.00  0.00    -0.368 OA
ATOM     57  H3  UNL     1      -1.576   5.960  52.399  1.00  0.00     0.212 HD
ENDBRANCH  51  56
ENDBRANCH  47  51
ENDBRANCH  46  47
ENDBRANCH  39  46
ENDBRANCH   1  37
TORSDOF 14
ENDMDL