MODEL 5
REMARK VINA RESULT: -6.291642758      3.320      7.072
REMARK  17 active torsions:
REMARK  status: ('A' for Active; 'I' for Inactive)
REMARK    1  A    between atoms: N1_1  and  C1_5
REMARK    2  A    between atoms: C1_5  and  C2_6
REMARK    3  A    between atoms: C3_8  and  O2_9
REMARK    4  A    between atoms: O2_9  and  C4_10
REMARK    5  A    between atoms: C4_10  and  O3_11
REMARK    6  A    between atoms: O3_11  and  O4_12
REMARK    7  A    between atoms: C5_15  and  S1_16
REMARK    8  A    between atoms: S1_16  and  C6_17
REMARK    9  A    between atoms: C6_17  and  C7_18
REMARK   10  A    between atoms: C9_20  and  O6_21
REMARK   11  A    between atoms: O6_21  and  C10_22
REMARK   12  A    between atoms: C12_30  and  O7_31
REMARK   13  A    between atoms: C13_34  and  N4_35
REMARK   14  A    between atoms: C15_40  and  N5_41
REMARK   15  A    between atoms: C16_45  and  N6_46
REMARK   16  A    between atoms: C17_50  and  O9_51
REMARK   17  A    between atoms: C18_53  and  O10_54
ROOT
HETATM    1  C4  UNL     1      -3.141  13.304  54.226  1.00  0.00     0.343 C
HETATM    2  O5  UNL     1      -4.150  12.507  53.773  1.00  0.00    -0.311 OA
HETATM    3  C5  UNL     1      -5.402  12.797  54.203  1.00  0.00     0.219 C
HETATM    4  C13 UNL     1      -5.620  14.046  54.968  1.00  0.00     0.224 C
HETATM    5  C14 UNL     1      -4.504  14.462  55.874  1.00  0.00     0.077 C
HETATM    6  C15 UNL     1      -3.253  13.618  55.711  1.00  0.00     0.280 C
ENDROOT
BRANCH   1   7
HETATM    7  O2  UNL     1      -1.875  12.817  53.951  1.00  0.00    -0.296 OA
BRANCH   7   8
HETATM    8  C3  UNL     1      -1.793  11.498  53.605  1.00  0.00     0.299 C
HETATM    9  O1  UNL     1      -1.185  10.837  54.677  1.00  0.00    -0.349 OA
HETATM   10  C2  UNL     1      -1.101   9.480  54.535  1.00  0.00     0.181 C
HETATM   11  C18 UNL     1      -1.302   9.047  53.122  1.00  0.00     0.179 C
HETATM   12  C17 UNL     1      -0.611   9.922  52.130  1.00  0.00     0.184 C
HETATM   13  C16 UNL     1      -0.938  11.369  52.357  1.00  0.00     0.269 C
BRANCH  10  14
HETATM   14  C1  UNL     1       0.182   8.983  55.157  1.00  0.00     0.264 C
BRANCH  14  15
HETATM   15  N1  UNL     1       1.239   9.944  55.139  1.00  0.00    -0.077 N
ATOM     16  H13 UNL     1       1.774   9.907  56.007  1.00  0.00     0.274 HD
ATOM     17  H12 UNL     1       1.966   9.668  54.480  1.00  0.00     0.274 HD
ATOM     18  H11 UNL     1       0.926  10.896  54.951  1.00  0.00     0.274 HD
ENDBRANCH  14  15
ENDBRANCH  10  14
BRANCH  11  19
HETATM   19  O10 UNL     1      -0.989   7.707  52.962  1.00  0.00    -0.390 OA
ATOM     20  H10 UNL     1      -0.900   7.484  52.043  1.00  0.00     0.210 HD
ENDBRANCH  11  19
BRANCH  12  21
HETATM   21  O9  UNL     1       0.774   9.758  52.155  1.00  0.00    -0.391 OA
ATOM     22  H9  UNL     1       1.076   9.537  51.282  1.00  0.00     0.210 HD
ENDBRANCH  12  21
BRANCH  13  23
HETATM   23  N6  UNL     1      -1.667  11.851  51.213  1.00  0.00    -0.068 N
ATOM     24  H63 UNL     1      -2.632  12.089  51.445  1.00  0.00     0.275 HD
ATOM     25  H62 UNL     1      -1.353  12.776  50.920  1.00  0.00     0.275 HD
ATOM     26  H61 UNL     1      -1.612  11.170  50.455  1.00  0.00     0.275 HD
ENDBRANCH  13  23
ENDBRANCH   7   8
ENDBRANCH   1   7
BRANCH   1  27
HETATM   27  O3  UNL     1      -3.176  14.564  53.571  1.00  0.00    -0.171 OA
BRANCH  27  28
HETATM   28  O4  UNL     1      -3.348  14.392  52.276  1.00  0.00    -0.245 OA
ATOM     29  H4  UNL     1      -3.657  15.198  51.881  1.00  0.00     0.253 HD
ENDBRANCH  27  28
ENDBRANCH   1  27
BRANCH   6  30
HETATM   30  N5  UNL     1      -2.142  14.428  56.115  1.00  0.00    -0.067 N
ATOM     31  H53 UNL     1      -1.248  14.016  55.847  1.00  0.00     0.275 HD
ATOM     32  H52 UNL     1      -2.075  15.289  55.571  1.00  0.00     0.275 HD
ATOM     33  H51 UNL     1      -2.198  14.609  57.117  1.00  0.00     0.275 HD
ENDBRANCH   6  30
BRANCH   3  34
HETATM   34  S1  UNL     1      -6.157  11.423  55.148  1.00  0.00    -0.133 SA
BRANCH  34  35
HETATM   35  C6  UNL     1      -4.896  10.281  55.752  1.00  0.00     0.108 C
BRANCH  35  36
HETATM   36  C7  UNL     1      -5.240   9.719  57.106  1.00  0.00     0.138 C
HETATM   37  C8  UNL     1      -6.478  10.297  57.754  1.00  0.00     0.093 C
HETATM   38  C9  UNL     1      -6.482   8.867  58.298  1.00  0.00     0.265 C
HETATM   39  O8  UNL     1      -5.944   8.491  57.044  1.00  0.00    -0.355 OA
BRANCH  38  40
HETATM   40  O6  UNL     1      -7.712   8.335  58.579  1.00  0.00    -0.325 OA
BRANCH  40  41
HETATM   41  C10 UNL     1      -7.557   7.368  59.567  1.00  0.00     0.382 C
HETATM   42  N2  UNL     1      -7.073   6.156  58.936  1.00  0.00    -0.021 N
HETATM   43  C11 UNL     1      -7.572   5.058  59.738  1.00  0.00     0.469 C
ATOM     44  H22 UNL     1      -7.322   6.083  57.950  1.00  0.00     0.282 HD
ATOM     45  H21 UNL     1      -6.061   6.140  58.811  1.00  0.00     0.282 HD
HETATM   46  N3  UNL     1      -8.726   5.539  60.467  1.00  0.00    -0.021 N
HETATM   47  C12 UNL     1      -8.861   6.957  60.191  1.00  0.00     0.377 C
ATOM     48  H32 UNL     1      -9.575   5.012  60.260  1.00  0.00     0.282 HD
ATOM     49  H31 UNL     1      -8.680   5.332  61.465  1.00  0.00     0.282 HD
BRANCH  47  50
HETATM   50  O7  UNL     1      -9.908   7.198  59.333  1.00  0.00    -0.366 OA
ATOM     51  H7  UNL     1     -10.246   8.078  59.454  1.00  0.00     0.212 HD
ENDBRANCH  47  50
ENDBRANCH  40  41
ENDBRANCH  38  40
ENDBRANCH  35  36
ENDBRANCH  34  35
ENDBRANCH   3  34
BRANCH   4  52
HETATM   52  N4  UNL     1      -6.073  15.155  54.121  1.00  0.00    -0.072 N
ATOM     53  H43 UNL     1      -5.534  15.198  53.257  1.00  0.00     0.274 HD
ATOM     54  H42 UNL     1      -6.996  14.965  53.731  1.00  0.00     0.274 HD
ATOM     55  H41 UNL     1      -6.058  16.052  54.608  1.00  0.00     0.274 HD
ENDBRANCH   4  52
TORSDOF 17
ENDMDL