MODEL 3
REMARK VINA RESULT: -7.307188194      1.915      2.784
REMARK  18 active torsions:
REMARK  status: ('A' for Active; 'I' for Inactive)
REMARK    1  A    between atoms: N1_1  and  N2_4
REMARK    2  A    between atoms: N2_4  and  N3_6
REMARK    3  A    between atoms: N3_6  and  C1_8
REMARK    4  A    between atoms: C2_10  and  O2_11
REMARK    5  A    between atoms: O2_11  and  C3_12
REMARK    6  A    between atoms: C4_14  and  C5_15
REMARK    7  A    between atoms: C5_15  and  O4_16
REMARK    8  A    between atoms: C6_18  and  O5_19
REMARK    9  A    between atoms: C7_21  and  O6_22
REMARK   10  A    between atoms: O6_22  and  C8_23
REMARK   11  A    between atoms: C12_27  and  O7_28
REMARK   12  A    between atoms: C13_30  and  O8_31
REMARK   13  A    between atoms: C13_30  and  C14_33
REMARK   14  A    between atoms: C14_33  and  O9_34
REMARK   15  A    between atoms: C16_38  and  O11_39
REMARK   16  A    between atoms: C17_42  and  C18_43
REMARK   17  A    between atoms: C18_43  and  O13_44
REMARK   18  A    between atoms: C19_46  and  O14_47
ROOT
HETATM    1  C3  UNL     1      -5.717  10.543  59.518  1.00  0.00     0.297 C
HETATM    2  O3  UNL     1      -5.170  11.743  59.881  1.00  0.00    -0.348 OA
HETATM    3  C4  UNL     1      -4.519  12.409  58.891  1.00  0.00     0.179 C
HETATM    4  C6  UNL     1      -3.371  11.539  58.422  1.00  0.00     0.181 C
HETATM    5  C7  UNL     1      -3.947  10.284  57.854  1.00  0.00     0.189 C
HETATM    6  C16 UNL     1      -4.674   9.564  59.000  1.00  0.00     0.205 C
ENDROOT
BRANCH   1   7
HETATM    7  O2  UNL     1      -6.552  10.011  60.472  1.00  0.00    -0.305 OA
BRANCH   7   8
HETATM    8  C2  UNL     1      -7.870   9.886  60.094  1.00  0.00     0.417 C
HETATM    9  O1  UNL     1      -8.588   9.416  61.219  1.00  0.00    -0.310 OA
HETATM   10  C1  UNL     1      -8.980   8.080  61.001  1.00  0.00     0.274 C
HETATM   11  C19 UNL     1     -10.019   8.022  59.887  1.00  0.00     0.199 C
HETATM   12  C17 UNL     1      -9.400   8.778  58.715  1.00  0.00     0.183 C
HETATM   13  O12 UNL     1      -8.115   9.066  59.054  1.00  0.00    -0.329 OA
BRANCH  10  14
HETATM   14  N3  UNL     1      -9.490   7.496  62.210  1.00  0.00    -0.291 N
ATOM     15  H3  UNL     1      -9.706   6.499  62.234  1.00  0.00     0.184 HD
BRANCH  14  16
HETATM   16  N2  UNL     1      -9.694   8.267  63.350  1.00  0.00    -0.251 N
ATOM     17  H2  UNL     1     -10.634   8.565  63.613  1.00  0.00     0.207 HD
BRANCH  16  18
HETATM   18  N1  UNL     1      -8.677   8.600  64.068  1.00  0.00    -0.331 N
ATOM     19  H12 UNL     1      -7.775   8.762  63.620  1.00  0.00     0.178 HD
ATOM     20  H11 UNL     1      -8.795   8.695  65.077  1.00  0.00     0.178 HD
ENDBRANCH  16  18
ENDBRANCH  14  16
ENDBRANCH  10  14
BRANCH  11  21
HETATM   21  O14 UNL     1     -10.321   6.717  59.544  1.00  0.00    -0.388 OA
ATOM     22  H14 UNL     1     -11.056   6.677  58.944  1.00  0.00     0.210 HD
ENDBRANCH  11  21
BRANCH  12  23
HETATM   23  C18 UNL     1     -10.165  10.075  58.510  1.00  0.00     0.199 C
BRANCH  23  24
HETATM   24  O13 UNL     1     -11.134  10.242  59.505  1.00  0.00    -0.398 OA
ATOM     25  H13 UNL     1     -11.571  11.081  59.413  1.00  0.00     0.209 HD
ENDBRANCH  23  24
ENDBRANCH  12  23
ENDBRANCH   7   8
ENDBRANCH   1   7
BRANCH   6  26
HETATM   26  O11 UNL     1      -3.821   9.182  60.002  1.00  0.00    -0.388 OA
ATOM     27  H11 UNL     1      -3.896   8.250  60.174  1.00  0.00     0.210 HD
ENDBRANCH   6  26
BRANCH   3  28
HETATM   28  C5  UNL     1      -5.376  12.920  57.770  1.00  0.00     0.198 C
BRANCH  28  29
HETATM   29  O4  UNL     1      -4.548  13.605  56.879  1.00  0.00    -0.398 OA
ATOM     30  H4  UNL     1      -3.989  14.181  57.387  1.00  0.00     0.209 HD
ENDBRANCH  28  29
ENDBRANCH   3  28
BRANCH   5  31
HETATM   31  O6  UNL     1      -2.959   9.532  57.290  1.00  0.00    -0.351 OA
BRANCH  31  32
HETATM   32  C8  UNL     1      -3.218   9.168  55.970  1.00  0.00     0.261 C
HETATM   33  C9  UNL     1      -3.081  10.312  55.013  1.00  0.00     0.068 C
HETATM   34  C10 UNL     1      -1.595  10.372  54.807  1.00  0.00     0.025 C
HETATM   35  C11 UNL     1      -1.266  10.717  53.371  1.00  0.00     0.042 C
HETATM   36  C15 UNL     1      -1.203   8.941  55.020  1.00  0.00     0.168 C
HETATM   37  C12 UNL     1      -0.234   9.682  52.965  1.00  0.00     0.157 C
HETATM   38  C13 UNL     1      -0.689   8.422  53.711  1.00  0.00     0.131 C
HETATM   39  O10 UNL     1      -2.294   8.260  55.504  1.00  0.00    -0.352 OA
BRANCH  37  40
HETATM   40  O7  UNL     1       1.022  10.067  53.437  1.00  0.00    -0.392 OA
ATOM     41  H7  UNL     1       1.446  10.621  52.791  1.00  0.00     0.210 HD
ENDBRANCH  37  40
BRANCH  38  42
HETATM   42  O8  UNL     1       0.393   7.578  53.823  1.00  0.00    -0.382 OA
ATOM     43  H8  UNL     1       0.628   7.283  52.952  1.00  0.00     0.210 HD
ENDBRANCH  38  42
BRANCH  38  44
HETATM   44  C14 UNL     1      -1.724   7.764  52.857  1.00  0.00     0.207 C
BRANCH  44  45
HETATM   45  O9  UNL     1      -1.380   6.490  52.438  1.00  0.00    -0.398 OA
ATOM     46  H9  UNL     1      -2.118   5.898  52.358  1.00  0.00     0.209 HD
ENDBRANCH  44  45
ENDBRANCH  38  44
ENDBRANCH  31  32
ENDBRANCH   5  31
BRANCH   4  47
HETATM   47  O5  UNL     1      -2.638  11.205  59.571  1.00  0.00    -0.390 OA
ATOM     48  H5  UNL     1      -1.975  11.878  59.666  1.00  0.00     0.210 HD
ENDBRANCH   4  47
TORSDOF 18
ENDMDL