MODEL 5
REMARK VINA RESULT: -7.760255487      0.973      1.490
REMARK  13 active torsions:
REMARK  status: ('A' for Active; 'I' for Inactive)
REMARK    1  A    between atoms: N1_1  and  C1_4
REMARK    2  A    between atoms: C2_10  and  N4_11
REMARK    3  A    between atoms: C4_13  and  C5_14
REMARK    4  A    between atoms: C5_14  and  O2_15
REMARK    5  A    between atoms: O2_15  and  N5_16
REMARK    6  A    between atoms: N5_16  and  C6_17
REMARK    7  A    between atoms: C8_21  and  C9_22
REMARK    8  A    between atoms: C10_25  and  C11_26
REMARK    9  A    between atoms: C12_31  and  O7_32
REMARK   10  A    between atoms: C13_34  and  C14_35
REMARK   11  A    between atoms: C16_39  and  O10_40
REMARK   12  A    between atoms: C16_39  and  C17_42
REMARK   13  A    between atoms: C17_42  and  O11_43
ROOT
HETATM    1  C6  UNL     1      -4.128   9.993  57.659  1.00  0.00     0.167 C
HETATM    2  C7  UNL     1      -5.532   9.835  57.134  1.00  0.00     0.130 C
HETATM    3  N6  UNL     1      -5.990   8.531  57.487  1.00  0.00    -0.374 N
ATOM      4  H6  UNL     1      -5.759   7.837  56.775  1.00  0.00     0.160 HD
HETATM    5  C8  UNL     1      -6.703   7.945  58.608  1.00  0.00     0.139 C
HETATM    6  C10 UNL     1      -7.533   8.610  59.379  1.00  0.00     0.141 C
HETATM    7  N7  UNL     1      -7.854  10.040  59.199  1.00  0.00    -0.355 N
ATOM      8  H7  UNL     1      -8.179  10.566  60.011  1.00  0.00     0.162 HD
HETATM    9  C12 UNL     1      -7.734  10.733  57.943  1.00  0.00     0.239 C
HETATM   10  C13 UNL     1      -6.282  11.004  57.554  1.00  0.00     0.116 C
HETATM   11  C15 UNL     1      -5.533  11.628  58.688  1.00  0.00     0.069 C
HETATM   12  C16 UNL     1      -4.197  10.986  58.770  1.00  0.00     0.102 C
ENDROOT
BRANCH   1  13
HETATM   13  N5  UNL     1      -3.197  10.475  56.643  1.00  0.00    -0.090 NA
BRANCH  13  14
HETATM   14  O2  UNL     1      -3.300   9.698  55.514  1.00  0.00    -0.280 OA
BRANCH  14  15
HETATM   15  C5  UNL     1      -2.295   8.718  55.666  1.00  0.00     0.255 C
BRANCH  15  16
HETATM   16  C4  UNL     1      -1.485   8.604  54.424  1.00  0.00     0.066 A
HETATM   17  C3  UNL     1      -1.306   9.591  53.467  1.00  0.00     0.144 A
HETATM   18  N4  UNL     1      -0.517   9.129  52.492  1.00  0.00    -0.228 N
HETATM   19  N9  UNL     1      -0.211   7.890  52.830  1.00  0.00    -0.014 NA
HETATM   20  N8  UNL     1      -0.775   7.554  53.976  1.00  0.00    -0.284 N
ATOM     21  H8  UNL     1      -0.687   6.651  54.441  1.00  0.00     0.184 HD
BRANCH  18  22
HETATM   22  C2  UNL     1      -0.069   9.801  51.310  1.00  0.00     0.193 A
HETATM   23  C1  UNL     1       0.904   9.356  50.456  1.00  0.00     0.169 A
HETATM   24  N2  UNL     1       1.019  10.274  49.480  1.00  0.00    -0.222 N
HETATM   25  O1  UNL     1       0.170  11.220  49.725  1.00  0.00    -0.153 OA
ATOM     26  H2  UNL     1       1.661  10.232  48.690  1.00  0.00     0.198 HD
HETATM   27  N3  UNL     1      -0.496  10.978  50.801  1.00  0.00    -0.221 N
ATOM     28  H3  UNL     1      -1.222  11.573  51.201  1.00  0.00     0.198 HD
BRANCH  23  29
HETATM   29  N1  UNL     1       1.616   8.264  50.521  1.00  0.00    -0.381 N
ATOM     30  H12 UNL     1       2.238   7.861  49.820  1.00  0.00     0.157 HD
ATOM     31  H11 UNL     1       1.637   7.643  51.330  1.00  0.00     0.157 HD
ENDBRANCH  23  29
ENDBRANCH  18  22
ENDBRANCH  15  16
ENDBRANCH  14  15
ENDBRANCH  13  14
ENDBRANCH   1  13
BRANCH  12  32
HETATM   32  O10 UNL     1      -3.150  11.922  58.614  1.00  0.00    -0.386 OA
ATOM     33  H10 UNL     1      -3.319  12.447  57.841  1.00  0.00     0.210 HD
ENDBRANCH  12  32
BRANCH  12  34
HETATM   34  C17 UNL     1      -3.936  10.348  60.130  1.00  0.00     0.203 C
BRANCH  34  35
HETATM   35  O11 UNL     1      -3.887   8.962  60.031  1.00  0.00    -0.398 OA
ATOM     36  H11 UNL     1      -3.435   8.582  60.775  1.00  0.00     0.209 HD
ENDBRANCH  34  35
ENDBRANCH  12  34
BRANCH  10  37
HETATM   37  C14 UNL     1      -6.408  11.962  56.422  1.00  0.00     0.188 C
HETATM   38  O8  UNL     1      -6.352  11.552  55.255  1.00  0.00    -0.647 OA
HETATM   39  O9  UNL     1      -6.590  13.305  56.673  1.00  0.00    -0.647 OA
ENDBRANCH  10  37
BRANCH   5  40
HETATM   40  C9  UNL     1      -6.473   6.573  58.854  1.00  0.00     0.229 C
HETATM   41  O3  UNL     1      -7.171   5.589  58.768  1.00  0.00    -0.643 OA
HETATM   42  O4  UNL     1      -5.147   6.249  59.297  1.00  0.00    -0.643 OA
ENDBRANCH   5  40
BRANCH   9  43
HETATM   43  O7  UNL     1      -8.377  10.145  56.884  1.00  0.00    -0.375 OA
ATOM     44  H7  UNL     1      -7.818   9.667  56.283  1.00  0.00     0.212 HD
ENDBRANCH   9  43
BRANCH   6  45
HETATM   45  C11 UNL     1      -8.237   8.054  60.480  1.00  0.00     0.229 C
HETATM   46  O5  UNL     1      -8.803   6.983  60.640  1.00  0.00    -0.643 OA
HETATM   47  O6  UNL     1      -8.333   8.860  61.658  1.00  0.00    -0.643 OA
ENDBRANCH   6  45
TORSDOF 13
ENDMDL