MODEL 1
REMARK VINA RESULT: -8.070439496      0.000      0.000
REMARK  16 active torsions:
REMARK  status: ('A' for Active; 'I' for Inactive)
REMARK       I    between atoms: C2_2  and  N1_4
REMARK    1  A    between atoms: N1_4  and  C3_6
REMARK    2  A    between atoms: C4_7  and  C5_8
REMARK    3  A    between atoms: C5_8  and  O2_9
REMARK    4  A    between atoms: C5_8  and  O3_11
REMARK    5  A    between atoms: C6_14  and  C7_15
REMARK    6  A    between atoms: C7_15  and  O5_16
REMARK    7  A    between atoms: C7_15  and  N2_18
REMARK    8  A    between atoms: C11_24  and  C12_25
REMARK    9  A    between atoms: C12_25  and  O6_26
REMARK   10  A    between atoms: C12_25  and  C13_28
REMARK   11  A    between atoms: C13_28  and  O7_29
REMARK   12  A    between atoms: C13_28  and  O8_31
REMARK   13  A    between atoms: C14_33  and  O9_34
REMARK   14  A    between atoms: O9_34  and  C15_35
REMARK   15  A    between atoms: C16_38  and  O12_39
REMARK   16  A    between atoms: C18_43  and  N4_44
REMARK       I    between atoms: N4_44  and  C19_46
REMARK       I    between atoms: C19_46  and  N5_47
REMARK       I    between atoms: C19_46  and  N6_51
ROOT
HETATM    1  C3  UNL     1      -5.397   9.808  58.258  1.00  0.00     0.100 C
HETATM    2  C4  UNL     1      -4.201  10.455  58.390  1.00  0.00     0.137 C
HETATM    3  O4  UNL     1      -3.593  11.237  57.526  1.00  0.00    -0.304 OA
HETATM    4  C6  UNL     1      -4.021  11.778  56.416  1.00  0.00     0.139 C
HETATM    5  C16 UNL     1      -5.273  11.631  55.861  1.00  0.00     0.153 C
HETATM    6  C17 UNL     1      -6.402  10.948  56.340  1.00  0.00     0.236 C
HETATM    7  O13 UNL     1      -7.445  11.166  55.667  1.00  0.00    -0.283 OA
HETATM    8  C18 UNL     1      -6.503  10.097  57.421  1.00  0.00     0.114 C
ENDROOT
BRANCH   4   9
HETATM    9  C7  UNL     1      -3.119  12.626  55.659  1.00  0.00     0.289 C
BRANCH   9  10
HETATM   10  O5  UNL     1      -2.028  13.009  56.470  1.00  0.00    -0.370 OA
ATOM     11  H5  UNL     1      -1.300  13.282  55.923  1.00  0.00     0.212 HD
ENDBRANCH   9  10
BRANCH   9  12
HETATM   12  N2  UNL     1      -2.546  12.100  54.462  1.00  0.00    -0.282 N
HETATM   13  C8  UNL     1      -2.584  12.747  53.284  1.00  0.00     0.083 A
HETATM   14  C9  UNL     1      -3.227  14.102  53.169  1.00  0.00     0.089 C
HETATM   15  N3  UNL     1      -2.051  12.179  52.191  1.00  0.00    -0.355 N
HETATM   16  C10 UNL     1      -1.466  10.977  52.196  1.00  0.00     0.103 A
ATOM     17  H3  UNL     1      -2.095  12.692  51.311  1.00  0.00     0.166 HD
HETATM   18  C11 UNL     1      -1.397  10.258  53.398  1.00  0.00     0.042 A
HETATM   19  C14 UNL     1      -1.954  10.874  54.493  1.00  0.00     0.170 A
BRANCH  18  20
HETATM   20  C12 UNL     1      -0.782   8.905  53.413  1.00  0.00     0.211 C
BRANCH  20  21
HETATM   21  O6  UNL     1       0.437   8.828  54.023  1.00  0.00    -0.386 OA
ATOM     22  H6  UNL     1       0.459   9.131  54.923  1.00  0.00     0.210 HD
ENDBRANCH  20  21
BRANCH  20  23
HETATM   23  C13 UNL     1      -0.807   8.247  52.058  1.00  0.00     0.287 C
BRANCH  23  24
HETATM   24  O7  UNL     1      -1.590   7.078  52.228  1.00  0.00    -0.368 OA
ATOM     25  H7  UNL     1      -1.867   6.835  51.352  1.00  0.00     0.212 HD
ENDBRANCH  23  24
BRANCH  23  26
HETATM   26  O8  UNL     1       0.433   7.780  51.636  1.00  0.00    -0.368 OA
ATOM     27  H8  UNL     1       0.763   8.215  50.859  1.00  0.00     0.212 HD
ENDBRANCH  23  26
ENDBRANCH  20  23
ENDBRANCH  18  20
BRANCH  19  28
HETATM   28  O9  UNL     1      -1.886  10.165  55.688  1.00  0.00    -0.235 OA
BRANCH  28  29
HETATM   29  C15 UNL     1      -2.234   8.832  55.830  1.00  0.00     0.339 C
HETATM   30  O10 UNL     1      -3.344   8.408  55.485  1.00  0.00    -0.623 OA
HETATM   31  O11 UNL     1      -1.256   7.991  56.386  1.00  0.00    -0.623 OA
ENDBRANCH  28  29
ENDBRANCH  19  28
ENDBRANCH   9  12
ENDBRANCH   4   9
BRANCH   5  32
HETATM   32  O12 UNL     1      -5.486  12.240  54.641  1.00  0.00    -0.355 OA
ATOM     33  H12 UNL     1      -5.659  11.668  53.903  1.00  0.00     0.218 HD
ENDBRANCH   5  32
BRANCH   2  34
HETATM   34  C5  UNL     1      -3.531  10.217  59.696  1.00  0.00     0.315 C
BRANCH  34  35
HETATM   35  O2  UNL     1      -4.376  10.500  60.774  1.00  0.00    -0.365 OA
ATOM     36  H2  UNL     1      -3.959  10.318  61.608  1.00  0.00     0.213 HD
ENDBRANCH  34  35
BRANCH  34  37
HETATM   37  O3  UNL     1      -2.354  10.929  59.812  1.00  0.00    -0.365 OA
ATOM     38  H3  UNL     1      -1.597  10.409  59.568  1.00  0.00     0.213 HD
ENDBRANCH  34  37
ENDBRANCH   2  34
BRANCH   1  39
HETATM   39  N1  UNL     1      -5.632   8.643  59.067  1.00  0.00    -0.323 N
HETATM   40  C2  UNL     1      -5.533   7.387  58.410  1.00  0.00     0.218 C
HETATM   41  C1  UNL     1      -5.762   6.117  59.170  1.00  0.00     0.117 C
HETATM   42  O1  UNL     1      -5.252   7.281  57.170  1.00  0.00    -0.274 OA
ATOM     43  H1  UNL     1      -5.858   8.715  60.058  1.00  0.00     0.169 HD
ENDBRANCH   1  39
BRANCH   8  44
HETATM   44  N4  UNL     1      -7.577   9.533  57.722  1.00  0.00    -0.336 N
HETATM   45  C19 UNL     1      -8.716   9.934  58.433  1.00  0.00     0.480 C
HETATM   46  N5  UNL     1      -9.653  10.768  57.687  1.00  0.00    -0.033 N
HETATM   47  N6  UNL     1      -9.467   8.691  58.773  1.00  0.00    -0.033 N
ATOM     48  H53 UNL     1      -9.171  11.583  57.307  1.00  0.00     0.278 HD
ATOM     49  H52 UNL     1      -9.926  10.302  56.822  1.00  0.00     0.278 HD
ATOM     50  H51 UNL     1     -10.482  11.060  58.205  1.00  0.00     0.278 HD
ATOM     51  H63 UNL     1      -9.683   8.115  57.959  1.00  0.00     0.278 HD
ATOM     52  H62 UNL     1      -8.903   8.003  59.271  1.00  0.00     0.278 HD
ATOM     53  H61 UNL     1     -10.296   8.983  59.290  1.00  0.00     0.278 HD
ATOM     54  H4  UNL     1      -7.638   8.576  57.376  1.00  0.00     0.163 HD
ENDBRANCH   8  44
TORSDOF 16
ENDMDL