MODEL 4
REMARK VINA RESULT: -8.769310352      3.861      9.325
REMARK  17 active torsions:
REMARK  status: ('A' for Active; 'I' for Inactive)
REMARK    1  A    between atoms: N1_1  and  C1_4
REMARK    2  A    between atoms: C2_7  and  N3_8
REMARK    3  A    between atoms: N4_11  and  C3_12
REMARK    4  A    between atoms: C4_16  and  C5_17
REMARK    5  A    between atoms: C4_16  and  C6_20
REMARK    6  A    between atoms: C5_17  and  O1_18
REMARK    7  A    between atoms: C6_20  and  O2_21
REMARK    8  A    between atoms: O2_21  and  C7_22
REMARK    9  A    between atoms: C7_22  and  C8_24
REMARK   10  A    between atoms: C9_25  and  C10_26
REMARK   11  A    between atoms: C10_26  and  O4_27
REMARK   12  A    between atoms: C10_26  and  O5_29
REMARK   13  A    between atoms: C11_32  and  C12_33
REMARK   14  A    between atoms: C12_33  and  O7_34
REMARK   15  A    between atoms: C12_33  and  O8_36
REMARK   16  A    between atoms: C16_43  and  S1_44
REMARK   17  A    between atoms: S1_44  and  N7_45
ROOT
HETATM    1  C3  UNL     1      -2.588  11.220  55.431  1.00  0.00     0.259 C
HETATM    2  N5  UNL     1      -2.270  12.470  55.494  1.00  0.00    -0.265 N
ATOM      3  H5  UNL     1      -1.464  12.895  55.035  1.00  0.00     0.186 HD
HETATM    4  N6  UNL     1      -3.196  13.148  56.285  1.00  0.00    -0.094 NA
HETATM    5  C4  UNL     1      -3.918  12.177  57.070  1.00  0.00     0.202 C
HETATM    6  O10 UNL     1      -3.726  11.022  56.169  1.00  0.00    -0.285 OA
ENDROOT
BRANCH   5   7
HETATM    7  C5  UNL     1      -3.266  11.754  58.330  1.00  0.00     0.225 C
BRANCH   7   8
HETATM    8  O1  UNL     1      -3.486  10.418  58.639  1.00  0.00    -0.396 OA
ATOM      9  H1  UNL     1      -3.535   9.859  57.872  1.00  0.00     0.209 HD
ENDBRANCH   7   8
ENDBRANCH   5   7
BRANCH   5  10
HETATM   10  C6  UNL     1      -5.387  12.380  57.058  1.00  0.00     0.240 C
BRANCH  10  11
HETATM   11  O2  UNL     1      -6.210  11.475  57.677  1.00  0.00    -0.313 OA
BRANCH  11  12
HETATM   12  C7  UNL     1      -7.161  10.591  57.242  1.00  0.00     0.300 C
HETATM   13  O3  UNL     1      -7.731  10.921  56.194  1.00  0.00    -0.259 OA
BRANCH  12  14
HETATM   14  C8  UNL     1      -7.420   9.365  58.021  1.00  0.00     0.124 A
HETATM   15  C9  UNL     1      -6.577   8.315  58.055  1.00  0.00     0.128 A
HETATM   16  O6  UNL     1      -6.945   7.197  58.714  1.00  0.00    -0.308 OA
HETATM   17  C11 UNL     1      -8.068   7.035  59.338  1.00  0.00     0.111 A
HETATM   18  C13 UNL     1      -8.961   8.085  59.333  1.00  0.00     0.093 A
HETATM   19  C14 UNL     1      -8.659   9.253  58.685  1.00  0.00     0.193 A
HETATM   20  O9  UNL     1      -9.427  10.244  58.643  1.00  0.00    -0.287 OA
BRANCH  15  21
HETATM   21  C10 UNL     1      -5.252   8.337  57.408  1.00  0.00     0.314 C
BRANCH  21  22
HETATM   22  O4  UNL     1      -5.221   8.282  56.044  1.00  0.00    -0.365 OA
ATOM     23  H4  UNL     1      -5.961   8.653  55.577  1.00  0.00     0.213 HD
ENDBRANCH  21  22
BRANCH  21  24
HETATM   24  O5  UNL     1      -4.371   7.419  58.002  1.00  0.00    -0.365 OA
ATOM     25  H5  UNL     1      -3.562   7.836  58.276  1.00  0.00     0.213 HD
ENDBRANCH  21  24
ENDBRANCH  15  21
BRANCH  17  26
HETATM   26  C12 UNL     1      -8.388   5.748  60.044  1.00  0.00     0.312 C
BRANCH  26  27
HETATM   27  O7  UNL     1      -7.254   5.027  60.349  1.00  0.00    -0.365 OA
ATOM     28  H7  UNL     1      -6.604   5.070  59.657  1.00  0.00     0.213 HD
ENDBRANCH  26  27
BRANCH  26  29
HETATM   29  O8  UNL     1      -9.082   6.014  61.208  1.00  0.00    -0.365 OA
ATOM     30  H8  UNL     1      -8.624   6.679  61.710  1.00  0.00     0.213 HD
ENDBRANCH  26  29
ENDBRANCH  17  26
ENDBRANCH  12  14
ENDBRANCH  11  12
ENDBRANCH  10  11
ENDBRANCH   5  10
BRANCH   1  31
HETATM   31  N4  UNL     1      -1.900  10.191  54.726  1.00  0.00    -0.118 N
HETATM   32  C2  UNL     1      -1.753   8.969  55.290  1.00  0.00     0.687 A
HETATM   33  N2  UNL     1      -1.116   7.957  54.680  1.00  0.00    -0.175 N
HETATM   34  C1  UNL     1      -0.586   8.116  53.458  1.00  0.00     0.139 A
ATOM     35  H2  UNL     1      -1.035   7.055  55.151  1.00  0.00     0.186 HD
HETATM   36  C16 UNL     1      -0.716   9.337  52.859  1.00  0.00     0.139 A
HETATM   37  C15 UNL     1      -1.375  10.362  53.506  1.00  0.00     0.148 A
BRANCH  32  38
HETATM   38  N3  UNL     1      -2.258   8.802  56.465  1.00  0.00    -0.234 N
ATOM     39  H32 UNL     1      -1.745   9.203  57.250  1.00  0.00     0.174 HD
ATOM     40  H31 UNL     1      -3.131   8.289  56.578  1.00  0.00     0.174 HD
ENDBRANCH  32  38
BRANCH  34  41
HETATM   41  N1  UNL     1       0.038   7.140  52.847  1.00  0.00    -0.384 N
ATOM     42  H12 UNL     1       0.038   7.082  51.829  1.00  0.00     0.157 HD
ATOM     43  H11 UNL     1       0.538   6.417  53.367  1.00  0.00     0.157 HD
ENDBRANCH  34  41
BRANCH  36  44
HETATM   44  S1  UNL     1      -0.032   9.562  51.268  1.00  0.00     0.261 S
HETATM   45  O11 UNL     1      -0.455   8.419  50.392  1.00  0.00    -0.201 OA
HETATM   46  O12 UNL     1       1.468   9.570  51.325  1.00  0.00    -0.201 OA
BRANCH  44  47
HETATM   47  N7  UNL     1      -0.552  11.073  50.605  1.00  0.00    -0.324 N
ATOM     48  H72 UNL     1      -1.415  11.548  50.870  1.00  0.00     0.169 HD
ATOM     49  H71 UNL     1       0.127  11.407  49.921  1.00  0.00     0.169 HD
ENDBRANCH  44  47
ENDBRANCH  36  44
ENDBRANCH   1  31
TORSDOF 17
ENDMDL