MODEL 4
REMARK VINA RESULT: -8.382755475      2.345      8.279
REMARK  13 active torsions:
REMARK  status: ('A' for Active; 'I' for Inactive)
REMARK    1  A    between atoms: C2_2  and  O1_3
REMARK    2  A    between atoms: C2_2  and  N1_5
REMARK    3  A    between atoms: N1_5  and  C3_7
REMARK    4  A    between atoms: C4_8  and  C5_9
REMARK    5  A    between atoms: C6_13  and  C7_14
REMARK    6  A    between atoms: C8_18  and  O3_19
REMARK    7  A    between atoms: C8_18  and  C9_21
REMARK       I    between atoms: C9_21  and  N4_23
REMARK    8  A    between atoms: N4_23  and  C10_25
REMARK    9  A    between atoms: C14_37  and  O6_38
REMARK   10  A    between atoms: C14_37  and  C15_40
REMARK   11  A    between atoms: C15_40  and  O7_41
REMARK   12  A    between atoms: C15_40  and  O8_43
REMARK   13  A    between atoms: C16_50  and  C17_51
ROOT
HETATM    1  C7  UNL     1      -4.949  10.337  56.846  1.00  0.00     0.309 C
HETATM    2  N3  UNL     1      -4.888  10.518  58.280  1.00  0.00     0.007 N
ATOM      3  H31 UNL     1      -4.200  11.223  58.543  1.00  0.00     0.284 HD
ATOM      4  H32 UNL     1      -4.468   9.713  58.744  1.00  0.00     0.284 HD
HETATM    5  C8  UNL     1      -6.175  10.815  58.804  1.00  0.00     0.474 C
HETATM    6  N7  UNL     1      -7.098  11.329  57.831  1.00  0.00    -0.005 N
ATOM      7  H71 UNL     1      -7.913  11.749  58.277  1.00  0.00     0.283 HD
ATOM      8  H72 UNL     1      -7.564  10.573  57.327  1.00  0.00     0.283 HD
HETATM    9  C13 UNL     1      -6.465  12.250  56.924  1.00  0.00     0.284 C
HETATM   10  C14 UNL     1      -5.288  11.619  56.197  1.00  0.00     0.167 C
ENDROOT
BRANCH   1  11
HETATM   11  C6  UNL     1      -3.702   9.681  56.369  1.00  0.00     0.183 A
HETATM   12  O2  UNL     1      -2.803   9.074  57.138  1.00  0.00    -0.220 OA
HETATM   13  N2  UNL     1      -1.860   8.629  56.366  1.00  0.00    -0.241 N
HETATM   14  C5  UNL     1      -2.083   8.912  55.087  1.00  0.00     0.159 A
ATOM     15  H2  UNL     1      -1.042   8.122  56.703  1.00  0.00     0.196 HD
HETATM   16  N8  UNL     1      -3.275   9.589  55.120  1.00  0.00    -0.320 N
ATOM     17  H8  UNL     1      -3.760   9.964  54.305  1.00  0.00     0.169 HD
BRANCH  14  18
HETATM   18  C4  UNL     1      -1.377   8.660  53.846  1.00  0.00     0.130 A
HETATM   19  C3  UNL     1      -0.821   9.550  52.940  1.00  0.00     0.106 A
HETATM   20  C16 UNL     1      -0.202   8.813  51.931  1.00  0.00     0.203 A
HETATM   21  O9  UNL     1      -0.414   7.535  52.260  1.00  0.00    -0.228 OA
HETATM   22  N9  UNL     1      -1.073   7.429  53.334  1.00  0.00    -0.254 N
ATOM     23  H9  UNL     1      -1.342   6.543  53.762  1.00  0.00     0.195 HD
BRANCH  19  24
HETATM   24  N1  UNL     1      -0.914  10.946  53.001  1.00  0.00    -0.360 N
ATOM     25  H1  UNL     1      -0.138  11.474  53.399  1.00  0.00     0.162 HD
BRANCH  24  26
HETATM   26  C2  UNL     1      -2.054  11.653  52.527  1.00  0.00     0.213 C
HETATM   27  C1  UNL     1      -2.337  12.925  53.256  1.00  0.00     0.063 C
BRANCH  26  28
HETATM   28  O1  UNL     1      -1.921  11.978  51.161  1.00  0.00    -0.377 OA
ATOM     29  H1  UNL     1      -2.775  11.866  50.762  1.00  0.00     0.212 HD
ENDBRANCH  26  28
ENDBRANCH  24  26
ENDBRANCH  19  24
BRANCH  20  30
HETATM   30  C17 UNL     1       0.526   9.273  50.765  1.00  0.00     0.238 C
HETATM   31  O10 UNL     1       0.663  10.457  50.434  1.00  0.00    -0.642 OA
HETATM   32  O11 UNL     1       1.132   8.320  49.934  1.00  0.00    -0.642 OA
ENDBRANCH  20  30
ENDBRANCH  14  18
ENDBRANCH   1  11
BRANCH  10  33
HETATM   33  O6  UNL     1      -4.236  12.516  56.328  1.00  0.00    -0.380 OA
ATOM     34  H6  UNL     1      -3.961  12.827  55.472  1.00  0.00     0.211 HD
ENDBRANCH  10  33
BRANCH  10  35
HETATM   35  C15 UNL     1      -5.616  11.505  54.715  1.00  0.00     0.292 C
BRANCH  35  36
HETATM   36  O7  UNL     1      -5.782  12.815  54.244  1.00  0.00    -0.368 OA
ATOM     37  H7  UNL     1      -5.187  12.914  53.510  1.00  0.00     0.212 HD
ENDBRANCH  35  36
BRANCH  35  38
HETATM   38  O8  UNL     1      -6.682  10.683  54.450  1.00  0.00    -0.368 OA
ATOM     39  H8  UNL     1      -7.281  11.034  53.803  1.00  0.00     0.212 HD
ENDBRANCH  35  38
ENDBRANCH  10  35
BRANCH   5  40
HETATM   40  O3  UNL     1      -5.980  11.867  59.750  1.00  0.00    -0.336 OA
ATOM     41  H3  UNL     1      -6.133  11.481  60.605  1.00  0.00     0.214 HD
ENDBRANCH   5  40
BRANCH   5  42
HETATM   42  C9  UNL     1      -6.688   9.644  59.557  1.00  0.00     0.313 C
HETATM   43  O4  UNL     1      -6.895   9.758  60.829  1.00  0.00    -0.266 OA
HETATM   44  N4  UNL     1      -6.981   8.381  59.011  1.00  0.00    -0.326 N
ATOM     45  H4  UNL     1      -6.846   8.211  58.015  1.00  0.00     0.165 HD
BRANCH  44  46
HETATM   46  C10 UNL     1      -7.472   7.330  59.860  1.00  0.00     0.279 C
HETATM   47  N5  UNL     1      -6.905   6.036  59.512  1.00  0.00    -0.357 N
HETATM   48  C11 UNL     1      -7.927   5.088  59.790  1.00  0.00     0.180 C
ATOM     49  H5  UNL     1      -5.971   5.849  59.146  1.00  0.00     0.162 HD
HETATM   50  N6  UNL     1      -9.082   5.672  59.871  1.00  0.00    -0.320 N
HETATM   51  C12 UNL     1      -8.925   7.069  59.652  1.00  0.00     0.265 C
ATOM     52  H6  UNL     1      -9.967   5.202  60.061  1.00  0.00     0.169 HD
HETATM   53  O5  UNL     1      -9.795   7.922  59.349  1.00  0.00    -0.269 OA
ENDBRANCH  44  46
ENDBRANCH   5  42
TORSDOF 13
ENDMDL