MODEL 1
REMARK VINA RESULT: -6.417396187      0.000      0.000
REMARK  16 active torsions:
REMARK  status: ('A' for Active; 'I' for Inactive)
REMARK    1  A    between atoms: N1_2  and  C2_4
REMARK    2  A    between atoms: C3_5  and  O1_6
REMARK    3  A    between atoms: C6_11  and  O3_12
REMARK    4  A    between atoms: O3_12  and  C7_13
REMARK    5  A    between atoms: N2_18  and  O5_20
REMARK    6  A    between atoms: C11_23  and  N3_24
REMARK    7  A    between atoms: C12_26  and  C13_27
REMARK    8  A    between atoms: C12_26  and  C15_31
REMARK    9  A    between atoms: C13_27  and  O7_29
REMARK   10  A    between atoms: C15_31  and  O8_32
REMARK   11  A    between atoms: C15_31  and  C16_34
REMARK   12  A    between atoms: C16_34  and  O9_35
REMARK   13  A    between atoms: C17_38  and  C18_39
REMARK   14  A    between atoms: C18_39  and  O11_40
REMARK   15  A    between atoms: C19_42  and  O12_43
REMARK   16  A    between atoms: C20_45  and  O13_46
ROOT
HETATM    1  C7  UNL     1      -5.321   8.109  57.413  1.00  0.00     0.298 C
HETATM    2  O4  UNL     1      -5.606   9.346  57.904  1.00  0.00    -0.317 OA
HETATM    3  C8  UNL     1      -5.823   9.553  59.209  1.00  0.00     0.225 C
HETATM    4  C9  UNL     1      -4.690   9.568  60.186  1.00  0.00     0.160 C
HETATM    5  C10 UNL     1      -4.910  11.018  60.425  1.00  0.00     0.146 C
HETATM    6  N2  UNL     1      -4.470  11.930  61.226  1.00  0.00    -0.251 N
ATOM      7  H2  UNL     1      -4.809  12.890  61.167  1.00  0.00     0.196 HD
HETATM    8  O6  UNL     1      -5.810  10.991  59.402  1.00  0.00    -0.295 OA
HETATM    9  C11 UNL     1      -7.137   8.944  59.760  1.00  0.00     0.285 C
HETATM   10  O10 UNL     1      -7.527   8.021  58.794  1.00  0.00    -0.351 OA
HETATM   11  C17 UNL     1      -6.878   6.853  58.717  1.00  0.00     0.181 C
HETATM   12  C19 UNL     1      -5.391   6.984  58.382  1.00  0.00     0.204 C
ENDROOT
BRANCH   1  13
HETATM   13  O3  UNL     1      -4.178   8.089  56.601  1.00  0.00    -0.326 OA
BRANCH  13  14
HETATM   14  C6  UNL     1      -3.518   9.313  56.543  1.00  0.00     0.294 C
HETATM   15  O2  UNL     1      -2.131   9.130  56.458  1.00  0.00    -0.351 OA
HETATM   16  C4  UNL     1      -1.899   8.645  55.149  1.00  0.00     0.151 C
HETATM   17  C3  UNL     1      -1.848   9.838  54.199  1.00  0.00     0.171 C
HETATM   18  C5  UNL     1      -0.569   7.966  55.150  1.00  0.00     0.042 C
HETATM   19  C2  UNL     1      -2.699  10.906  54.844  1.00  0.00     0.141 C
HETATM   20  C20 UNL     1      -3.937  10.195  55.410  1.00  0.00     0.198 C
BRANCH  17  21
HETATM   21  O1  UNL     1      -0.545  10.258  53.991  1.00  0.00    -0.391 OA
ATOM     22  H1  UNL     1      -0.340  10.356  53.069  1.00  0.00     0.210 HD
ENDBRANCH  17  21
BRANCH  19  23
HETATM   23  N1  UNL     1      -3.086  11.862  53.857  1.00  0.00    -0.416 N
HETATM   24  C1  UNL     1      -2.469  13.153  53.969  1.00  0.00     0.140 C
ATOM     25  H1  UNL     1      -3.757  11.642  53.120  1.00  0.00     0.153 HD
ENDBRANCH  19  23
BRANCH  20  26
HETATM   26  O13 UNL     1      -4.747  11.274  55.849  1.00  0.00    -0.388 OA
ATOM     27  H13 UNL     1      -5.515  10.835  56.194  1.00  0.00     0.210 HD
ENDBRANCH  20  26
ENDBRANCH  13  14
ENDBRANCH   1  13
BRANCH  12  28
HETATM   28  O12 UNL     1      -5.018   5.782  57.806  1.00  0.00    -0.388 OA
ATOM     29  H12 UNL     1      -5.041   5.067  58.431  1.00  0.00     0.210 HD
ENDBRANCH  12  28
BRANCH  11  30
HETATM   30  C18 UNL     1      -6.987   5.875  59.826  1.00  0.00     0.199 C
BRANCH  30  31
HETATM   31  O11 UNL     1      -7.317   4.588  59.376  1.00  0.00    -0.398 OA
ATOM     32  H11 UNL     1      -6.746   3.919  59.737  1.00  0.00     0.209 HD
ENDBRANCH  30  31
ENDBRANCH  11  30
BRANCH   9  33
HETATM   33  N3  UNL     1      -8.018   9.973  59.983  1.00  0.00    -0.362 N
HETATM   34  C12 UNL     1      -9.174  10.376  59.451  1.00  0.00     0.044 C
ATOM     35  H3  UNL     1      -7.713  10.581  60.744  1.00  0.00     0.162 HD
BRANCH  34  36
HETATM   36  C13 UNL     1      -9.304  10.775  57.999  1.00  0.00     0.162 C
HETATM   37  C14 UNL     1     -10.283   9.989  57.198  1.00  0.00     0.045 C
BRANCH  36  38
HETATM   38  O7  UNL     1      -8.059  10.894  57.376  1.00  0.00    -0.390 OA
ATOM     39  H7  UNL     1      -8.016  10.394  56.570  1.00  0.00     0.210 HD
ENDBRANCH  36  38
ENDBRANCH  34  36
BRANCH  34  40
HETATM   40  C15 UNL     1     -10.489   9.797  59.876  1.00  0.00     0.189 C
BRANCH  40  41
HETATM   41  O8  UNL     1     -11.285  10.722  60.604  1.00  0.00    -0.388 OA
ATOM     42  H8  UNL     1     -12.144  10.848  60.219  1.00  0.00     0.210 HD
ENDBRANCH  40  41
BRANCH  40  43
HETATM   43  C16 UNL     1     -10.532   8.530  60.609  1.00  0.00     0.201 C
BRANCH  43  44
HETATM   44  O9  UNL     1     -10.232   7.379  59.937  1.00  0.00    -0.398 OA
ATOM     45  H9  UNL     1      -9.323   7.106  59.890  1.00  0.00     0.209 HD
ENDBRANCH  43  44
ENDBRANCH  40  43
ENDBRANCH  34  40
ENDBRANCH   9  33
BRANCH   6  46
HETATM   46  O5  UNL     1      -3.528  11.564  62.164  1.00  0.00    -0.288 OA
ATOM     47  H5  UNL     1      -3.724  10.825  62.727  1.00  0.00     0.244 HD
ENDBRANCH   6  46
TORSDOF 16
ENDMDL