MODEL 4
REMARK VINA RESULT: -5.874215074      2.950      8.103
REMARK  18 active torsions:
REMARK  status: ('A' for Active; 'I' for Inactive)
REMARK    1  A    between atoms: N1_2  and  C2_4
REMARK    2  A    between atoms: C3_5  and  N2_6
REMARK    3  A    between atoms: C5_11  and  N3_12
REMARK    4  A    between atoms: C6_16  and  O1_17
REMARK    5  A    between atoms: O1_17  and  C7_18
REMARK    6  A    between atoms: C8_19  and  N4_20
REMARK    7  A    between atoms: C10_27  and  C11_28
REMARK    8  A    between atoms: C11_28  and  O3_30
REMARK    9  A    between atoms: N6_35  and  O4_36
REMARK   10  A    between atoms: N7_39  and  C17_40
REMARK   11  A    between atoms: C17_40  and  O5_41
REMARK   12  A    between atoms: C18_43  and  O6_44
REMARK   13  A    between atoms: O6_44  and  C19_45
REMARK   14  A    between atoms: C19_45  and  O7_46
REMARK   15  A    between atoms: C19_45  and  C20_48
REMARK   16  A    between atoms: C20_48  and  O8_49
REMARK   17  A    between atoms: C20_48  and  C21_51
REMARK   18  A    between atoms: C21_51  and  O9_52
ROOT
HETATM    1  C2  UNL     1      -3.618  12.079  54.993  1.00  0.00     0.138 C
HETATM    2  C3  UNL     1      -4.899  11.848  54.301  1.00  0.00     0.210 C
HETATM    3  C4  UNL     1      -5.914  11.304  55.287  1.00  0.00     0.070 C
HETATM    4  C5  UNL     1      -5.462  11.252  56.688  1.00  0.00     0.217 C
HETATM    5  C6  UNL     1      -4.059  10.746  56.950  1.00  0.00     0.185 C
HETATM    6  C18 UNL     1      -3.170  10.815  55.740  1.00  0.00     0.180 C
ENDROOT
BRANCH   5   7
HETATM    7  O1  UNL     1      -3.524  11.283  58.102  1.00  0.00    -0.345 OA
BRANCH   7   8
HETATM    8  C7  UNL     1      -4.352  10.916  59.171  1.00  0.00     0.397 C
HETATM    9  C8  UNL     1      -3.881   9.867  60.076  1.00  0.00     0.268 C
HETATM   10  C9  UNL     1      -4.501  10.181  61.456  1.00  0.00     0.162 C
HETATM   11  N5  UNL     1      -3.616  10.066  62.520  1.00  0.00    -0.398 N
HETATM   12  C16 UNL     1      -5.056  11.553  61.208  1.00  0.00     0.353 C
HETATM   13  C10 UNL     1      -3.469  11.092  63.479  1.00  0.00     0.202 C
ATOM     14  H5  UNL     1      -3.056   9.217  62.611  1.00  0.00     0.154 HD
HETATM   15  C13 UNL     1      -4.870  11.752  63.610  1.00  0.00     0.063 C
HETATM   16  C14 UNL     1      -5.950  10.727  63.876  1.00  0.00     0.037 C
HETATM   17  C15 UNL     1      -4.933  12.749  64.699  1.00  0.00     0.037 C
HETATM   18  N6  UNL     1      -5.078  12.431  62.351  1.00  0.00    -0.153 NA
HETATM   19  N7  UNL     1      -4.408  12.108  60.078  1.00  0.00     0.164 N
BRANCH   9  20
HETATM   20  N4  UNL     1      -4.353   8.595  59.593  1.00  0.00    -0.069 N
ATOM     21  H43 UNL     1      -3.672   8.127  58.995  1.00  0.00     0.275 HD
ATOM     22  H42 UNL     1      -4.401   7.891  60.329  1.00  0.00     0.275 HD
ATOM     23  H41 UNL     1      -5.250   8.735  59.127  1.00  0.00     0.275 HD
ENDBRANCH   9  20
BRANCH  13  24
HETATM   24  C11 UNL     1      -3.089  10.564  64.814  1.00  0.00     0.283 C
HETATM   25  O2  UNL     1      -3.606   9.672  65.479  1.00  0.00    -0.263 OA
BRANCH  24  26
HETATM   26  O3  UNL     1      -1.947  11.209  65.357  1.00  0.00    -0.325 OA
HETATM   27  C12 UNL     1      -1.856  11.798  66.624  1.00  0.00     0.213 C
ENDBRANCH  24  26
ENDBRANCH  13  24
BRANCH  18  28
HETATM   28  O4  UNL     1      -6.217  13.130  62.469  1.00  0.00    -0.310 OA
ATOM     29  H4  UNL     1      -6.608  13.166  61.605  1.00  0.00     0.237 HD
ENDBRANCH  18  28
BRANCH  19  30
HETATM   30  C17 UNL     1      -3.066  12.545  60.216  1.00  0.00     0.443 C
BRANCH  30  31
HETATM   31  O5  UNL     1      -2.693  13.534  59.335  1.00  0.00    -0.372 OA
ATOM     32  H5  UNL     1      -2.542  13.235  58.446  1.00  0.00     0.211 HD
ENDBRANCH  30  31
ENDBRANCH  19  30
ENDBRANCH   7   8
ENDBRANCH   5   7
BRANCH   4  33
HETATM   33  N3  UNL     1      -6.424  10.385  57.390  1.00  0.00    -0.072 N
ATOM     34  H33 UNL     1      -6.075   9.440  57.557  1.00  0.00     0.274 HD
ATOM     35  H32 UNL     1      -6.563  10.639  58.368  1.00  0.00     0.274 HD
ATOM     36  H31 UNL     1      -7.280  10.411  56.836  1.00  0.00     0.274 HD
ENDBRANCH   4  33
BRANCH   6  37
HETATM   37  O6  UNL     1      -3.409   9.666  55.078  1.00  0.00    -0.349 OA
BRANCH  37  38
HETATM   38  C19 UNL     1      -2.530   8.733  54.761  1.00  0.00     0.288 C
BRANCH  38  39
HETATM   39  O7  UNL     1      -2.042   9.389  53.394  1.00  0.00    -0.369 OA
ATOM     40  H7  UNL     1      -2.555  10.186  53.463  1.00  0.00     0.212 HD
ENDBRANCH  38  39
BRANCH  38  41
HETATM   41  C20 UNL     1      -1.251   8.776  55.508  1.00  0.00     0.196 C
BRANCH  41  42
HETATM   42  O8  UNL     1      -0.964   7.525  56.103  1.00  0.00    -0.389 OA
ATOM     43  H8  UNL     1      -0.480   6.965  55.509  1.00  0.00     0.210 HD
ENDBRANCH  41  42
BRANCH  41  44
HETATM   44  C21 UNL     1      -0.024   8.951  54.540  1.00  0.00     0.200 C
BRANCH  44  45
HETATM   45  O9  UNL     1       0.162   7.702  53.966  1.00  0.00    -0.398 OA
ATOM     46  H9  UNL     1       1.093   7.651  53.785  1.00  0.00     0.209 HD
ENDBRANCH  44  45
ENDBRANCH  41  44
ENDBRANCH  38  41
ENDBRANCH  37  38
ENDBRANCH   6  37
BRANCH   1  47
HETATM   47  N1  UNL     1      -2.586  12.499  54.104  1.00  0.00    -0.417 N
HETATM   48  C1  UNL     1      -1.269  12.498  54.641  1.00  0.00     0.140 C
ATOM     49  H1  UNL     1      -2.780  12.783  53.143  1.00  0.00     0.153 HD
ENDBRANCH   1  47
BRANCH   2  50
HETATM   50  N2  UNL     1      -5.394  13.074  53.691  1.00  0.00    -0.073 N
ATOM     51  H23 UNL     1      -4.713  13.473  53.044  1.00  0.00     0.274 HD
ATOM     52  H22 UNL     1      -6.147  12.887  53.028  1.00  0.00     0.274 HD
ATOM     53  H21 UNL     1      -5.678  13.749  54.401  1.00  0.00     0.274 HD
ENDBRANCH   2  50
TORSDOF 18
ENDMDL