MODEL 3
REMARK VINA RESULT: -6.982070181      2.520      8.017
REMARK  17 active torsions:
REMARK  status: ('A' for Active; 'I' for Inactive)
REMARK    1  A    between atoms: C3_3  and  C4_4
REMARK    2  A    between atoms: C4_4  and  N1_5
REMARK    3  A    between atoms: C4_4  and  N2_8
REMARK    4  A    between atoms: N2_8  and  N3_10
REMARK    5  A    between atoms: C8_22  and  S1_23
REMARK    6  A    between atoms: S1_23  and  N7_24
REMARK    7  A    between atoms: N8_29  and  N9_30
REMARK    8  A    between atoms: N11_38  and  N12_39
REMARK    9  A    between atoms: N12_39  and  C11_41
REMARK   10  A    between atoms: C11_41  and  O3_42
REMARK   11  A    between atoms: C11_41  and  N13_44
REMARK   12  A    between atoms: N13_44  and  C12_46
REMARK   13  A    between atoms: C12_46  and  O4_47
REMARK   14  A    between atoms: C12_46  and  C13_49
REMARK   15  A    between atoms: C13_49  and  C14_50
REMARK   16  A    between atoms: C14_50  and  C15_51
REMARK   17  A    between atoms: C15_51  and  N14_52
ROOT
HETATM    1  C1  UNL     1      -5.971  15.102  56.226  1.00  0.00     0.074 C
HETATM    2  C2  UNL     1      -5.116  13.891  56.186  1.00  0.00     0.080 A
HETATM    3  C3  UNL     1      -3.960  13.731  55.446  1.00  0.00     0.128 A
HETATM    4  N4  UNL     1      -3.589  12.471  55.701  1.00  0.00    -0.123 N
HETATM    5  C5  UNL     1      -2.418  11.891  55.307  1.00  0.00     0.154 C
HETATM    6  N5  UNL     1      -1.402  12.616  55.411  1.00  0.00    -0.383 N
ATOM      7  H51 UNL     1      -0.527  12.183  55.118  1.00  0.00     0.157 HD
ATOM      8  H52 UNL     1      -1.490  13.580  55.732  1.00  0.00     0.157 HD
HETATM    9  C6  UNL     1      -2.299  10.595  54.876  1.00  0.00     0.133 A
HETATM   10  C7  UNL     1      -3.033   9.494  55.327  1.00  0.00     0.106 A
HETATM   11  N6  UNL     1      -2.575   8.449  54.649  1.00  0.00    -0.325 N
ATOM     12  H6  UNL     1      -2.915   7.493  54.757  1.00  0.00     0.168 HD
HETATM   13  C8  UNL     1      -1.592   8.829  53.793  1.00  0.00     0.245 A
HETATM   14  N8  UNL     1      -1.450  10.143  53.956  1.00  0.00    -0.229 N
HETATM   15  C9  UNL     1      -4.033   9.467  56.284  1.00  0.00     0.145 C
HETATM   16  S2  UNL     1      -4.735   8.025  56.573  1.00  0.00    -0.057 SA
HETATM   17  N10 UNL     1      -4.447  10.563  56.984  1.00  0.00    -0.177 N
ATOM     18  H10 UNL     1      -4.774  10.395  57.935  1.00  0.00     0.185 HD
HETATM   19  C10 UNL     1      -4.473  11.864  56.551  1.00  0.00     0.713 A
HETATM   20  N11 UNL     1      -5.425  12.736  56.866  1.00  0.00    -0.089 N
ENDROOT
BRANCH  20  21
HETATM   21  N12 UNL     1      -6.519  12.621  57.726  1.00  0.00    -0.269 N
ATOM     22  H12 UNL     1      -6.521  13.258  58.523  1.00  0.00     0.186 HD
BRANCH  21  23
HETATM   23  C11 UNL     1      -7.632  11.737  57.643  1.00  0.00     0.340 C
BRANCH  23  24
HETATM   24  O3  UNL     1      -7.692  11.174  56.379  1.00  0.00    -0.359 OA
ATOM     25  H3  UNL     1      -8.561  10.826  56.221  1.00  0.00     0.214 HD
ENDBRANCH  23  24
BRANCH  23  26
HETATM   26  N13 UNL     1      -7.630  10.826  58.733  1.00  0.00    -0.354 N
ATOM     27  H13 UNL     1      -7.496  11.130  59.697  1.00  0.00     0.160 HD
BRANCH  26  28
HETATM   28  C12 UNL     1      -7.833   9.421  58.379  1.00  0.00     0.216 C
BRANCH  28  29
HETATM   29  O4  UNL     1      -9.131   9.314  57.866  1.00  0.00    -0.377 OA
ATOM     30  H4  UNL     1      -9.636   8.812  58.494  1.00  0.00     0.212 HD
ENDBRANCH  28  29
BRANCH  28  31
HETATM   31  C13 UNL     1      -7.612   8.540  59.549  1.00  0.00     0.055 C
BRANCH  31  32
HETATM   32  C14 UNL     1      -7.682   7.090  59.220  1.00  0.00     0.031 C
BRANCH  32  33
HETATM   33  C15 UNL     1      -8.746   6.348  59.956  1.00  0.00     0.230 C
BRANCH  33  34
HETATM   34  N14 UNL     1     -10.000   7.026  59.786  1.00  0.00    -0.079 N
ATOM     35 3H14 UNL     1      -9.952   8.004  60.071  1.00  0.00     0.274 HD
ATOM     36 2H14 UNL     1     -10.230   7.173  58.804  1.00  0.00     0.274 HD
ATOM     37 1H14 UNL     1     -10.729   6.514  60.282  1.00  0.00     0.274 HD
ENDBRANCH  33  34
ENDBRANCH  32  33
ENDBRANCH  31  32
ENDBRANCH  28  31
ENDBRANCH  26  28
ENDBRANCH  23  26
ENDBRANCH  21  23
ENDBRANCH  20  21
BRANCH   3  38
HETATM   38  C4  UNL     1      -3.268  14.722  54.649  1.00  0.00     0.143 C
BRANCH  38  39
HETATM   39  N1  UNL     1      -3.201  14.682  53.386  1.00  0.00    -0.383 N
ATOM     40  H12 UNL     1      -2.272  14.409  53.066  1.00  0.00     0.157 HD
ATOM     41  H11 UNL     1      -4.013  14.771  52.776  1.00  0.00     0.157 HD
ENDBRANCH  38  39
BRANCH  38  42
HETATM   42  N2  UNL     1      -2.406  15.751  55.200  1.00  0.00    -0.291 N
ATOM     43  H2  UNL     1      -2.056  16.492  54.592  1.00  0.00     0.188 HD
BRANCH  42  44
HETATM   44  N3  UNL     1      -2.051  15.741  56.547  1.00  0.00    -0.344 N
ATOM     45  H32 UNL     1      -2.283  14.920  57.106  1.00  0.00     0.176 HD
ATOM     46  H31 UNL     1      -1.570  16.537  56.969  1.00  0.00     0.176 HD
ENDBRANCH  42  44
ENDBRANCH  38  42
ENDBRANCH   3  38
BRANCH  14  47
HETATM   47  N9  UNL     1      -0.546  10.952  53.260  1.00  0.00    -0.336 N
ATOM     48  H92 UNL     1       0.321  11.331  53.641  1.00  0.00     0.177 HD
ATOM     49  H91 UNL     1      -0.667  11.240  52.289  1.00  0.00     0.177 HD
ENDBRANCH  14  47
BRANCH  13  50
HETATM   50  S1  UNL     1      -0.750   7.732  52.741  1.00  0.00     0.290 S
HETATM   51  O1  UNL     1       0.344   7.074  53.547  1.00  0.00    -0.198 OA
HETATM   52  O2  UNL     1      -1.668   6.625  52.290  1.00  0.00    -0.198 OA
BRANCH  50  53
HETATM   53  N7  UNL     1      -0.128   8.491  51.339  1.00  0.00    -0.322 N
ATOM     54  H72 UNL     1       0.832   8.828  51.277  1.00  0.00     0.169 HD
ATOM     55  H71 UNL     1      -0.814   8.566  50.587  1.00  0.00     0.169 HD
ENDBRANCH  50  53
ENDBRANCH  13  50
TORSDOF 17
ENDMDL