MODEL 4
REMARK VINA RESULT: -7.387592263      2.657      5.060
REMARK  18 active torsions:
REMARK  status: ('A' for Active; 'I' for Inactive)
REMARK    1  A    between atoms: C2_2  and  C3_3
REMARK    2  A    between atoms: C3_3  and  C4_4
REMARK    3  A    between atoms: C4_4  and  N1_5
REMARK    4  A    between atoms: C4_4  and  C12_17
REMARK       I    between atoms: N1_5  and  C5_7
REMARK    5  A    between atoms: C5_7  and  C6_9
REMARK    6  A    between atoms: C6_9  and  C7_11
REMARK    7  A    between atoms: C7_11  and  O3_12
REMARK    8  A    between atoms: O3_12  and  C8_13
REMARK    9  A    between atoms: C12_17  and  N2_18
REMARK   10  A    between atoms: N2_18  and  C13_19
REMARK   11  A    between atoms: N2_18  and  C18_29
REMARK   12  A    between atoms: C13_19  and  O4_20
REMARK   13  A    between atoms: C13_19  and  C14_22
REMARK   14  A    between atoms: C18_29  and  C21_32
REMARK   15  A    between atoms: C24_35  and  C25_36
REMARK   16  A    between atoms: C25_36  and  O6_37
REMARK   17  A    between atoms: C25_36  and  N4_39
REMARK   18  A    between atoms: C29_43  and  C30_44
ROOT
HETATM    1  N2  UNL     1      14.325  21.249  17.201  1.00  0.00    -0.332 N
ENDROOT
BRANCH   1   2
HETATM    2  C12 UNL     1      15.087  22.449  17.381  1.00  0.00     0.078 A
HETATM    3  C31 UNL     1      15.223  22.868  18.848  1.00  0.00     0.045 A
HETATM    4  C32 UNL     1      14.692  23.790  17.765  1.00  0.00     0.018 A
HETATM    5  C33 UNL     1      13.579  24.606  18.196  1.00  0.00     0.013 C
BRANCH   2   6
HETATM    6  C4  UNL     1      16.472  22.550  16.651  1.00  0.00     0.019 C
BRANCH   6   7
HETATM    7  C3  UNL     1      16.936  21.485  15.797  1.00  0.00     0.055 C
BRANCH   7   8
HETATM    8  C2  UNL     1      17.553  21.903  14.457  1.00  0.00     0.001 C
HETATM    9  C1  UNL     1      19.066  21.815  14.510  1.00  0.00     0.005 C
ENDBRANCH   7   8
ENDBRANCH   6   7
BRANCH   6  10
HETATM   10  N1  UNL     1      16.868  23.907  16.526  1.00  0.00    -0.325 N
HETATM   11  C5  UNL     1      17.866  24.679  17.091  1.00  0.00     0.293 C
HETATM   12  O1  UNL     1      18.745  24.316  17.910  1.00  0.00    -0.264 OA
ATOM     13  H1  UNL     1      16.286  24.431  15.873  1.00  0.00     0.169 HD
BRANCH  11  14
HETATM   14  C6  UNL     1      17.936  26.108  16.704  1.00  0.00     0.240 C
HETATM   15  O2  UNL     1      17.485  26.996  17.496  1.00  0.00    -0.285 OA
BRANCH  14  16
HETATM   16  C7  UNL     1      18.519  26.525  15.425  1.00  0.00     0.257 C
BRANCH  16  17
HETATM   17  O3  UNL     1      18.443  25.526  14.499  1.00  0.00    -0.373 OA
BRANCH  17  18
HETATM   18  C8  UNL     1      18.080  25.895  13.232  1.00  0.00     0.050 C
HETATM   19  C9  UNL     1      17.665  27.347  13.132  1.00  0.00     0.045 C
HETATM   20  C10 UNL     1      16.972  25.004  12.701  1.00  0.00     0.045 C
HETATM   21  C11 UNL     1      19.286  25.693  12.326  1.00  0.00     0.045 C
ENDBRANCH  17  18
ENDBRANCH  16  17
ENDBRANCH  14  16
ENDBRANCH  11  14
ENDBRANCH   6  10
ENDBRANCH   2   6
ENDBRANCH   1   2
BRANCH   1  22
HETATM   22  C13 UNL     1      14.187  20.214  18.146  1.00  0.00     0.169 C
BRANCH  22  23
HETATM   23  O4  UNL     1      15.315  19.617  18.523  1.00  0.00    -0.344 OA
ATOM     24  H4  UNL     1      15.219  18.891  19.129  1.00  0.00     0.219 HD
ENDBRANCH  22  23
BRANCH  22  25
HETATM   25  C14 UNL     1      13.116  19.575  18.860  1.00  0.00     0.107 A
HETATM   26  C15 UNL     1      12.707  18.248  18.612  1.00  0.00     0.178 A
HETATM   27  O5  UNL     1      11.719  17.951  19.416  1.00  0.00    -0.308 OA
HETATM   28  C16 UNL     1      11.431  18.954  20.174  1.00  0.00     0.119 A
HETATM   29  C17 UNL     1      10.378  19.035  21.220  1.00  0.00     0.098 C
HETATM   30  N3  UNL     1      12.264  19.904  19.834  1.00  0.00    -0.336 N
ATOM     31  H3  UNL     1      12.263  20.823  20.277  1.00  0.00     0.168 HD
ENDBRANCH  22  25
ENDBRANCH   1  22
BRANCH   1  32
HETATM   32  C18 UNL     1      13.678  20.925  15.901  1.00  0.00     0.057 C
HETATM   33  C19 UNL     1      13.759  21.951  14.852  1.00  0.00     0.044 C
HETATM   34  C20 UNL     1      14.676  19.837  15.335  1.00  0.00     0.044 C
BRANCH  32  35
HETATM   35  C21 UNL     1      12.395  20.255  15.845  1.00  0.00    -0.014 A
HETATM   36  C22 UNL     1      12.240  19.049  15.145  1.00  0.00     0.012 A
HETATM   37  C23 UNL     1      11.048  18.342  15.046  1.00  0.00     0.016 A
HETATM   38  C24 UNL     1       9.918  18.777  15.632  1.00  0.00     0.016 A
HETATM   39  C28 UNL     1      10.035  19.986  16.340  1.00  0.00     0.034 A
HETATM   40  C29 UNL     1      11.223  20.676  16.429  1.00  0.00     0.050 A
BRANCH  38  41
HETATM   41  C25 UNL     1       8.657  18.113  15.596  1.00  0.00     0.147 C
BRANCH  41  42
HETATM   42  O6  UNL     1       7.812  18.596  14.709  1.00  0.00    -0.346 OA
ATOM     43  H6  UNL     1       6.911  18.318  14.831  1.00  0.00     0.219 HD
ENDBRANCH  41  42
BRANCH  41  44
HETATM   44  N4  UNL     1       8.140  17.048  16.322  1.00  0.00    -0.370 N
HETATM   45  C26 UNL     1       8.683  16.480  17.522  1.00  0.00     0.151 C
HETATM   46  C27 UNL     1       6.884  16.397  15.840  1.00  0.00     0.151 C
ENDBRANCH  41  44
ENDBRANCH  38  41
BRANCH  40  47
HETATM   47  C30 UNL     1      11.157  21.946  17.120  1.00  0.00     0.210 C
HETATM   48  O7  UNL     1      11.314  22.166  18.327  1.00  0.00    -0.644 OA
HETATM   49  O8  UNL     1      10.874  23.032  16.314  1.00  0.00    -0.644 OA
ENDBRANCH  40  47
ENDBRANCH  32  35
ENDBRANCH   1  32
TORSDOF 18
ENDMDL