MODEL 4
REMARK VINA RESULT: -8.945852763      2.448     10.395
REMARK  12 active torsions:
REMARK  status: ('A' for Active; 'I' for Inactive)
REMARK    1  A    between atoms: C2_2  and  C3_3
REMARK    2  A    between atoms: C3_3  and  N1_4
REMARK    3  A    between atoms: N1_4  and  C4_5
REMARK       I    between atoms: N1_4  and  C21_26
REMARK    4  A    between atoms: C4_5  and  C5_6
REMARK    5  A    between atoms: C5_6  and  C6_7
REMARK    6  A    between atoms: C6_7  and  C7_8
REMARK    7  A    between atoms: C7_8  and  C8_9
REMARK    8  A    between atoms: C8_9  and  C9_10
REMARK       I    between atoms: C9_10  and  N2_12
REMARK    9  A    between atoms: C21_26  and  C22_28
REMARK   10  A    between atoms: C23_29  and  N4_30
REMARK   11  A    between atoms: N7_41  and  C29_42
REMARK   12  A    between atoms: C29_42  and  C30_43
ROOT
HETATM    1  N1  UNL     1      12.067  21.198  18.333  1.00  0.00    -0.344 N
HETATM    2  C21 UNL     1      11.649  21.076  17.002  1.00  0.00     0.263 C
HETATM    3  O2  UNL     1      11.426  22.141  16.322  1.00  0.00    -0.267 OA
ENDROOT
BRANCH   1   4
HETATM    4  C3  UNL     1      12.349  19.992  19.164  1.00  0.00     0.152 C
BRANCH   4   5
HETATM    5  C2  UNL     1      11.299  19.713  20.148  1.00  0.00    -0.017 C
HETATM    6  C1  UNL     1      10.286  18.887  20.017  1.00  0.00     0.008 C
ENDBRANCH   4   5
ENDBRANCH   1   4
BRANCH   1   7
HETATM    7  C4  UNL     1      12.254  22.454  19.031  1.00  0.00     0.126 C
BRANCH   7   8
HETATM    8  C5  UNL     1      13.573  23.079  19.018  1.00  0.00     0.020 C
BRANCH   8   9
HETATM    9  C6  UNL     1      14.496  23.058  20.153  1.00  0.00     0.002 C
BRANCH   9  10
HETATM   10  C7  UNL     1      15.085  24.339  20.616  1.00  0.00     0.009 C
BRANCH  10  11
HETATM   11  C8  UNL     1      16.565  24.391  20.746  1.00  0.00     0.103 C
BRANCH  11  12
HETATM   12  C9  UNL     1      17.240  25.314  19.820  1.00  0.00     0.220 C
HETATM   13  O1  UNL     1      17.344  26.525  20.145  1.00  0.00    -0.273 OA
HETATM   14  N2  UNL     1      17.782  24.882  18.572  1.00  0.00    -0.348 N
HETATM   15  C10 UNL     1      17.687  23.507  18.165  1.00  0.00     0.130 C
HETATM   16  C20 UNL     1      18.433  25.837  17.718  1.00  0.00     0.165 C
HETATM   17  C11 UNL     1      17.001  23.454  16.815  1.00  0.00     0.059 C
HETATM   18  C12 UNL     1      17.796  24.266  15.870  1.00  0.00    -0.048 A
HETATM   19  C13 UNL     1      17.866  23.898  14.548  1.00  0.00     0.010 A
HETATM   20  C19 UNL     1      18.471  25.387  16.293  1.00  0.00    -0.021 A
HETATM   21  C14 UNL     1      18.608  24.640  13.629  1.00  0.00     0.031 A
HETATM   22  C15 UNL     1      19.289  25.764  14.040  1.00  0.00     0.043 A
HETATM   23  N3  UNL     1      20.076  26.666  13.396  1.00  0.00    -0.365 N
HETATM   24  C18 UNL     1      19.210  26.129  15.386  1.00  0.00     0.000 A
HETATM   25  C16 UNL     1      20.511  27.598  14.259  1.00  0.00     0.089 A
ATOM     26  H3  UNL     1      20.303  26.639  12.402  1.00  0.00     0.165 HD
HETATM   27  C17 UNL     1      19.978  27.269  15.491  1.00  0.00     0.031 A
ENDBRANCH  11  12
ENDBRANCH  10  11
ENDBRANCH   9  10
ENDBRANCH   8   9
ENDBRANCH   7   8
ENDBRANCH   1   7
BRANCH   2  28
HETATM   28  C22 UNL     1      11.417  19.863  16.251  1.00  0.00     0.144 A
HETATM   29  C23 UNL     1      12.383  19.222  15.552  1.00  0.00     0.138 A
HETATM   30  N6  UNL     1      12.022  18.086  14.865  1.00  0.00    -0.293 N
HETATM   31  C28 UNL     1      10.763  17.614  14.876  1.00  0.00     0.331 A
ATOM     32  H6  UNL     1      12.733  17.584  14.332  1.00  0.00     0.172 HD
HETATM   33  O3  UNL     1      10.477  16.558  14.225  1.00  0.00    -0.246 OA
HETATM   34  N7  UNL     1       9.776  18.232  15.562  1.00  0.00    -0.259 N
HETATM   35  C34 UNL     1      10.104  19.338  16.237  1.00  0.00     0.271 A
HETATM   36  O5  UNL     1       9.182  19.908  16.873  1.00  0.00    -0.267 OA
BRANCH  29  37
HETATM   37  N4  UNL     1      13.709  19.705  15.483  1.00  0.00    -0.295 N
HETATM   38  C24 UNL     1      14.722  19.380  16.339  1.00  0.00     0.190 A
HETATM   39  N5  UNL     1      15.834  20.031  16.000  1.00  0.00    -0.360 N
HETATM   40  C25 UNL     1      15.598  20.797  14.925  1.00  0.00     0.114 A
ATOM     41  H5  UNL     1      16.729  19.958  16.484  1.00  0.00     0.166 HD
HETATM   42  C26 UNL     1      14.265  20.584  14.612  1.00  0.00     0.030 A
HETATM   43  C27 UNL     1      13.557  21.249  13.481  1.00  0.00     0.070 C
ENDBRANCH  29  37
BRANCH  34  44
HETATM   44  C29 UNL     1       8.439  17.685  15.521  1.00  0.00     0.202 C
BRANCH  44  45
HETATM   45  C30 UNL     1       8.071  16.890  16.707  1.00  0.00     0.071 A
HETATM   46  C31 UNL     1       6.805  16.492  17.066  1.00  0.00     0.036 A
HETATM   47  C32 UNL     1       6.917  15.767  18.243  1.00  0.00     0.027 A
HETATM   48  C33 UNL     1       8.264  15.765  18.535  1.00  0.00     0.142 A
HETATM   49  O4  UNL     1       8.906  16.435  17.609  1.00  0.00    -0.325 OA
ENDBRANCH  44  45
ENDBRANCH  34  44
ENDBRANCH   2  28
TORSDOF 12
ENDMDL