MODEL 3
REMARK VINA RESULT: -9.785215860      2.073      4.881
REMARK  12 active torsions:
REMARK  status: ('A' for Active; 'I' for Inactive)
REMARK    1  A    between atoms: C5_5  and  O1_6
REMARK    2  A    between atoms: O1_6  and  C6_7
REMARK    3  A    between atoms: C6_7  and  C7_8
REMARK    4  A    between atoms: C7_8  and  N1_9
REMARK    5  A    between atoms: C12_15  and  C13_16
REMARK    6  A    between atoms: C14_19  and  C15_20
REMARK    7  A    between atoms: C15_20  and  C16_21
REMARK    8  A    between atoms: C16_21  and  N3_22
REMARK    9  A    between atoms: C19_26  and  O3_27
REMARK   10  A    between atoms: O3_27  and  C20_28
REMARK   11  A    between atoms: C20_28  and  C21_29
REMARK   12  A    between atoms: C21_29  and  N4_30
ROOT
HETATM    1  C15 UNL     1      12.415  18.823  15.822  1.00  0.00     0.076 C
ENDROOT
BRANCH   1   2
HETATM    2  C14 UNL     1      13.394  19.820  15.326  1.00  0.00     0.011 A
HETATM    3  N2  UNL     1      14.631  20.100  15.773  1.00  0.00    -0.358 N
HETATM    4  C13 UNL     1      15.228  21.068  15.057  1.00  0.00     0.051 A
ATOM      5  H2  UNL     1      15.067  19.631  16.567  1.00  0.00     0.166 HD
HETATM    6  C33 UNL     1      14.307  21.423  14.095  1.00  0.00    -0.033 A
HETATM    7  C32 UNL     1      13.151  20.642  14.256  1.00  0.00     0.034 A
HETATM    8  C34 UNL     1      14.343  22.458  13.024  1.00  0.00     0.050 C
BRANCH   4   9
HETATM    9  C12 UNL     1      16.518  21.731  15.246  1.00  0.00     0.025 A
HETATM   10  C5  UNL     1      16.709  22.616  16.338  1.00  0.00     0.081 A
HETATM   11  C4  UNL     1      17.983  23.166  16.549  1.00  0.00     0.038 A
HETATM   12  C3  UNL     1      19.000  22.837  15.699  1.00  0.00     0.009 A
HETATM   13  C2  UNL     1      18.870  21.993  14.633  1.00  0.00    -0.061 A
HETATM   14  C1  UNL     1      19.992  21.652  13.724  1.00  0.00     0.048 C
HETATM   15  C35 UNL     1      17.595  21.456  14.444  1.00  0.00     0.023 A
BRANCH  10  16
HETATM   16  O1  UNL     1      15.669  22.875  17.098  1.00  0.00    -0.348 OA
BRANCH  16  17
HETATM   17  C6  UNL     1      14.658  23.665  17.470  1.00  0.00     0.206 C
BRANCH  17  18
HETATM   18  C7  UNL     1      14.846  24.763  18.448  1.00  0.00     0.299 C
BRANCH  18  19
HETATM   19  N1  UNL     1      16.028  24.799  19.223  1.00  0.00     0.094 N
HETATM   20  C8  UNL     1      16.847  25.918  18.723  1.00  0.00     0.298 C
HETATM   21  C9  UNL     1      18.242  25.696  19.264  1.00  0.00     0.198 C
HETATM   22  O2  UNL     1      18.153  24.973  20.450  1.00  0.00    -0.388 OA
HETATM   23  C10 UNL     1      17.109  25.434  21.255  1.00  0.00     0.198 C
HETATM   24  C11 UNL     1      15.761  25.176  20.618  1.00  0.00     0.298 C
ENDBRANCH  18  19
ENDBRANCH  17  18
ENDBRANCH  16  17
ENDBRANCH  10  16
ENDBRANCH   4   9
ENDBRANCH   1   2
BRANCH   1  25
HETATM   25  C16 UNL     1      11.022  19.397  15.810  1.00  0.00     0.126 C
BRANCH  25  26
HETATM   26  N3  UNL     1      10.381  19.418  17.087  1.00  0.00    -0.388 N
HETATM   27  C17 UNL     1       9.658  18.444  17.542  1.00  0.00     0.061 A
HETATM   28  C18 UNL     1       9.445  17.276  16.804  1.00  0.00     0.089 A
HETATM   29  C31 UNL     1       9.087  18.550  18.785  1.00  0.00     0.089 A
HETATM   30  C19 UNL     1       8.676  16.266  17.329  1.00  0.00     0.159 A
HETATM   31  N5  UNL     1       8.145  16.454  18.580  1.00  0.00    -0.273 N
HETATM   32  N6  UNL     1       8.335  17.546  19.289  1.00  0.00    -0.256 N
ATOM     33  H5  UNL     1       7.575  15.709  18.980  1.00  0.00     0.189 HD
HETATM   34  C26 UNL     1       7.893  17.914  20.530  1.00  0.00     0.031 A
HETATM   35  C27 UNL     1       7.026  17.037  21.381  1.00  0.00     0.070 C
HETATM   36  C28 UNL     1       8.370  19.169  20.822  1.00  0.00     0.035 A
HETATM   37  C29 UNL     1       9.115  19.561  19.731  1.00  0.00    -0.029 A
HETATM   38  C30 UNL     1       9.825  20.836  19.577  1.00  0.00     0.050 C
ATOM     39  H3  UNL     1      10.500  20.245  17.673  1.00  0.00     0.159 HD
BRANCH  30  40
HETATM   40  O3  UNL     1       8.405  15.093  16.692  1.00  0.00    -0.333 OA
BRANCH  40  41
HETATM   41  C20 UNL     1       7.705  14.955  15.508  1.00  0.00     0.207 C
BRANCH  41  42
HETATM   42  C21 UNL     1       6.371  15.643  15.443  1.00  0.00     0.299 C
BRANCH  42  43
HETATM   43  N4  UNL     1       5.402  14.869  16.181  1.00  0.00     0.094 N
HETATM   44  C22 UNL     1       4.854  15.517  17.333  1.00  0.00     0.298 C
HETATM   45  C23 UNL     1       4.229  16.838  16.912  1.00  0.00     0.198 C
HETATM   46  O4  UNL     1       3.516  16.735  15.743  1.00  0.00    -0.388 OA
HETATM   47  C24 UNL     1       3.166  15.463  15.367  1.00  0.00     0.198 C
HETATM   48  C25 UNL     1       4.305  14.484  15.301  1.00  0.00     0.298 C
ENDBRANCH  42  43
ENDBRANCH  41  42
ENDBRANCH  40  41
ENDBRANCH  30  40
ENDBRANCH  25  26
ENDBRANCH   1  25
TORSDOF 12
ENDMDL