MODEL 1
REMARK VINA RESULT: -9.066364732      0.000      0.000
REMARK  12 active torsions:
REMARK  status: ('A' for Active; 'I' for Inactive)
REMARK    1  A    between atoms: C5_5  and  C6_6
REMARK    2  A    between atoms: C7_8  and  C8_9
REMARK    3  A    between atoms: C8_9  and  C9_10
REMARK    4  A    between atoms: C9_10  and  C10_11
REMARK    5  A    between atoms: N2_13  and  C11_15
REMARK    6  A    between atoms: C14_20  and  N4_21
REMARK    7  A    between atoms: N5_27  and  C20_28
REMARK    8  A    between atoms: C20_28  and  C21_29
REMARK    9  A    between atoms: C21_29  and  O1_30
REMARK   10  A    between atoms: O1_30  and  C22_31
REMARK   11  A    between atoms: C22_31  and  C23_32
REMARK   12  A    between atoms: C23_32  and  N6_33
ROOT
HETATM    1  N4  UNL     1       8.987  18.819  20.050  1.00  0.00    -0.366 N
HETATM    2  C15 UNL     1       8.578  20.089  19.498  1.00  0.00     0.127 C
HETATM    3  C16 UNL     1       9.824  20.991  19.523  1.00  0.00     0.059 C
HETATM    4  C17 UNL     1      10.913  20.459  18.658  1.00  0.00     0.131 C
HETATM    5  C18 UNL     1      12.236  21.052  19.092  1.00  0.00     0.059 C
HETATM    6  C19 UNL     1      12.413  22.492  18.588  1.00  0.00     0.128 C
HETATM    7  N5  UNL     1      13.100  22.342  17.296  1.00  0.00    -0.349 N
HETATM    8  C28 UNL     1      12.660  21.474  16.255  1.00  0.00     0.245 C
HETATM    9  O3  UNL     1      13.209  21.658  15.157  1.00  0.00    -0.272 OA
HETATM   10  C29 UNL     1      11.620  20.386  16.358  1.00  0.00     0.335 C
HETATM   11  N7  UNL     1      10.580  20.784  17.284  1.00  0.00    -0.058 N
ATOM     12  H71 UNL     1      10.356  21.775  17.183  1.00  0.00     0.278 HD
ATOM     13  H72 UNL     1       9.679  20.386  17.019  1.00  0.00     0.278 HD
HETATM   14  C30 UNL     1      11.022  18.964  18.859  1.00  0.00     0.059 C
HETATM   15  C31 UNL     1      10.414  18.630  20.205  1.00  0.00     0.127 C
ENDROOT
BRANCH   1  16
HETATM   16  C14 UNL     1       8.040  17.765  20.405  1.00  0.00     0.122 A
HETATM   17  C6  UNL     1       7.687  16.734  19.583  1.00  0.00     0.060 A
HETATM   18  S1  UNL     1       6.643  15.823  20.652  1.00  0.00    -0.072 SA
HETATM   19  C7  UNL     1       6.740  16.811  22.022  1.00  0.00     0.053 A
HETATM   20  N3  UNL     1       7.547  17.769  21.614  1.00  0.00    -0.339 N
ATOM     21  H3  UNL     1       7.789  18.527  22.252  1.00  0.00     0.168 HD
BRANCH  17  22
HETATM   22  C5  UNL     1       7.998  16.353  18.224  1.00  0.00    -0.015 A
HETATM   23  C4  UNL     1       7.109  15.487  17.576  1.00  0.00     0.013 A
HETATM   24  C3  UNL     1       7.304  15.106  16.268  1.00  0.00     0.007 A
HETATM   25  C2  UNL     1       8.378  15.562  15.552  1.00  0.00    -0.062 A
HETATM   26  C1  UNL     1       8.594  15.154  14.136  1.00  0.00     0.048 C
HETATM   27  C33 UNL     1       9.256  16.407  16.162  1.00  0.00     0.007 A
HETATM   28  C32 UNL     1       9.045  16.785  17.489  1.00  0.00     0.013 A
ENDBRANCH  17  22
BRANCH  19  29
HETATM   29  C8  UNL     1       6.092  16.665  23.372  1.00  0.00     0.072 C
BRANCH  29  30
HETATM   30  C9  UNL     1       4.927  17.604  23.458  1.00  0.00     0.079 C
BRANCH  30  31
HETATM   31  C10 UNL     1       3.809  17.317  22.573  1.00  0.00     0.089 C
HETATM   32  N1  UNL     1       3.093  16.076  22.764  1.00  0.00    -0.088 NA
HETATM   33  N2  UNL     1       3.404  18.032  21.601  1.00  0.00    -0.378 N
ATOM     34  H2  UNL     1       2.600  17.656  21.099  1.00  0.00     0.160 HD
BRANCH  33  35
HETATM   35  C11 UNL     1       3.891  19.267  21.106  1.00  0.00     0.074 C
HETATM   36  C12 UNL     1       2.744  20.222  20.791  1.00  0.00     0.031 C
HETATM   37  C13 UNL     1       4.658  19.096  19.787  1.00  0.00     0.031 C
ENDBRANCH  33  35
ENDBRANCH  30  31
ENDBRANCH  29  30
ENDBRANCH  19  29
ENDBRANCH   1  16
BRANCH   7  38
HETATM   38  C20 UNL     1      14.285  23.104  17.048  1.00  0.00     0.152 C
BRANCH  38  39
HETATM   39  C21 UNL     1      15.545  22.399  17.452  1.00  0.00     0.187 C
BRANCH  39  40
HETATM   40  O1  UNL     1      16.552  22.625  16.557  1.00  0.00    -0.388 OA
BRANCH  40  41
HETATM   41  C22 UNL     1      17.306  23.747  16.768  1.00  0.00     0.198 C
BRANCH  41  42
HETATM   42  C23 UNL     1      17.674  23.893  18.224  1.00  0.00     0.298 C
BRANCH  42  43
HETATM   43  N6  UNL     1      17.736  25.240  18.670  1.00  0.00     0.094 N
HETATM   44  C24 UNL     1      16.607  26.052  18.359  1.00  0.00     0.298 C
HETATM   45  C25 UNL     1      15.364  25.721  19.156  1.00  0.00     0.198 C
HETATM   46  O2  UNL     1      15.654  25.071  20.352  1.00  0.00    -0.388 OA
HETATM   47  C26 UNL     1      16.791  25.712  20.877  1.00  0.00     0.198 C
HETATM   48  C27 UNL     1      18.028  25.333  20.071  1.00  0.00     0.298 C
ENDBRANCH  42  43
ENDBRANCH  41  42
ENDBRANCH  40  41
ENDBRANCH  39  40
ENDBRANCH  38  39
ENDBRANCH   7  38
TORSDOF 12
ENDMDL