MODEL 4
REMARK VINA RESULT: -9.641242139      2.338     10.987
REMARK  14 active torsions:
REMARK  status: ('A' for Active; 'I' for Inactive)
REMARK    1  A    between atoms: C2_2  and  C5_5
REMARK    2  A    between atoms: C5_5  and  O2_7
REMARK    3  A    between atoms: O2_7  and  C6_8
REMARK    4  A    between atoms: C6_8  and  C7_9
REMARK    5  A    between atoms: C7_9  and  N1_10
REMARK    6  A    between atoms: C10_13  and  C11_14
REMARK    7  A    between atoms: C11_14  and  N2_15
REMARK    8  A    between atoms: C14_18  and  C15_19
REMARK    9  A    between atoms: C17_21  and  C18_22
REMARK       I    between atoms: C18_22  and  N3_24
REMARK   10  A    between atoms: N3_24  and  C19_26
REMARK   11  A    between atoms: C19_26  and  C20_27
REMARK   12  A    between atoms: C20_27  and  C21_28
REMARK   13  A    between atoms: C21_28  and  N4_29
REMARK       I    between atoms: N4_29  and  C22_31
REMARK       I    between atoms: C22_31  and  N5_33
REMARK   14  A    between atoms: C25_36  and  C26_37
ROOT
HETATM    1  C15 UNL     1      14.275  20.479  16.103  1.00  0.00     0.039 A
HETATM    2  C16 UNL     1      14.798  21.495  15.333  1.00  0.00     0.072 A
HETATM    3  C17 UNL     1      16.083  21.131  14.966  1.00  0.00     0.168 A
HETATM    4  O5  UNL     1      16.283  19.958  15.505  1.00  0.00    -0.232 OA
HETATM    5  N6  UNL     1      15.241  19.558  16.173  1.00  0.00    -0.264 N
ATOM      6  H6  UNL     1      15.172  18.673  16.675  1.00  0.00     0.194 HD
ENDROOT
BRANCH   1   7
HETATM    7  C14 UNL     1      12.934  20.389  16.725  1.00  0.00     0.041 C
HETATM    8  C13 UNL     1      13.017  19.768  18.077  1.00  0.00     0.041 C
HETATM    9  C12 UNL     1      12.751  20.716  19.211  1.00  0.00     0.273 C
HETATM   10  N2  UNL     1      11.644  21.585  18.981  1.00  0.00     0.088 N
HETATM   11  C31 UNL     1      11.984  22.435  17.889  1.00  0.00     0.273 C
HETATM   12  C30 UNL     1      12.301  21.726  16.629  1.00  0.00     0.041 C
BRANCH  10  13
HETATM   13  C11 UNL     1      10.437  20.844  18.841  1.00  0.00     0.277 C
BRANCH  13  14
HETATM   14  C10 UNL     1       9.770  20.593  20.170  1.00  0.00     0.017 C
HETATM   15  C9  UNL     1       8.313  20.981  20.153  1.00  0.00     0.025 C
HETATM   16  C8  UNL     1       7.496  19.761  20.513  1.00  0.00     0.117 C
HETATM   17  N1  UNL     1       7.779  18.724  19.574  1.00  0.00    -0.410 N
HETATM   18  C33 UNL     1       9.110  18.222  19.681  1.00  0.00     0.117 C
HETATM   19  C32 UNL     1       9.988  19.133  20.524  1.00  0.00     0.025 C
BRANCH  17  20
HETATM   20  C7  UNL     1       6.751  17.761  19.366  1.00  0.00     0.143 C
BRANCH  20  21
HETATM   21  C6  UNL     1       7.241  16.590  18.574  1.00  0.00     0.198 C
BRANCH  21  22
HETATM   22  O2  UNL     1       7.109  16.833  17.173  1.00  0.00    -0.319 OA
BRANCH  22  23
HETATM   23  C5  UNL     1       8.129  16.478  16.312  1.00  0.00     0.266 C
HETATM   24  O1  UNL     1       8.546  15.291  16.379  1.00  0.00    -0.264 OA
BRANCH  23  25
HETATM   25  C2  UNL     1       8.744  17.403  15.333  1.00  0.00     0.037 C
HETATM   26  C1  UNL     1       9.660  16.641  14.411  1.00  0.00     0.025 C
HETATM   27  C3  UNL     1       9.478  18.515  16.060  1.00  0.00     0.025 C
HETATM   28  C4  UNL     1       7.636  18.022  14.500  1.00  0.00     0.025 C
ENDBRANCH  23  25
ENDBRANCH  22  23
ENDBRANCH  21  22
ENDBRANCH  20  21
ENDBRANCH  17  20
ENDBRANCH  13  14
ENDBRANCH  10  13
ENDBRANCH   1   7
BRANCH   3  29
HETATM   29  C18 UNL     1      16.986  21.943  14.139  1.00  0.00     0.281 C
HETATM   30  O3  UNL     1      18.159  21.535  14.084  1.00  0.00    -0.265 OA
HETATM   31  N3  UNL     1      16.530  23.070  13.484  1.00  0.00    -0.335 N
ATOM     32  H3  UNL     1      15.537  23.240  13.642  1.00  0.00     0.168 HD
BRANCH  31  33
HETATM   33  C19 UNL     1      17.120  24.038  12.651  1.00  0.00     0.066 C
BRANCH  33  34
HETATM   34  C20 UNL     1      17.208  25.450  13.034  1.00  0.00     0.064 C
BRANCH  34  35
HETATM   35  C21 UNL     1      18.337  25.968  13.824  1.00  0.00     0.129 C
BRANCH  35  36
HETATM   36  N4  UNL     1      18.021  26.200  15.225  1.00  0.00    -0.343 N
HETATM   37  C22 UNL     1      18.295  25.191  16.179  1.00  0.00     0.318 C
HETATM   38  O4  UNL     1      18.806  24.113  15.778  1.00  0.00    -0.247 OA
HETATM   39  N5  UNL     1      17.996  25.396  17.563  1.00  0.00    -0.334 N
HETATM   40  C23 UNL     1      17.412  26.593  18.115  1.00  0.00     0.128 C
HETATM   41  C29 UNL     1      18.244  24.422  18.604  1.00  0.00     0.132 C
HETATM   42  C24 UNL     1      17.236  26.310  19.590  1.00  0.00     0.026 C
HETATM   43  C25 UNL     1      17.169  24.800  19.623  1.00  0.00     0.009 C
ATOM     44  H4  UNL     1      17.605  27.084  15.518  1.00  0.00     0.164 HD
BRANCH  43  45
HETATM   45  C26 UNL     1      15.848  24.351  19.086  1.00  0.00    -0.009 A
HETATM   46  C27 UNL     1      15.778  22.941  18.628  1.00  0.00     0.005 A
HETATM   47  C28 UNL     1      14.979  23.398  19.814  1.00  0.00     0.005 A
ENDBRANCH  43  45
ENDBRANCH  35  36
ENDBRANCH  34  35
ENDBRANCH  33  34
ENDBRANCH  31  33
ENDBRANCH   3  29
TORSDOF 14
ENDMDL