MODEL 5
REMARK VINA RESULT: -9.792407399      2.640     12.030
REMARK  11 active torsions:
REMARK  status: ('A' for Active; 'I' for Inactive)
REMARK    1  A    between atoms: C2_2  and  N1_3
REMARK    2  A    between atoms: N3_13  and  C8_14
REMARK    3  A    between atoms: C8_14  and  C9_15
REMARK    4  A    between atoms: C9_15  and  C10_16
REMARK    5  A    between atoms: C10_16  and  N4_17
REMARK    6  A    between atoms: N4_17  and  C12_19
REMARK    7  A    between atoms: C12_19  and  C13_20
REMARK    8  A    between atoms: C13_20  and  C14_21
REMARK    9  A    between atoms: C14_21  and  N5_22
REMARK       I    between atoms: N5_22  and  C15_24
REMARK   10  A    between atoms: C15_24  and  C16_26
REMARK   11  A    between atoms: C26_38  and  C27_39
ROOT
HETATM    1  N5  UNL     1      14.087  19.445  15.990  1.00  0.00    -0.337 N
ATOM      2  H5  UNL     1      13.990  18.530  16.429  1.00  0.00     0.168 HD
HETATM    3  C15 UNL     1      12.866  20.107  15.781  1.00  0.00     0.255 C
HETATM    4  O3  UNL     1      12.807  21.218  15.247  1.00  0.00    -0.267 OA
ENDROOT
BRANCH   3   5
HETATM    5  C16 UNL     1      11.584  19.483  16.198  1.00  0.00     0.035 A
HETATM    6  C17 UNL     1      10.951  18.679  15.262  1.00  0.00     0.026 A
HETATM    7  C18 UNL     1       9.754  18.046  15.611  1.00  0.00    -0.028 A
HETATM    8  C19 UNL     1       9.243  18.229  16.844  1.00  0.00     0.070 A
HETATM    9  C33 UNL     1       9.034  17.198  14.642  1.00  0.00     0.043 C
HETATM   10  C20 UNL     1       9.872  19.027  17.768  1.00  0.00     0.062 A
HETATM   11  N8  UNL     1       8.126  17.684  17.333  1.00  0.00    -0.324 N
HETATM   12  C21 UNL     1      11.066  19.677  17.460  1.00  0.00     0.049 A
HETATM   13  N6  UNL     1       9.092  18.957  18.862  1.00  0.00    -0.339 N
HETATM   14  C22 UNL     1       8.034  18.137  18.583  1.00  0.00     0.136 A
ATOM     15  H6  UNL     1       9.261  19.435  19.747  1.00  0.00     0.167 HD
HETATM   16  C23 UNL     1       7.009  17.822  19.547  1.00  0.00     0.076 A
HETATM   17  C24 UNL     1       7.076  18.343  20.854  1.00  0.00     0.034 A
HETATM   18  N7  UNL     1       5.996  17.024  19.234  1.00  0.00    -0.362 N
HETATM   19  C25 UNL     1       6.116  18.022  21.760  1.00  0.00     0.019 A
HETATM   20  C26 UNL     1       5.068  17.189  21.423  1.00  0.00     0.025 A
HETATM   21  C29 UNL     1       5.060  16.716  20.134  1.00  0.00     0.103 A
ATOM     22  H7  UNL     1       5.931  16.640  18.292  1.00  0.00     0.165 HD
HETATM   23  C30 UNL     1       7.372  16.787  16.478  1.00  0.00     0.088 C
HETATM   24  C31 UNL     1       7.756  15.337  16.759  1.00  0.00     0.033 C
HETATM   25  C32 UNL     1       7.578  17.080  15.014  1.00  0.00     0.030 C
BRANCH  20  26
HETATM   26  C27 UNL     1       4.038  16.823  22.366  1.00  0.00     0.157 C
HETATM   27  C28 UNL     1       4.127  17.338  23.748  1.00  0.00     0.097 C
HETATM   28  O4  UNL     1       3.090  16.068  21.969  1.00  0.00    -0.293 OA
ENDBRANCH  20  26
ENDBRANCH   3   5
BRANCH   1  29
HETATM   29  C14 UNL     1      15.420  19.803  15.710  1.00  0.00     0.066 C
BRANCH  29  30
HETATM   30  C13 UNL     1      15.826  20.417  14.441  1.00  0.00     0.074 C
BRANCH  30  31
HETATM   31  C12 UNL     1      16.993  21.326  14.483  1.00  0.00     0.277 C
BRANCH  31  32
HETATM   32  N4  UNL     1      16.521  22.709  14.731  1.00  0.00     0.084 N
HETATM   33  C11 UNL     1      15.564  23.012  13.699  1.00  0.00     0.309 C
BRANCH  32  34
HETATM   34  C10 UNL     1      17.631  23.570  14.837  1.00  0.00     0.273 C
BRANCH  34  35
HETATM   35  C9  UNL     1      17.525  24.444  16.107  1.00  0.00     0.052 C
BRANCH  35  36
HETATM   36  C8  UNL     1      17.962  23.645  17.288  1.00  0.00     0.154 C
BRANCH  36  37
HETATM   37  N3  UNL     1      17.135  23.884  18.434  1.00  0.00    -0.253 N
HETATM   38  N1  UNL     1      17.422  24.844  19.405  1.00  0.00    -0.238 N
HETATM   39  C3  UNL     1      16.510  25.045  20.505  1.00  0.00     0.338 C
HETATM   40  O1  UNL     1      16.804  25.911  21.353  1.00  0.00    -0.245 OA
HETATM   41  N2  UNL     1      15.317  24.244  20.576  1.00  0.00    -0.324 N
HETATM   42  C4  UNL     1      14.756  23.779  19.307  1.00  0.00     0.110 C
ATOM     43  H2  UNL     1      14.883  24.011  21.469  1.00  0.00     0.165 HD
HETATM   44  C5  UNL     1      14.368  25.018  18.524  1.00  0.00     0.049 C
HETATM   45  C6  UNL     1      13.624  22.823  19.470  1.00  0.00     0.049 C
HETATM   46  C7  UNL     1      15.912  23.129  18.592  1.00  0.00     0.266 C
HETATM   47  O2  UNL     1      15.816  21.960  18.147  1.00  0.00    -0.269 OA
BRANCH  38  48
HETATM   48  C2  UNL     1      18.626  25.634  19.282  1.00  0.00     0.150 C
HETATM   49  C1  UNL     1      18.448  26.942  18.590  1.00  0.00     0.028 C
ENDBRANCH  38  48
ENDBRANCH  36  37
ENDBRANCH  35  36
ENDBRANCH  34  35
ENDBRANCH  32  34
ENDBRANCH  31  32
ENDBRANCH  30  31
ENDBRANCH  29  30
ENDBRANCH   1  29
TORSDOF 11
ENDMDL