MODEL 5
REMARK VINA RESULT: -8.452562262      1.580      1.961
REMARK  17 active torsions:
REMARK  status: ('A' for Active; 'I' for Inactive)
REMARK    1  A    between atoms: C2_2  and  C3_3
REMARK    2  A    between atoms: C3_3  and  N1_4
REMARK    3  A    between atoms: N1_4  and  C4_5
REMARK    4  A    between atoms: N1_4  and  C6_7
REMARK    5  A    between atoms: C6_7  and  O1_8
REMARK    6  A    between atoms: C6_7  and  N2_10
REMARK    7  A    between atoms: N3_13  and  C9_14
REMARK    8  A    between atoms: C12_17  and  C13_18
REMARK    9  A    between atoms: C14_21  and  N5_22
REMARK   10  A    between atoms: C17_27  and  O2_28
REMARK   11  A    between atoms: C19_30  and  O3_31
REMARK   12  A    between atoms: C24_38  and  N7_39
REMARK   13  A    between atoms: N7_39  and  C26_41
REMARK   14  A    between atoms: C26_41  and  O4_42
REMARK   15  A    between atoms: C27_44  and  N8_45
REMARK   16  A    between atoms: N8_45  and  C28_46
REMARK   17  A    between atoms: N8_45  and  C30_48
ROOT
HETATM    1  C9  UNL     1      12.768  20.277  15.949  1.00  0.00     0.057 A
HETATM    2  C10 UNL     1      12.654  20.622  14.576  1.00  0.00     0.033 A
HETATM    3  C11 UNL     1      13.632  21.377  13.977  1.00  0.00     0.017 A
HETATM    4  C12 UNL     1      14.732  21.820  14.660  1.00  0.00     0.010 A
HETATM    5  C23 UNL     1      14.807  21.463  15.993  1.00  0.00     0.047 A
HETATM    6  C24 UNL     1      13.859  20.708  16.651  1.00  0.00     0.063 A
ENDROOT
BRANCH   4   7
HETATM    7  C13 UNL     1      15.806  22.630  14.089  1.00  0.00     0.117 A
HETATM    8  N4  UNL     1      17.091  22.210  14.157  1.00  0.00    -0.328 N
HETATM    9  C14 UNL     1      18.129  22.920  13.638  1.00  0.00     0.113 A
ATOM     10  H4  UNL     1      17.290  21.323  14.617  1.00  0.00     0.169 HD
HETATM   11  C15 UNL     1      17.890  24.115  13.018  1.00  0.00     0.037 A
HETATM   12  C16 UNL     1      18.903  24.891  12.470  1.00  0.00     0.057 A
HETATM   13  C22 UNL     1      16.604  24.548  12.944  1.00  0.00     0.050 A
HETATM   14  C17 UNL     1      18.645  26.110  11.839  1.00  0.00     0.102 A
HETATM   15  C19 UNL     1      17.334  26.511  11.787  1.00  0.00     0.103 A
HETATM   16  C21 UNL     1      16.308  25.749  12.329  1.00  0.00     0.070 A
HETATM   17  N6  UNL     1      15.590  23.798  13.482  1.00  0.00    -0.341 N
ATOM     18  H6  UNL     1      14.633  24.146  13.415  1.00  0.00     0.167 HD
BRANCH   9  19
HETATM   19  N5  UNL     1      19.287  22.440  13.752  1.00  0.00    -0.385 N
ATOM     20  H52 UNL     1      19.452  21.459  13.980  1.00  0.00     0.157 HD
ATOM     21  H51 UNL     1      20.081  23.066  13.609  1.00  0.00     0.157 HD
ENDBRANCH   9  19
BRANCH  14  22
HETATM   22  O2  UNL     1      19.678  26.874  11.291  1.00  0.00    -0.353 OA
HETATM   23  C18 UNL     1      20.902  26.913  11.997  1.00  0.00     0.210 C
ENDBRANCH  14  22
BRANCH  15  24
HETATM   24  O3  UNL     1      17.049  27.734  11.157  1.00  0.00    -0.353 OA
HETATM   25  C20 UNL     1      16.126  27.793  10.071  1.00  0.00     0.210 C
ENDBRANCH  15  24
ENDBRANCH   4   7
BRANCH   6  26
HETATM   26  N7  UNL     1      14.092  20.421  18.038  1.00  0.00    -0.329 N
HETATM   27  C25 UNL     1      14.842  19.207  18.290  1.00  0.00     0.158 C
BRANCH  26  28
HETATM   28  C26 UNL     1      13.577  21.189  19.078  1.00  0.00     0.158 C
HETATM   29  C27 UNL     1      13.793  22.535  19.539  1.00  0.00     0.146 C
BRANCH  28  30
HETATM   30  O4  UNL     1      12.694  20.539  19.809  1.00  0.00    -0.345 OA
ATOM     31  H4  UNL     1      12.996  20.371  20.694  1.00  0.00     0.219 HD
ENDBRANCH  28  30
BRANCH  29  32
HETATM   32  N8  UNL     1      14.607  23.454  18.892  1.00  0.00    -0.367 N
BRANCH  32  33
HETATM   33  C28 UNL     1      14.071  24.515  18.144  1.00  0.00     0.059 C
HETATM   34  C29 UNL     1      14.431  25.891  18.709  1.00  0.00     0.055 C
ENDBRANCH  32  33
BRANCH  32  35
HETATM   35  C30 UNL     1      15.948  23.586  19.356  1.00  0.00     0.123 C
HETATM   36  C31 UNL     1      16.883  23.382  18.166  1.00  0.00     0.027 C
ENDBRANCH  32  35
ENDBRANCH  29  32
ENDBRANCH  26  28
ENDBRANCH   6  26
BRANCH   1  37
HETATM   37  N3  UNL     1      11.732  19.514  16.510  1.00  0.00    -0.376 N
HETATM   38  C8  UNL     1      10.613  20.123  17.171  1.00  0.00     0.143 C
HETATM   39  C7  UNL     1       9.349  19.766  16.337  1.00  0.00     0.146 C
HETATM   40  N2  UNL     1       9.321  18.338  16.179  1.00  0.00    -0.344 N
HETATM   41  C33 UNL     1      10.368  17.562  16.877  1.00  0.00     0.146 C
HETATM   42  C32 UNL     1      11.726  18.072  16.426  1.00  0.00     0.143 C
BRANCH  40  43
HETATM   43  C6  UNL     1       8.358  17.638  15.416  1.00  0.00     0.217 C
BRANCH  43  44
HETATM   44  N1  UNL     1       8.033  16.291  15.429  1.00  0.00    -0.348 N
BRANCH  44  45
HETATM   45  C3  UNL     1       7.265  15.511  16.339  1.00  0.00     0.126 C
BRANCH  45  46
HETATM   46  C2  UNL     1       6.098  16.302  16.926  1.00  0.00     0.015 C
HETATM   47  C1  UNL     1       4.970  16.230  15.914  1.00  0.00     0.006 C
ENDBRANCH  45  46
ENDBRANCH  44  45
BRANCH  44  48
HETATM   48  C4  UNL     1       8.583  15.496  14.265  1.00  0.00     0.122 C
HETATM   49  C5  UNL     1       7.507  14.712  13.598  1.00  0.00     0.026 C
ENDBRANCH  44  48
ENDBRANCH  43  44
BRANCH  43  50
HETATM   50  O1  UNL     1       7.676  18.369  14.578  1.00  0.00    -0.333 OA
ATOM     51  H1  UNL     1       7.770  19.308  14.688  1.00  0.00     0.220 HD
ENDBRANCH  43  50
ENDBRANCH  40  43
ENDBRANCH   1  37
TORSDOF 17
ENDMDL