MODEL 3
REMARK VINA RESULT: -6.002748141     14.479     20.271
REMARK  15 active torsions:
REMARK  status: ('A' for Active; 'I' for Inactive)
REMARK    1  A    between atoms: C2_2  and  O1_3
REMARK    2  A    between atoms: O1_3  and  C3_4
REMARK    3  A    between atoms: C3_4  and  C4_5
REMARK    4  A    between atoms: C4_5  and  C5_6
REMARK    5  A    between atoms: C5_6  and  N1_7
REMARK       I    between atoms: N1_7  and  C6_9
REMARK    6  A    between atoms: C6_9  and  C7_11
REMARK    7  A    between atoms: C7_11  and  C8_12
REMARK    8  A    between atoms: C10_17  and  C11_18
REMARK    9  A    between atoms: N3_25  and  C18_26
REMARK       I    between atoms: N3_25  and  C20_28
REMARK       I    between atoms: C20_28  and  N4_30
REMARK   10  A    between atoms: N4_30  and  C21_32
REMARK   11  A    between atoms: N5_36  and  C25_37
REMARK   12  A    between atoms: C25_37  and  C26_38
REMARK   13  A    between atoms: C26_38  and  C27_39
REMARK   14  A    between atoms: C27_39  and  O6_41
REMARK   15  A    between atoms: O6_41  and  C28_42
ROOT
HETATM    1  C8  UNL     1       5.887  17.228  20.440  1.00  0.00     0.231 C
HETATM    2  O3  UNL     1       5.429  18.339  19.739  1.00  0.00    -0.319 OA
HETATM    3  C9  UNL     1       4.213  19.023  19.655  1.00  0.00     0.158 A
HETATM    4  N2  UNL     1       4.378  20.298  19.265  1.00  0.00    -0.340 N
ATOM      5  H2  UNL     1       5.313  20.658  19.072  1.00  0.00     0.167 HD
HETATM    6  C10 UNL     1       3.313  21.090  19.134  1.00  0.00     0.011 A
HETATM    7  C13 UNL     1       2.058  20.606  19.395  1.00  0.00     0.033 A
HETATM    8  C14 UNL     1       1.824  19.263  19.810  1.00  0.00    -0.042 A
HETATM    9  C15 UNL     1       0.454  18.931  20.048  1.00  0.00     0.049 C
HETATM   10  C16 UNL     1       2.904  18.515  19.928  1.00  0.00     0.066 A
HETATM   11  C17 UNL     1       2.698  17.106  20.385  1.00  0.00     0.131 C
HETATM   12  N3  UNL     1       1.690  16.254  20.065  1.00  0.00    -0.285 N
HETATM   13  C20 UNL     1       1.640  15.590  18.790  1.00  0.00     0.324 C
HETATM   14  O4  UNL     1       0.646  14.782  18.632  1.00  0.00    -0.247 OA
HETATM   15  N4  UNL     1       2.542  15.737  17.734  1.00  0.00    -0.335 N
ATOM     16  H4  UNL     1       3.343  16.363  17.806  1.00  0.00     0.165 HD
HETATM   17  N5  UNL     1       3.514  16.996  21.563  1.00  0.00    -0.300 N
HETATM   18  C32 UNL     1       4.944  16.784  21.518  1.00  0.00     0.255 C
HETATM   19  O7  UNL     1       5.535  16.179  22.433  1.00  0.00    -0.270 OA
ENDROOT
BRANCH   1  20
HETATM   20  C7  UNL     1       7.182  17.641  21.145  1.00  0.00     0.145 C
BRANCH  20  21
HETATM   21  C6  UNL     1       8.178  18.071  20.158  1.00  0.00     0.220 C
HETATM   22  N1  UNL     1       8.358  17.320  18.971  1.00  0.00    -0.361 N
ATOM     23  H1  UNL     1       7.786  16.488  18.831  1.00  0.00     0.162 HD
HETATM   24  O2  UNL     1       8.861  19.101  20.376  1.00  0.00    -0.274 OA
BRANCH  22  25
HETATM   25  C5  UNL     1       9.316  17.677  17.948  1.00  0.00     0.124 C
BRANCH  25  26
HETATM   26  C4  UNL     1       8.704  17.594  16.575  1.00  0.00     0.046 C
BRANCH  26  27
HETATM   27  C3  UNL     1       9.071  16.253  15.936  1.00  0.00     0.169 C
BRANCH  27  28
HETATM   28  O1  UNL     1       8.365  15.263  16.635  1.00  0.00    -0.391 OA
BRANCH  28  29
HETATM   29  C2  UNL     1       7.212  14.935  15.920  1.00  0.00     0.163 C
HETATM   30  C1  UNL     1       7.517  14.824  14.441  1.00  0.00     0.033 C
ENDBRANCH  28  29
ENDBRANCH  27  28
ENDBRANCH  26  27
ENDBRANCH  25  26
ENDBRANCH  22  25
ENDBRANCH  20  21
ENDBRANCH   1  20
BRANCH  17  31
HETATM   31  C25 UNL     1       3.084  17.138  22.910  1.00  0.00     0.143 C
BRANCH  31  32
HETATM   32  C26 UNL     1       3.581  18.421  23.568  1.00  0.00     0.131 C
BRANCH  32  33
HETATM   33  C27 UNL     1       2.640  18.698  24.701  1.00  0.00     0.261 C
HETATM   34  O5  UNL     1       2.320  17.731  25.473  1.00  0.00    -0.265 OA
BRANCH  33  35
HETATM   35  O6  UNL     1       2.101  19.929  24.961  1.00  0.00    -0.311 OA
BRANCH  35  36
HETATM   36  C28 UNL     1       1.111  20.548  24.194  1.00  0.00     0.060 C
HETATM   37  C29 UNL     1       0.215  21.470  24.998  1.00  0.00     0.045 C
HETATM   38  C30 UNL     1       1.654  21.316  23.011  1.00  0.00     0.045 C
HETATM   39  C31 UNL     1       0.178  19.484  23.610  1.00  0.00     0.045 C
ENDBRANCH  35  36
ENDBRANCH  33  35
ENDBRANCH  32  33
ENDBRANCH  31  32
ENDBRANCH  17  31
BRANCH   6  40
HETATM   40  C11 UNL     1       3.526  22.499  18.700  1.00  0.00     0.052 C
HETATM   41  C12 UNL     1       2.435  23.334  19.322  1.00  0.00     0.011 C
ENDBRANCH   6  40
BRANCH  12  42
HETATM   42  C18 UNL     1       0.644  15.758  20.940  1.00  0.00     0.131 C
HETATM   43  C19 UNL     1       1.083  14.493  21.663  1.00  0.00     0.027 C
ENDBRANCH  12  42
BRANCH  15  44
HETATM   44  C21 UNL     1       2.293  14.957  16.522  1.00  0.00     0.023 C
HETATM   45  C22 UNL     1       3.458  15.195  15.557  1.00  0.00     0.037 C
HETATM   46  C23 UNL     1       2.221  13.485  16.795  1.00  0.00     0.037 C
HETATM   47  C24 UNL     1       0.985  15.447  15.941  1.00  0.00     0.037 C
ENDBRANCH  15  44
TORSDOF 15
ENDMDL