MODEL 1
REMARK VINA RESULT: -9.350094055      0.000      0.000
REMARK  13 active torsions:
REMARK  status: ('A' for Active; 'I' for Inactive)
REMARK    1  A    between atoms: C6_8  and  C7_9
REMARK    2  A    between atoms: C7_9  and  C8_10
REMARK    3  A    between atoms: C8_10  and  C9_11
REMARK    4  A    between atoms: C9_11  and  C10_12
REMARK    5  A    between atoms: C10_12  and  C11_13
REMARK    6  A    between atoms: C11_13  and  N2_16
REMARK       I    between atoms: N2_16  and  C14_18
REMARK    7  A    between atoms: C14_18  and  C15_20
REMARK    8  A    between atoms: C18_24  and  S1_25
REMARK    9  A    between atoms: C22_33  and  N5_34
REMARK       I    between atoms: N5_34  and  C23_35
REMARK   10  A    between atoms: C23_35  and  C24_37
REMARK   11  A    between atoms: C24_37  and  C25_38
REMARK   12  A    between atoms: C25_38  and  C26_39
REMARK   13  A    between atoms: C26_39  and  N6_40
ROOT
HETATM    1  C1  UNL     1      19.864  21.517  13.809  1.00  0.00     0.089 C
HETATM    2  C2  UNL     1      18.756  21.982  14.684  1.00  0.00     0.079 A
HETATM    3  N1  UNL     1      19.071  22.791  15.704  1.00  0.00    -0.345 N
ATOM      4  H1  UNL     1      20.040  23.068  15.863  1.00  0.00     0.167 HD
HETATM    5  C3  UNL     1      18.086  23.237  16.524  1.00  0.00     0.048 A
HETATM    6  C4  UNL     1      18.393  24.083  17.589  1.00  0.00     0.031 A
HETATM    7  C5  UNL     1      17.369  24.524  18.407  1.00  0.00     0.009 A
HETATM    8  C6  UNL     1      16.045  24.180  18.237  1.00  0.00    -0.057 A
HETATM    9  C20 UNL     1      15.760  23.337  17.171  1.00  0.00     0.026 A
HETATM   10  C21 UNL     1      16.778  22.892  16.349  1.00  0.00     0.050 A
HETATM   11  C22 UNL     1      16.452  22.035  15.267  1.00  0.00     0.196 A
HETATM   12  N7  UNL     1      17.479  21.629  14.494  1.00  0.00    -0.320 N
ATOM     13  H7  UNL     1      17.267  21.010  13.710  1.00  0.00     0.169 HD
ENDROOT
BRANCH   8  14
HETATM   14  C7  UNL     1      14.972  24.689  19.119  1.00  0.00     0.038 C
BRANCH  14  15
HETATM   15  C8  UNL     1      14.988  24.028  20.505  1.00  0.00     0.005 C
BRANCH  15  16
HETATM   16  C9  UNL     1      14.434  22.652  20.499  1.00  0.00     0.003 C
BRANCH  16  17
HETATM   17  C10 UNL     1      13.026  22.453  20.126  1.00  0.00     0.030 C
BRANCH  17  18
HETATM   18  C11 UNL     1      12.652  21.537  19.030  1.00  0.00     0.026 C
HETATM   19  C12 UNL     1      13.872  20.658  18.650  1.00  0.00     0.038 C
HETATM   20  C13 UNL     1      12.361  22.321  17.759  1.00  0.00     0.038 C
BRANCH  18  21
HETATM   21  N2  UNL     1      11.571  20.642  19.352  1.00  0.00    -0.347 N
HETATM   22  C14 UNL     1      10.268  21.003  19.723  1.00  0.00     0.270 C
HETATM   23  O1  UNL     1       9.953  22.211  19.798  1.00  0.00    -0.266 OA
ATOM     24  H2  UNL     1      11.774  19.644  19.306  1.00  0.00     0.163 HD
BRANCH  22  25
HETATM   25  C15 UNL     1       9.291  19.961  20.020  1.00  0.00     0.118 A
HETATM   26  C16 UNL     1       9.527  18.691  20.528  1.00  0.00     0.128 A
HETATM   27  N3  UNL     1       8.357  18.038  20.672  1.00  0.00    -0.336 N
HETATM   28  C17 UNL     1       8.215  16.666  21.180  1.00  0.00     0.158 C
HETATM   29  C18 UNL     1       7.372  18.872  20.265  1.00  0.00     0.205 A
HETATM   30  N4  UNL     1       7.951  20.020  19.877  1.00  0.00    -0.327 N
ATOM     31  H4  UNL     1       7.443  20.829  19.521  1.00  0.00     0.168 HD
BRANCH  29  32
HETATM   32  S1  UNL     1       5.661  18.506  20.263  1.00  0.00     0.203 S
HETATM   33  C19 UNL     1       5.350  17.221  19.072  1.00  0.00     0.170 C
HETATM   34  O2  UNL     1       5.210  18.017  21.611  1.00  0.00    -0.220 OA
HETATM   35  O3  UNL     1       4.859  19.736  19.939  1.00  0.00    -0.220 OA
ENDBRANCH  29  32
ENDBRANCH  22  25
ENDBRANCH  18  21
ENDBRANCH  17  18
ENDBRANCH  16  17
ENDBRANCH  15  16
ENDBRANCH  14  15
ENDBRANCH   8  14
BRANCH  11  36
HETATM   36  N5  UNL     1      15.310  21.721  15.087  1.00  0.00    -0.351 NA
HETATM   37  C23 UNL     1      14.199  21.038  14.878  1.00  0.00     0.293 C
HETATM   38  O4  UNL     1      13.256  21.593  14.176  1.00  0.00    -0.257 OA
BRANCH  37  39
HETATM   39  C24 UNL     1      13.850  19.662  15.356  1.00  0.00     0.121 C
BRANCH  39  40
HETATM   40  C25 UNL     1      12.406  19.369  15.199  1.00  0.00     0.040 C
BRANCH  40  41
HETATM   41  C26 UNL     1      11.702  18.854  16.425  1.00  0.00     0.274 C
BRANCH  41  42
HETATM   42  N6  UNL     1      11.027  17.630  16.042  1.00  0.00     0.097 N
HETATM   43  C27 UNL     1      11.355  17.181  14.724  1.00  0.00     0.273 C
HETATM   44  C28 UNL     1      10.110  16.500  14.185  1.00  0.00     0.033 C
HETATM   45  C29 UNL     1       8.989  17.239  14.861  1.00  0.00     0.043 C
HETATM   46  C30 UNL     1       9.600  17.723  16.136  1.00  0.00     0.152 C
HETATM   47  C31 UNL     1       9.142  16.839  17.281  1.00  0.00     0.049 C
HETATM   48  C32 UNL     1       9.133  19.127  16.459  1.00  0.00     0.049 C
ENDBRANCH  41  42
ENDBRANCH  40  41
ENDBRANCH  39  40
ENDBRANCH  37  39
ENDBRANCH  11  36
TORSDOF 13
ENDMDL