MODEL 2
REMARK VINA RESULT: -9.281498954      3.429     12.047
REMARK  12 active torsions:
REMARK  status: ('A' for Active; 'I' for Inactive)
REMARK    1  A    between atoms: C2_2  and  N1_3
REMARK    2  A    between atoms: N3_9  and  C6_10
REMARK    3  A    between atoms: C6_10  and  C7_11
REMARK    4  A    between atoms: C7_11  and  C8_12
REMARK    5  A    between atoms: C8_12  and  N4_13
REMARK       I    between atoms: N5_20  and  C15_22
REMARK    6  A    between atoms: C15_22  and  C16_24
REMARK    7  A    between atoms: C18_26  and  N6_27
REMARK       I    between atoms: N6_27  and  C19_29
REMARK    8  A    between atoms: C19_29  and  C20_31
REMARK    9  A    between atoms: C25_36  and  O3_37
REMARK   10  A    between atoms: O3_37  and  C26_38
REMARK   11  A    between atoms: C26_38  and  C27_39
REMARK   12  A    between atoms: C27_39  and  N7_40
ROOT
HETATM    1  N1  UNL     1      18.409  26.796  13.212  1.00  0.00    -0.408 N
HETATM    2  C3  UNL     1      17.933  28.043  13.711  1.00  0.00     0.123 C
HETATM    3  C4  UNL     1      18.495  28.414  15.049  1.00  0.00     0.078 C
HETATM    4  C5  UNL     1      18.410  27.251  15.966  1.00  0.00     0.039 A
HETATM    5  N2  UNL     1      18.429  27.135  17.313  1.00  0.00    -0.300 N
ATOM      6  H2  UNL     1      18.513  27.922  17.957  1.00  0.00     0.187 HD
HETATM    7  N3  UNL     1      18.324  25.875  17.688  1.00  0.00    -0.276 N
HETATM    8  C14 UNL     1      18.229  25.098  16.565  1.00  0.00     0.135 A
HETATM    9  N5  UNL     1      18.110  23.836  16.628  1.00  0.00    -0.306 N
ATOM     10  H5  UNL     1      18.090  23.458  17.575  1.00  0.00     0.170 HD
HETATM   11  C15 UNL     1      18.005  22.885  15.628  1.00  0.00     0.274 C
HETATM   12  O1  UNL     1      19.109  22.412  15.167  1.00  0.00    -0.266 OA
HETATM   13  C33 UNL     1      18.283  25.947  15.508  1.00  0.00     0.029 A
HETATM   14  C34 UNL     1      18.224  25.662  14.054  1.00  0.00     0.161 C
ENDROOT
BRANCH  11  15
HETATM   15  C16 UNL     1      16.785  22.355  15.037  1.00  0.00     0.105 A
HETATM   16  C17 UNL     1      15.987  21.374  15.582  1.00  0.00     0.066 A
HETATM   17  C18 UNL     1      14.910  21.128  14.733  1.00  0.00     0.053 A
HETATM   18  C31 UNL     1      15.094  21.979  13.691  1.00  0.00     0.120 A
HETATM   19  N8  UNL     1      16.211  22.707  13.876  1.00  0.00    -0.354 N
HETATM   20  C32 UNL     1      16.695  23.720  12.951  1.00  0.00     0.156 C
BRANCH  17  21
HETATM   21  N6  UNL     1      13.909  20.193  15.027  1.00  0.00    -0.322 N
HETATM   22  C19 UNL     1      12.590  20.477  15.445  1.00  0.00     0.256 C
HETATM   23  O2  UNL     1      12.272  21.711  15.558  1.00  0.00    -0.267 OA
ATOM     24  H6  UNL     1      14.159  19.208  14.929  1.00  0.00     0.169 HD
BRANCH  22  25
HETATM   25  C20 UNL     1      11.604  19.457  15.744  1.00  0.00     0.035 A
HETATM   26  C21 UNL     1      11.656  18.252  15.053  1.00  0.00     0.018 A
HETATM   27  C22 UNL     1      10.726  17.255  15.289  1.00  0.00     0.010 A
HETATM   28  C23 UNL     1       9.714  17.394  16.202  1.00  0.00    -0.029 A
HETATM   29  C24 UNL     1       8.721  16.313  16.441  1.00  0.00     0.051 C
HETATM   30  C25 UNL     1       9.643  18.601  16.910  1.00  0.00     0.075 A
HETATM   31  C30 UNL     1      10.581  19.579  16.657  1.00  0.00     0.054 A
BRANCH  30  32
HETATM   32  O3  UNL     1       8.660  18.753  17.807  1.00  0.00    -0.349 OA
BRANCH  32  33
HETATM   33  C26 UNL     1       8.550  18.762  19.165  1.00  0.00     0.206 C
BRANCH  33  34
HETATM   34  C27 UNL     1       8.539  20.065  19.878  1.00  0.00     0.297 C
BRANCH  34  35
HETATM   35  N7  UNL     1       9.788  20.407  20.533  1.00  0.00     0.082 N
HETATM   36  C28 UNL     1      10.736  19.312  20.523  1.00  0.00     0.309 C
HETATM   37  C29 UNL     1      10.384  21.460  19.692  1.00  0.00     0.309 C
ENDBRANCH  34  35
ENDBRANCH  33  34
ENDBRANCH  32  33
ENDBRANCH  30  32
ENDBRANCH  22  25
ENDBRANCH  17  21
ENDBRANCH  11  15
BRANCH   7  38
HETATM   38  C6  UNL     1      18.320  25.457  19.072  1.00  0.00     0.156 C
BRANCH  38  39
HETATM   39  C7  UNL     1      17.132  25.976  19.852  1.00  0.00     0.067 C
BRANCH  39  40
HETATM   40  C8  UNL     1      15.853  25.855  19.068  1.00  0.00     0.069 C
BRANCH  40  41
HETATM   41  N4  UNL     1      15.097  24.689  19.267  1.00  0.00    -0.354 N
HETATM   42  C9  UNL     1      14.642  23.997  18.134  1.00  0.00     0.068 C
HETATM   43  C10 UNL     1      13.671  22.896  18.383  1.00  0.00     0.045 C
HETATM   44  C11 UNL     1      14.256  21.988  19.461  1.00  0.00     0.010 C
HETATM   45  C12 UNL     1      14.332  22.864  20.719  1.00  0.00     0.045 C
HETATM   46  C13 UNL     1      15.255  24.006  20.486  1.00  0.00     0.068 C
ENDBRANCH  40  41
ENDBRANCH  39  40
ENDBRANCH  38  39
ENDBRANCH   7  38
BRANCH   1  47
HETATM   47  C2  UNL     1      19.669  26.850  12.534  1.00  0.00     0.112 C
HETATM   48  C1  UNL     1      20.185  25.462  12.287  1.00  0.00     0.026 C
ENDBRANCH   1  47
TORSDOF 12
ENDMDL