MODEL 2
REMARK VINA RESULT: -6.129804584      2.903      4.317
REMARK  6 active torsions:
REMARK  status: ('A' for Active; 'I' for Inactive)
REMARK    1  A    between atoms: C3_4  and  C4_5
REMARK    2  A    between atoms: C5_7  and  C6_8
REMARK    3  A    between atoms: C6_8  and  O2_9
REMARK    4  A    between atoms: C7_11  and  O3_12
REMARK    5  A    between atoms: C8_14  and  O4_15
REMARK    6  A    between atoms: C9_17  and  O5_18
ROOT
HETATM    1  C4  UNL     1       6.322   2.552  34.986  1.00  0.00     0.177 C
HETATM    2  O1  UNL     1       6.231   3.864  35.438  1.00  0.00    -0.369 OA
HETATM    3  C5  UNL     1       5.426   3.984  36.539  1.00  0.00     0.177 C
HETATM    4  C7  UNL     1       3.995   3.588  36.210  1.00  0.00     0.180 C
HETATM    5  C8  UNL     1       4.061   2.120  35.774  1.00  0.00     0.181 C
HETATM    6  C9  UNL     1       4.933   2.131  34.526  1.00  0.00     0.182 C
ENDROOT
BRANCH   1   7
HETATM    7  C3  UNL     1       7.313   2.423  33.913  1.00  0.00     0.022 C
HETATM    8  C2  UNL     1       8.609   2.503  34.156  1.00  0.00    -0.016 C
HETATM    9  C1  UNL     1       9.053   2.728  35.544  1.00  0.00     0.056 C
HETATM   10  S1  UNL     1       9.837   2.349  32.871  1.00  0.00    -0.058 SA
ENDBRANCH   1   7
BRANCH   6  11
HETATM   11  O5  UNL     1       4.946   0.869  33.947  1.00  0.00    -0.390 OA
ATOM     12  H5  UNL     1       5.244   0.900  33.046  1.00  0.00     0.210 HD
ENDBRANCH   6  11
BRANCH   3  13
HETATM   13  C6  UNL     1       5.510   5.389  37.081  1.00  0.00     0.198 C
BRANCH  13  14
HETATM   14  O2  UNL     1       5.297   5.427  38.460  1.00  0.00    -0.398 OA
ATOM     15  H2  UNL     1       5.742   6.162  38.866  1.00  0.00     0.209 HD
ENDBRANCH  13  14
ENDBRANCH   3  13
BRANCH   5  16
HETATM   16  O4  UNL     1       2.787   1.629  35.500  1.00  0.00    -0.390 OA
ATOM     17  H4  UNL     1       2.312   1.456  36.304  1.00  0.00     0.210 HD
ENDBRANCH   5  16
BRANCH   4  18
HETATM   18  O3  UNL     1       3.138   3.790  37.253  1.00  0.00    -0.390 OA
ATOM     19  H3  UNL     1       3.461   3.428  38.070  1.00  0.00     0.210 HD
ENDBRANCH   4  18
TORSDOF 6
ENDMDL