MODEL 1
REMARK VINA RESULT: -7.240401923      0.000      0.000
REMARK  6 active torsions:
REMARK  status: ('A' for Active; 'I' for Inactive)
REMARK    1  A    between atoms: O1_1  and  N1_3
REMARK    2  A    between atoms: C1_5  and  O2_6
REMARK    3  A    between atoms: C1_5  and  C2_8
REMARK    4  A    between atoms: C3_11  and  N3_12
REMARK    5  A    between atoms: C8_17  and  O3_18
REMARK    6  A    between atoms: C9_20  and  O4_21
ROOT
HETATM    1  C2  UNL     1       3.805   4.151  35.803  1.00  0.00     0.299 C
HETATM    2  N2  UNL     1       5.190   4.106  35.475  1.00  0.00    -0.367 N
ATOM      3  H2  UNL     1       5.678   4.925  35.113  1.00  0.00     0.158 HD
HETATM    4  C3  UNL     1       5.855   2.879  35.674  1.00  0.00     0.219 C
HETATM    5  C8  UNL     1       5.021   1.654  35.583  1.00  0.00     0.215 C
HETATM    6  C9  UNL     1       3.574   1.850  35.884  1.00  0.00     0.292 C
HETATM    7  O5  UNL     1       3.086   3.038  35.390  1.00  0.00    -0.327 OA
ENDROOT
BRANCH   1   8
HETATM    8  C1  UNL     1       3.543   4.488  37.222  1.00  0.00     0.185 C
HETATM    9  N1  UNL     1       4.423   5.036  37.984  1.00  0.00    -0.247 N
ATOM     10  H1  UNL     1       5.336   5.243  37.579  1.00  0.00     0.196 HD
BRANCH   9  11
HETATM   11  O1  UNL     1       4.226   5.359  39.281  1.00  0.00    -0.288 OA
ATOM     12  H1  UNL     1       4.919   5.538  39.906  1.00  0.00     0.244 HD
ENDBRANCH   9  11
BRANCH   8  13
HETATM   13  O2  UNL     1       2.305   4.208  37.772  1.00  0.00    -0.345 OA
ATOM     14  H2  UNL     1       1.536   4.510  37.302  1.00  0.00     0.219 HD
ENDBRANCH   8  13
ENDBRANCH   1   8
BRANCH   4  15
HETATM   15  N3  UNL     1       6.974   2.743  34.727  1.00  0.00    -0.343 N
HETATM   16  C4  UNL     1       6.910   2.515  33.411  1.00  0.00     0.092 A
HETATM   17  C5  UNL     1       8.169   2.451  32.861  1.00  0.00     0.019 A
HETATM   18  C6  UNL     1       9.061   2.650  33.895  1.00  0.00     0.019 A
HETATM   19  C7  UNL     1       8.284   2.826  35.020  1.00  0.00     0.092 A
ENDBRANCH   4  15
BRANCH   6  20
HETATM   20  O4  UNL     1       2.862   0.815  35.267  1.00  0.00    -0.368 OA
ATOM     21  H4  UNL     1       2.450   1.167  34.486  1.00  0.00     0.212 HD
ENDBRANCH   6  20
BRANCH   5  22
HETATM   22  O3  UNL     1       5.111   1.026  34.330  1.00  0.00    -0.387 OA
ATOM     23  H3  UNL     1       4.621   0.213  34.290  1.00  0.00     0.210 HD
ENDBRANCH   5  22
TORSDOF 6
ENDMDL