MODEL 5
REMARK VINA RESULT: -5.307787605      8.357     10.491
REMARK  7 active torsions:
REMARK  status: ('A' for Active; 'I' for Inactive)
REMARK    1  A    between atoms: C2_2  and  O1_3
REMARK    2  A    between atoms: N1_5  and  N2_7
REMARK    3  A    between atoms: N2_7  and  C3_9
REMARK    4  A    between atoms: C4_11  and  O2_12
REMARK    5  A    between atoms: C5_14  and  O3_15
REMARK    6  A    between atoms: C6_17  and  O4_18
REMARK    7  A    between atoms: C7_20  and  O5_21
ROOT
HETATM    1  C3  UNL     1       6.085  -0.504  27.472  1.00  0.00     0.194 C
HETATM    2  S1  UNL     1       7.045  -1.657  28.450  1.00  0.00    -0.105 SA
HETATM    3  C4  UNL     1       8.374  -2.413  27.510  1.00  0.00     0.212 C
HETATM    4  C5  UNL     1       8.113  -2.510  26.051  1.00  0.00     0.188 C
HETATM    5  C6  UNL     1       6.752  -2.054  25.622  1.00  0.00     0.181 C
HETATM    6  C7  UNL     1       6.415  -0.652  25.999  1.00  0.00     0.183 C
ENDROOT
BRANCH   1   7
HETATM    7  N2  UNL     1       4.662  -0.793  27.679  1.00  0.00    -0.318 N
ATOM      8  H2  UNL     1       3.940  -0.372  27.094  1.00  0.00     0.181 HD
BRANCH   7   9
HETATM    9  N1  UNL     1       4.344  -1.671  28.715  1.00  0.00    -0.287 N
HETATM   10  C2  UNL     1       3.433  -1.487  29.580  1.00  0.00     0.125 C
HETATM   11  C1  UNL     1       2.573  -0.286  29.600  1.00  0.00     0.098 C
ATOM     12  H1  UNL     1       4.887  -2.532  28.783  1.00  0.00     0.188 HD
BRANCH  10  13
HETATM   13  O1  UNL     1       3.231  -2.448  30.548  1.00  0.00    -0.349 OA
ATOM     14  H1  UNL     1       3.648  -2.327  31.393  1.00  0.00     0.219 HD
ENDBRANCH  10  13
ENDBRANCH   7   9
ENDBRANCH   1   7
BRANCH   6  15
HETATM   15  O5  UNL     1       7.386   0.275  25.633  1.00  0.00    -0.390 OA
ATOM     16  H5  UNL     1       6.973   1.073  25.324  1.00  0.00     0.210 HD
ENDBRANCH   6  15
BRANCH   3  17
HETATM   17  O2  UNL     1       9.541  -1.674  27.729  1.00  0.00    -0.382 OA
ATOM     18  H2  UNL     1       9.352  -1.003  28.374  1.00  0.00     0.211 HD
ENDBRANCH   3  17
BRANCH   5  19
HETATM   19  O4  UNL     1       5.771  -2.894  26.113  1.00  0.00    -0.390 OA
ATOM     20  H4  UNL     1       5.984  -3.193  26.988  1.00  0.00     0.210 HD
ENDBRANCH   5  19
BRANCH   4  21
HETATM   21  O3  UNL     1       9.097  -1.804  25.325  1.00  0.00    -0.389 OA
ATOM     22  H3  UNL     1       8.929  -0.870  25.358  1.00  0.00     0.210 HD
ENDBRANCH   4  21
TORSDOF 7
ENDMDL