MODEL 2
REMARK VINA RESULT: -7.221859241      0.055      1.144
REMARK  6 active torsions:
REMARK  status: ('A' for Active; 'I' for Inactive)
REMARK    1  A    between atoms: O1_1  and  C1_3
REMARK    2  A    between atoms: C2_5  and  N1_6
REMARK    3  A    between atoms: N1_6  and  C3_8
REMARK    4  A    between atoms: C9_14  and  O3_15
REMARK    5  A    between atoms: C10_17  and  O4_18
REMARK    6  A    between atoms: C11_20  and  O5_21
ROOT
HETATM    1  C1  UNL     1       3.636   3.371  36.574  1.00  0.00     0.290 C
HETATM    2  O2  UNL     1       4.309   3.294  35.379  1.00  0.00    -0.332 OA
HETATM    3  C2  UNL     1       5.684   3.216  35.613  1.00  0.00     0.256 C
HETATM    4  C9  UNL     1       6.099   4.163  36.715  1.00  0.00     0.198 C
HETATM    5  C10 UNL     1       5.115   5.276  36.932  1.00  0.00     0.184 C
HETATM    6  C11 UNL     1       3.692   4.810  37.038  1.00  0.00     0.204 C
ENDROOT
BRANCH   3   7
HETATM    7  N1  UNL     1       6.343   3.487  34.353  1.00  0.00    -0.361 N
ATOM      8  H1  UNL     1       5.867   4.115  33.705  1.00  0.00     0.162 HD
BRANCH   7   9
HETATM    9  C3  UNL     1       7.574   2.966  33.948  1.00  0.00     0.029 A
HETATM   10  C4  UNL     1       7.769   2.382  32.714  1.00  0.00     0.029 A
HETATM   11  C5  UNL     1       9.000   1.861  32.319  1.00  0.00     0.002 A
HETATM   12  C6  UNL     1      10.073   1.928  33.194  1.00  0.00     0.000 A
HETATM   13  C7  UNL     1       9.859   2.511  34.413  1.00  0.00     0.002 A
HETATM   14  C8  UNL     1       8.648   3.026  34.807  1.00  0.00     0.029 A
ENDBRANCH   7   9
ENDBRANCH   3   7
BRANCH   4  15
HETATM   15  O3  UNL     1       6.305   3.520  37.928  1.00  0.00    -0.389 OA
ATOM     16  H3  UNL     1       6.915   3.982  38.492  1.00  0.00     0.210 HD
ENDBRANCH   4  15
BRANCH   1  17
HETATM   17  O1  UNL     1       2.324   2.942  36.362  1.00  0.00    -0.368 OA
ATOM     18  H1  UNL     1       2.132   3.028  35.435  1.00  0.00     0.212 HD
ENDBRANCH   1  17
BRANCH   5  19
HETATM   19  O4  UNL     1       5.227   6.211  35.913  1.00  0.00    -0.390 OA
ATOM     20  H4  UNL     1       4.415   6.695  35.826  1.00  0.00     0.210 HD
ENDBRANCH   5  19
BRANCH   6  21
HETATM   21  O5  UNL     1       3.159   4.973  38.294  1.00  0.00    -0.388 OA
ATOM     22  H5  UNL     1       3.810   5.249  38.928  1.00  0.00     0.210 HD
ENDBRANCH   6  21
TORSDOF 6
ENDMDL