MODEL 1
REMARK VINA RESULT: -5.128727925      0.000      0.000
REMARK  7 active torsions:
REMARK  status: ('A' for Active; 'I' for Inactive)
REMARK    1  A    between atoms: O1_1  and  C1_3
REMARK    2  A    between atoms: C1_3  and  C2_4
REMARK    3  A    between atoms: C2_4  and  O2_5
REMARK    4  A    between atoms: C4_8  and  O3_9
REMARK    5  A    between atoms: C5_11  and  C6_12
REMARK    6  A    between atoms: C7_16  and  O4_17
REMARK    7  A    between atoms: C8_19  and  O5_20
ROOT
HETATM    1  C2  UNL     1       4.642   2.285  35.517  1.00  0.00     0.109 C
HETATM    2  C3  UNL     1       5.072   1.640  34.245  1.00  0.00     0.075 C
HETATM    3  C4  UNL     1       5.844   2.519  33.324  1.00  0.00     0.132 C
HETATM    4  C5  UNL     1       6.885   3.360  33.981  1.00  0.00     0.085 C
HETATM    5  C7  UNL     1       6.435   4.025  35.245  1.00  0.00     0.161 C
HETATM    6  C8  UNL     1       5.669   3.137  36.174  1.00  0.00     0.184 C
ENDROOT
BRANCH   1   7
HETATM    7  C1  UNL     1       3.338   3.024  35.256  1.00  0.00     0.204 C
BRANCH   7   8
HETATM    8  O1  UNL     1       3.070   3.859  36.336  1.00  0.00    -0.398 OA
ATOM      9  H1  UNL     1       2.649   3.352  37.020  1.00  0.00     0.209 HD
ENDBRANCH   7   8
ENDBRANCH   1   7
BRANCH   1  10
HETATM   10  O2  UNL     1       4.309   1.246  36.418  1.00  0.00    -0.385 OA
ATOM     11  H2  UNL     1       4.528   1.581  37.279  1.00  0.00     0.210 HD
ENDBRANCH   1  10
BRANCH   6  12
HETATM   12  O5  UNL     1       6.563   2.368  36.945  1.00  0.00    -0.390 OA
ATOM     13  H5  UNL     1       7.319   2.877  37.215  1.00  0.00     0.210 HD
ENDBRANCH   6  12
BRANCH   3  14
HETATM   14  O3  UNL     1       6.507   1.675  32.403  1.00  0.00    -0.395 OA
ATOM     15  H3  UNL     1       6.619   2.171  31.600  1.00  0.00     0.210 HD
ENDBRANCH   3  14
BRANCH   5  16
HETATM   16  O4  UNL     1       5.698   5.179  34.970  1.00  0.00    -0.392 OA
ATOM     17  H4  UNL     1       5.839   5.841  35.636  1.00  0.00     0.210 HD
ENDBRANCH   5  16
BRANCH   4  18
HETATM   18  C6  UNL     1       8.123   2.573  34.186  1.00  0.00     0.079 C
HETATM   19  N1  UNL     1       9.051   2.484  33.313  1.00  0.00    -0.334 N
HETATM   20  S1  UNL     1      10.492   1.546  33.600  1.00  0.00     0.041 SA
ATOM     21  H1  UNL     1       8.946   2.974  32.425  1.00  0.00     0.173 HD
ENDBRANCH   4  18
TORSDOF 7
ENDMDL