MODEL 1
REMARK VINA RESULT: -6.608856182      0.000      0.000
REMARK  8 active torsions:
REMARK  status: ('A' for Active; 'I' for Inactive)
REMARK    1  A    between atoms: O1_1  and  C1_3
REMARK    2  A    between atoms: C1_3  and  C2_4
REMARK    3  A    between atoms: C3_6  and  C4_7
REMARK    4  A    between atoms: C4_7  and  O2_8
REMARK    5  A    between atoms: N1_10  and  O3_12
REMARK    6  A    between atoms: C5_14  and  O4_15
REMARK    7  A    between atoms: C6_17  and  O5_18
REMARK    8  A    between atoms: C7_20  and  O6_21
ROOT
HETATM    1  C2  UNL     1       5.497   1.755  34.090  1.00  0.00     0.103 C
HETATM    2  S1  UNL     1       4.639   2.415  35.545  1.00  0.00    -0.143 SA
HETATM    3  C3  UNL     1       5.771   3.375  36.589  1.00  0.00     0.155 C
HETATM    4  C5  UNL     1       6.923   3.929  35.792  1.00  0.00     0.171 C
HETATM    5  C6  UNL     1       7.524   2.888  34.870  1.00  0.00     0.178 C
HETATM    6  C7  UNL     1       6.659   2.602  33.686  1.00  0.00     0.165 C
ENDROOT
BRANCH   3   7
HETATM    7  C4  UNL     1       5.091   4.450  37.339  1.00  0.00     0.152 C
HETATM    8  N1  UNL     1       3.930   4.227  37.847  1.00  0.00    -0.250 N
ATOM      9  H1  UNL     1       3.513   3.306  37.712  1.00  0.00     0.196 HD
BRANCH   7  10
HETATM   10  O2  UNL     1       5.629   5.709  37.538  1.00  0.00    -0.347 OA
ATOM     11  H2  UNL     1       6.454   5.866  37.980  1.00  0.00     0.219 HD
ENDBRANCH   7  10
BRANCH   8  12
HETATM   12  O3  UNL     1       3.222   5.159  38.557  1.00  0.00    -0.288 OA
ATOM     13  H3  UNL     1       3.548   5.578  39.345  1.00  0.00     0.244 HD
ENDBRANCH   8  12
ENDBRANCH   3   7
BRANCH   4  14
HETATM   14  O4  UNL     1       6.522   5.022  35.058  1.00  0.00    -0.391 OA
ATOM     15  H4  UNL     1       6.670   5.824  35.544  1.00  0.00     0.210 HD
ENDBRANCH   4  14
BRANCH   1  16
HETATM   16  C1  UNL     1       4.458   1.634  32.984  1.00  0.00     0.181 C
BRANCH  16  17
HETATM   17  O1  UNL     1       4.929   0.852  31.934  1.00  0.00    -0.400 OA
ATOM     18  H1  UNL     1       4.736   1.252  31.094  1.00  0.00     0.209 HD
ENDBRANCH  16  17
ENDBRANCH   1  16
BRANCH   5  19
HETATM   19  O5  UNL     1       8.729   3.419  34.400  1.00  0.00    -0.390 OA
ATOM     20  H5  UNL     1       8.952   2.934  33.614  1.00  0.00     0.210 HD
ENDBRANCH   5  19
BRANCH   6  21
HETATM   21  O6  UNL     1       7.431   1.843  32.782  1.00  0.00    -0.392 OA
ATOM     22  H6  UNL     1       8.064   2.434  32.390  1.00  0.00     0.210 HD
ENDBRANCH   6  21
TORSDOF 8
ENDMDL