MODEL 3
REMARK VINA RESULT: -5.920814907      3.867      5.402
REMARK  8 active torsions:
REMARK  status: ('A' for Active; 'I' for Inactive)
REMARK    1  A    between atoms: O1_1  and  N1_3
REMARK    2  A    between atoms: C1_5  and  O2_6
REMARK    3  A    between atoms: C1_5  and  O3_8
REMARK    4  A    between atoms: O3_8  and  C2_9
REMARK    5  A    between atoms: C2_9  and  C3_10
REMARK    6  A    between atoms: C4_11  and  O4_12
REMARK    7  A    between atoms: C6_15  and  O5_16
REMARK    8  A    between atoms: C7_19  and  O6_20
ROOT
HETATM    1  C3  UNL     1       5.023   4.085  36.450  1.00  0.00     0.072 C
HETATM    2  C4  UNL     1       6.275   3.720  35.643  1.00  0.00     0.130 C
HETATM    3  C5  UNL     1       6.104   2.253  35.386  1.00  0.00     0.085 C
HETATM    4  C6  UNL     1       4.607   2.024  35.300  1.00  0.00     0.144 C
HETATM    5  S1  UNL     1       4.176   1.538  33.610  1.00  0.00    -0.053 SA
HETATM    6  C7  UNL     1       3.960   3.348  35.675  1.00  0.00     0.172 C
ENDROOT
BRANCH   1   7
HETATM    7  C2  UNL     1       4.877   5.566  36.386  1.00  0.00     0.189 C
BRANCH   7   8
HETATM    8  O3  UNL     1       6.081   6.270  36.407  1.00  0.00    -0.315 OA
BRANCH   8   9
HETATM    9  C1  UNL     1       6.221   7.454  35.698  1.00  0.00     0.282 C
HETATM   10  N1  UNL     1       6.834   8.434  36.290  1.00  0.00    -0.227 N
ATOM     11  H1  UNL     1       7.186   8.306  37.239  1.00  0.00     0.198 HD
BRANCH  10  12
HETATM   12  O1  UNL     1       7.016   9.636  35.660  1.00  0.00    -0.286 OA
ATOM     13  H1  UNL     1       6.742  10.450  36.069  1.00  0.00     0.244 HD
ENDBRANCH  10  12
BRANCH   9  14
HETATM   14  O2  UNL     1       5.719   7.593  34.389  1.00  0.00    -0.326 OA
ATOM     15  H2  UNL     1       4.795   7.749  34.231  1.00  0.00     0.221 HD
ENDBRANCH   9  14
ENDBRANCH   8   9
ENDBRANCH   7   8
ENDBRANCH   1   7
BRANCH   2  16
HETATM   16  O4  UNL     1       6.142   4.384  34.409  1.00  0.00    -0.395 OA
ATOM     17  H4  UNL     1       6.874   4.092  33.878  1.00  0.00     0.210 HD
ENDBRANCH   2  16
BRANCH   6  18
HETATM   18  O6  UNL     1       2.838   3.054  36.446  1.00  0.00    -0.391 OA
ATOM     19  H6  UNL     1       2.680   3.698  37.125  1.00  0.00     0.210 HD
ENDBRANCH   6  18
BRANCH   4  20
HETATM   20  O5  UNL     1       4.263   1.010  36.194  1.00  0.00    -0.376 OA
ATOM     21  H5  UNL     1       4.476   0.174  35.797  1.00  0.00     0.211 HD
ENDBRANCH   4  20
TORSDOF 8
ENDMDL