MODEL 2
REMARK VINA RESULT: -6.938745893      1.535      1.781
REMARK  8 active torsions:
REMARK  status: ('A' for Active; 'I' for Inactive)
REMARK    1  A    between atoms: C2_2  and  N2_7
REMARK    2  A    between atoms: N1_3  and  O1_5
REMARK    3  A    between atoms: N2_7  and  O2_9
REMARK    4  A    between atoms: O2_9  and  C3_10
REMARK    5  A    between atoms: C3_10  and  N4_14
REMARK    6  A    between atoms: N4_14  and  C4_16
REMARK    7  A    between atoms: C8_20  and  O3_21
REMARK    8  A    between atoms: C9_23  and  O4_24
ROOT
HETATM    1  C3  UNL     1       8.303   2.684  34.206  1.00  0.00     0.237 C
HETATM    2  N3  UNL     1       9.150   3.384  34.859  1.00  0.00    -0.364 N
ATOM      3  H31 UNL     1       8.811   4.201  35.368  1.00  0.00     0.159 HD
ATOM      4  H32 UNL     1      10.132   3.107  34.852  1.00  0.00     0.159 HD
ENDROOT
BRANCH   1   5
HETATM    5  O2  UNL     1       8.763   1.577  33.516  1.00  0.00    -0.200 OA
BRANCH   5   6
HETATM    6  N2  UNL     1       9.983   1.523  32.896  1.00  0.00    -0.244 N
ATOM      7  H2  UNL     1      10.233   2.201  32.176  1.00  0.00     0.196 HD
BRANCH   6   8
HETATM    8  C2  UNL     1      10.891   0.502  33.277  1.00  0.00     0.118 C
HETATM    9  C1  UNL     1      11.032  -0.729  32.463  1.00  0.00     0.093 C
HETATM   10  N1  UNL     1      11.614   0.616  34.338  1.00  0.00    -0.256 N
ATOM     11  H1  UNL     1      12.264  -0.125  34.601  1.00  0.00     0.195 HD
BRANCH  10  12
HETATM   12  O1  UNL     1      11.503   1.735  35.103  1.00  0.00    -0.288 OA
ATOM     13  H1  UNL     1      12.075   1.844  35.854  1.00  0.00     0.244 HD
ENDBRANCH  10  12
ENDBRANCH   6   8
ENDBRANCH   5   6
ENDBRANCH   1   5
BRANCH   1  14
HETATM   14  N4  UNL     1       6.938   3.070  34.216  1.00  0.00    -0.344 N
ATOM     15  H4  UNL     1       6.484   3.231  33.318  1.00  0.00     0.164 HD
BRANCH  14  16
HETATM   16  C4  UNL     1       6.157   3.248  35.396  1.00  0.00     0.058 C
HETATM   17  C5  UNL     1       6.974   2.988  36.612  1.00  0.00     0.041 C
HETATM   18  C6  UNL     1       4.933   2.371  35.444  1.00  0.00     0.036 C
HETATM   19  C7  UNL     1       4.062   3.087  36.456  1.00  0.00     0.037 C
HETATM   20  C8  UNL     1       4.241   4.532  36.080  1.00  0.00     0.149 C
HETATM   21  C9  UNL     1       5.563   4.637  35.362  1.00  0.00     0.174 C
BRANCH  20  22
HETATM   22  O3  UNL     1       4.224   5.363  37.217  1.00  0.00    -0.393 OA
ATOM     23  H3  UNL     1       4.769   6.131  37.093  1.00  0.00     0.210 HD
ENDBRANCH  20  22
BRANCH  21  24
HETATM   24  O4  UNL     1       6.415   5.568  35.928  1.00  0.00    -0.390 OA
ATOM     25  H4  UNL     1       6.718   6.199  35.286  1.00  0.00     0.210 HD
ENDBRANCH  21  24
ENDBRANCH  14  16
ENDBRANCH   1  14
TORSDOF 8
ENDMDL