MODEL 3
REMARK VINA RESULT: -6.481963300      3.520      5.369
REMARK  7 active torsions:
REMARK  status: ('A' for Active; 'I' for Inactive)
REMARK       I    between atoms: C1_4  and  N3_6
REMARK    1  A    between atoms: N3_6  and  C2_8
REMARK    2  A    between atoms: C2_8  and  O2_13
REMARK    3  A    between atoms: N4_9  and  O1_11
REMARK    4  A    between atoms: O2_13  and  C3_14
REMARK    5  A    between atoms: C6_17  and  O3_18
REMARK    6  A    between atoms: C7_21  and  C8_22
REMARK    7  A    between atoms: C8_22  and  O5_23
ROOT
HETATM    1  C2  UNL     1       7.211   2.117  32.426  1.00  0.00     0.246 C
HETATM    2  N4  UNL     1       8.407   2.133  32.021  1.00  0.00    -0.232 N
ATOM      3  H4  UNL     1       8.473   2.150  31.004  1.00  0.00     0.198 HD
ENDROOT
BRANCH   1   4
HETATM    4  N3  UNL     1       6.130   2.124  31.450  1.00  0.00    -0.295 N
HETATM    5  C1  UNL     1       5.877   0.968  30.681  1.00  0.00     0.189 C
HETATM    6  N1  UNL     1       6.770   0.602  29.829  1.00  0.00    -0.373 N
HETATM    7  N2  UNL     1       4.660   0.274  30.889  1.00  0.00    -0.064 NA
ATOM      8  H12 UNL     1       6.587  -0.234  29.273  1.00  0.00     0.158 HD
ATOM      9  H11 UNL     1       7.646   1.102  29.679  1.00  0.00     0.158 HD
ATOM     10  H3  UNL     1       5.558   2.960  31.322  1.00  0.00     0.172 HD
ENDBRANCH   1   4
BRANCH   1  11
HETATM   11  O2  UNL     1       6.929   2.095  33.765  1.00  0.00    -0.308 OA
BRANCH  11  12
HETATM   12  C3  UNL     1       6.123   3.064  34.374  1.00  0.00     0.186 C
HETATM   13  C4  UNL     1       5.102   2.335  35.214  1.00  0.00     0.009 C
HETATM   14  C5  UNL     1       4.440   3.115  36.079  1.00  0.00     0.031 C
HETATM   15  C6  UNL     1       4.864   4.563  36.025  1.00  0.00     0.281 C
HETATM   16  O4  UNL     1       6.214   4.563  36.287  1.00  0.00    -0.348 OA
HETATM   17  C7  UNL     1       6.946   3.951  35.307  1.00  0.00     0.181 C
BRANCH  15  18
HETATM   18  O3  UNL     1       4.128   5.206  37.014  1.00  0.00    -0.368 OA
ATOM     19  H3  UNL     1       3.837   6.023  36.627  1.00  0.00     0.213 HD
ENDBRANCH  15  18
BRANCH  17  20
HETATM   20  C8  UNL     1       8.114   3.163  35.859  1.00  0.00     0.199 C
BRANCH  20  21
HETATM   21  O5  UNL     1       9.234   3.222  35.054  1.00  0.00    -0.398 OA
ATOM     22  H5  UNL     1       9.300   2.487  34.455  1.00  0.00     0.209 HD
ENDBRANCH  20  21
ENDBRANCH  17  20
ENDBRANCH  11  12
ENDBRANCH   1  11
BRANCH   2  23
HETATM   23  O1  UNL     1       9.591   2.133  32.603  1.00  0.00    -0.287 OA
ATOM     24  H1  UNL     1      10.268   1.483  32.752  1.00  0.00     0.244 HD
ENDBRANCH   2  23
TORSDOF 7
ENDMDL