MODEL 5
REMARK VINA RESULT: -6.023842413      4.736      6.955
REMARK  7 active torsions:
REMARK  status: ('A' for Active; 'I' for Inactive)
REMARK    1  A    between atoms: O1_1  and  C1_3
REMARK    2  A    between atoms: C1_3  and  C2_4
REMARK    3  A    between atoms: C3_6  and  N1_7
REMARK    4  A    between atoms: C7_11  and  O3_12
REMARK    5  A    between atoms: C8_14  and  O4_15
REMARK    6  A    between atoms: C9_17  and  O5_18
REMARK    7  A    between atoms: C10_20  and  O6_21
ROOT
HETATM    1  C2  UNL     1       2.637  -0.412  30.230  1.00  0.00     0.179 C
HETATM    2  O2  UNL     1       3.312  -0.363  31.443  1.00  0.00    -0.353 OA
HETATM    3  C3  UNL     1       2.476   0.328  32.321  1.00  0.00     0.261 C
HETATM    4  C8  UNL     1       1.460  -0.692  32.794  1.00  0.00     0.198 C
HETATM    5  C9  UNL     1       0.626  -1.077  31.606  1.00  0.00     0.182 C
HETATM    6  C10 UNL     1       1.275  -0.974  30.296  1.00  0.00     0.180 C
ENDROOT
BRANCH   3   7
HETATM    7  N1  UNL     1       3.203   0.932  33.410  1.00  0.00    -0.308 N
HETATM    8  C4  UNL     1       2.755   1.163  34.662  1.00  0.00     0.096 A
HETATM    9  C5  UNL     1       3.766   1.758  35.396  1.00  0.00     0.022 A
HETATM   10  C6  UNL     1       4.861   1.896  34.575  1.00  0.00     0.057 A
HETATM   11  C7  UNL     1       4.472   1.370  33.344  1.00  0.00     0.144 A
BRANCH  11  12
HETATM   12  O3  UNL     1       5.263   1.298  32.204  1.00  0.00    -0.346 OA
ATOM     13  H3  UNL     1       5.129   1.829  31.427  1.00  0.00     0.219 HD
ENDBRANCH  11  12
ENDBRANCH   3   7
BRANCH   4  14
HETATM   14  O4  UNL     1       2.064  -1.799  33.370  1.00  0.00    -0.388 OA
ATOM     15  H4  UNL     1       1.960  -2.578  32.838  1.00  0.00     0.210 HD
ENDBRANCH   4  14
BRANCH   1  16
HETATM   16  C1  UNL     1       3.491  -1.109  29.163  1.00  0.00     0.198 C
BRANCH  16  17
HETATM   17  O1  UNL     1       2.707  -2.101  28.576  1.00  0.00    -0.398 OA
ATOM     18  H1  UNL     1       2.420  -1.779  27.729  1.00  0.00     0.209 HD
ENDBRANCH  16  17
ENDBRANCH   1  16
BRANCH   5  19
HETATM   19  O5  UNL     1      -0.541  -0.279  31.670  1.00  0.00    -0.390 OA
ATOM     20  H5  UNL     1      -0.296   0.574  31.331  1.00  0.00     0.210 HD
ENDBRANCH   5  19
BRANCH   6  21
HETATM   21  O6  UNL     1       0.441  -0.227  29.432  1.00  0.00    -0.390 OA
ATOM     22  H6  UNL     1       0.037   0.471  29.934  1.00  0.00     0.210 HD
ENDBRANCH   6  21
TORSDOF 7
ENDMDL