MODEL 4
REMARK VINA RESULT: -6.303992827      2.064      3.772
REMARK  10 active torsions:
REMARK  status: ('A' for Active; 'I' for Inactive)
REMARK    1  A    between atoms: C2_2  and  C4_4
REMARK    2  A    between atoms: C4_4  and  C5_5
REMARK    3  A    between atoms: C5_5  and  O1_6
REMARK    4  A    between atoms: C5_5  and  C6_8
REMARK    5  A    between atoms: C6_8  and  N1_9
REMARK    6  A    between atoms: N1_9  and  C7_11
REMARK    7  A    between atoms: C7_11  and  C8_12
REMARK    8  A    between atoms: C8_12  and  N2_15
REMARK    9  A    between atoms: C16_21  and  N3_22
REMARK       I    between atoms: N3_22  and  C17_24
REMARK   10  A    between atoms: C17_24  and  C18_26
ROOT
HETATM    1  N2  UNL     1      31.209 -22.805   5.250  1.00  0.00    -0.355 N
HETATM    2  C11 UNL     1      30.136 -22.485   4.397  1.00  0.00     0.097 C
HETATM    3  C12 UNL     1      29.921 -21.028   4.109  1.00  0.00     0.261 C
HETATM    4  C13 UNL     1      30.787 -20.597   2.942  1.00  0.00     0.043 C
HETATM    5  C14 UNL     1      32.110 -20.289   3.608  1.00  0.00     0.042 C
HETATM    6  C15 UNL     1      31.841 -20.438   5.061  1.00  0.00     0.265 C
HETATM    7  C16 UNL     1      32.154 -21.834   5.586  1.00  0.00     0.220 C
HETATM    8  N4  UNL     1      30.435 -20.223   5.226  1.00  0.00     0.102 N
HETATM    9  C22 UNL     1      30.032 -18.860   4.966  1.00  0.00     0.311 C
ENDROOT
BRANCH   1  10
HETATM   10  C8  UNL     1      31.639 -24.151   5.025  1.00  0.00     0.058 C
HETATM   11  C9  UNL     1      33.093 -24.265   4.662  1.00  0.00     0.044 C
HETATM   12  C10 UNL     1      30.889 -24.603   3.747  1.00  0.00     0.044 C
BRANCH  10  13
HETATM   13  C7  UNL     1      31.246 -25.126   6.063  1.00  0.00     0.086 C
BRANCH  13  14
HETATM   14  N1  UNL     1      30.188 -26.020   5.852  1.00  0.00    -0.397 N
ATOM     15  H1  UNL     1      29.435 -25.741   5.222  1.00  0.00     0.158 HD
BRANCH  14  16
HETATM   16  C6  UNL     1      30.113 -27.278   6.463  1.00  0.00     0.150 C
BRANCH  16  17
HETATM   17  C5  UNL     1      29.175 -27.243   7.693  1.00  0.00     0.136 C
BRANCH  17  18
HETATM   18  C4  UNL     1      27.749 -27.115   7.353  1.00  0.00     0.037 C
BRANCH  18  19
HETATM   19  C2  UNL     1      27.156 -28.108   6.425  1.00  0.00    -0.020 C
HETATM   20  C1  UNL     1      26.637 -27.475   5.136  1.00  0.00     0.009 C
HETATM   21  C3  UNL     1      26.160 -29.048   7.005  1.00  0.00     0.009 C
ENDBRANCH  18  19
ENDBRANCH  17  18
BRANCH  17  22
HETATM   22  O1  UNL     1      29.528 -28.220   8.585  1.00  0.00    -0.394 OA
ATOM     23  H1  UNL     1      30.411 -28.196   8.936  1.00  0.00     0.210 HD
ENDBRANCH  17  22
ENDBRANCH  16  17
ENDBRANCH  14  16
ENDBRANCH  13  14
ENDBRANCH  10  13
ENDBRANCH   1  10
BRANCH   7  24
HETATM   24  N3  UNL     1      32.258 -21.626   7.020  1.00  0.00    -0.337 N
HETATM   25  C17 UNL     1      33.549 -21.804   7.632  1.00  0.00     0.227 C
HETATM   26  O2  UNL     1      34.554 -22.122   6.949  1.00  0.00    -0.273 OA
ATOM     27  H3  UNL     1      31.443 -21.363   7.575  1.00  0.00     0.164 HD
BRANCH  25  28
HETATM   28  C18 UNL     1      33.734 -21.619   9.095  1.00  0.00     0.030 C
HETATM   29  C19 UNL     1      33.511 -22.911   9.852  1.00  0.00     0.024 C
HETATM   30  C20 UNL     1      35.168 -21.100   9.266  1.00  0.00     0.024 C
HETATM   31  C21 UNL     1      32.810 -20.537   9.577  1.00  0.00     0.024 C
ENDBRANCH  25  28
ENDBRANCH   7  24
TORSDOF 10
ENDMDL