MODEL 5
REMARK VINA RESULT: -7.433401220      5.522      6.435
REMARK  8 active torsions:
REMARK  status: ('A' for Active; 'I' for Inactive)
REMARK    1  A    between atoms: C2_2  and  C3_3
REMARK       I    between atoms: C3_3  and  N1_5
REMARK    2  A    between atoms: N1_5  and  N2_7
REMARK    3  A    between atoms: C4_9  and  C5_10
REMARK    4  A    between atoms: C8_13  and  C9_14
REMARK    5  A    between atoms: C10_15  and  C11_16
REMARK       I    between atoms: C11_16  and  N3_18
REMARK    6  A    between atoms: N3_18  and  C12_20
REMARK    7  A    between atoms: C15_23  and  S1_24
REMARK    8  A    between atoms: S1_24  and  N4_25
ROOT
HETATM    1  C9  UNL     1      31.331 -23.612   4.309  1.00  0.00     0.017 C
HETATM    2  C10 UNL     1      32.082 -23.994   5.293  1.00  0.00     0.075 C
ENDROOT
BRANCH   2   3
HETATM    3  C11 UNL     1      32.758 -23.034   6.181  1.00  0.00     0.245 C
HETATM    4  O2  UNL     1      34.036 -23.120   6.190  1.00  0.00    -0.268 OA
HETATM    5  N3  UNL     1      32.092 -22.092   6.966  1.00  0.00    -0.324 N
ATOM      6  H3  UNL     1      31.073 -22.090   6.911  1.00  0.00     0.169 HD
BRANCH   5   7
HETATM    7  C12 UNL     1      32.679 -21.143   7.829  1.00  0.00     0.035 A
HETATM    8  C13 UNL     1      33.148 -19.913   7.459  1.00  0.00     0.031 A
HETATM    9  C14 UNL     1      33.741 -19.006   8.331  1.00  0.00     0.027 A
HETATM   10  C15 UNL     1      33.871 -19.354   9.656  1.00  0.00     0.079 A
HETATM   11  C16 UNL     1      33.412 -20.581  10.060  1.00  0.00     0.027 A
HETATM   12  C17 UNL     1      32.831 -21.463   9.194  1.00  0.00     0.031 A
BRANCH  10  13
HETATM   13  S1  UNL     1      34.611 -18.243  10.780  1.00  0.00     0.256 S
HETATM   14  O3  UNL     1      35.804 -18.903  11.425  1.00  0.00    -0.201 OA
HETATM   15  O4  UNL     1      33.628 -17.856  11.862  1.00  0.00    -0.201 OA
BRANCH  13  16
HETATM   16  N4  UNL     1      35.137 -16.797   9.979  1.00  0.00    -0.324 N
ATOM     17  H42 UNL     1      34.607 -16.338   9.239  1.00  0.00     0.169 HD
ATOM     18  H41 UNL     1      36.034 -16.477  10.346  1.00  0.00     0.169 HD
ENDBRANCH  13  16
ENDBRANCH  10  13
ENDBRANCH   5   7
ENDBRANCH   2   3
BRANCH   1  19
HETATM   19  C8  UNL     1      30.644 -24.524   3.406  1.00  0.00    -0.036 A
HETATM   20  C7  UNL     1      30.897 -25.876   3.425  1.00  0.00     0.012 A
HETATM   21  C6  UNL     1      30.267 -26.758   2.589  1.00  0.00     0.013 A
HETATM   22  C5  UNL     1      29.311 -26.325   1.654  1.00  0.00    -0.019 A
HETATM   23  C19 UNL     1      29.069 -24.978   1.648  1.00  0.00     0.013 A
HETATM   24  C18 UNL     1      29.717 -24.089   2.503  1.00  0.00     0.012 A
BRANCH  22  25
HETATM   25  C4  UNL     1      28.664 -27.291   0.787  1.00  0.00     0.118 C
HETATM   26  N2  UNL     1      27.762 -27.182  -0.054  1.00  0.00    -0.308 N
ATOM     27  H2  UNL     1      27.513 -28.057  -0.514  1.00  0.00     0.186 HD
BRANCH  26  28
HETATM   28  N1  UNL     1      27.047 -26.118  -0.472  1.00  0.00    -0.267 N
HETATM   29  C3  UNL     1      27.337 -25.459  -1.691  1.00  0.00     0.258 C
HETATM   30  O1  UNL     1      28.293 -25.895  -2.384  1.00  0.00    -0.267 OA
ATOM     31  H1  UNL     1      26.277 -25.780   0.105  1.00  0.00     0.190 HD
BRANCH  29  32
HETATM   32  C2  UNL     1      26.579 -24.296  -2.181  1.00  0.00     0.065 C
HETATM   33  C1  UNL     1      25.934 -24.284  -3.316  1.00  0.00     0.017 C
ENDBRANCH  29  32
ENDBRANCH  26  28
ENDBRANCH  22  25
ENDBRANCH   1  19
TORSDOF 8
ENDMDL