MODEL 5
REMARK VINA RESULT: -5.954764078      3.150      7.533
REMARK  9 active torsions:
REMARK  status: ('A' for Active; 'I' for Inactive)
REMARK    1  A    between atoms: C2_2  and  C3_3
REMARK    2  A    between atoms: C3_3  and  C5_5
REMARK    3  A    between atoms: C5_5  and  C6_6
REMARK    4  A    between atoms: C5_5  and  C18_29
REMARK       I    between atoms: C6_6  and  N1_8
REMARK    5  A    between atoms: N1_8  and  C7_10
REMARK    6  A    between atoms: C7_10  and  C9_12
REMARK       I    between atoms: C9_12  and  N2_14
REMARK    7  A    between atoms: C11_16  and  C12_17
REMARK    8  A    between atoms: C14_21  and  C15_22
REMARK    9  A    between atoms: N3_23  and  O5_25
ROOT
HETATM    1  C9  UNL     1      32.357 -21.883   6.947  1.00  0.00     0.242 C
HETATM    2  O2  UNL     1      31.603 -21.284   7.784  1.00  0.00    -0.271 OA
HETATM    3  N2  UNL     1      33.692 -22.233   7.282  1.00  0.00    -0.344 N
HETATM    4  C10 UNL     1      34.621 -23.005   6.486  1.00  0.00     0.147 C
HETATM    5  C11 UNL     1      35.854 -23.133   7.370  1.00  0.00     0.067 C
HETATM    6  C13 UNL     1      35.502 -23.981   8.552  1.00  0.00     0.034 C
HETATM    7  C14 UNL     1      34.546 -23.096   9.333  1.00  0.00     0.050 C
HETATM    8  C16 UNL     1      34.381 -21.847   8.492  1.00  0.00     0.097 C
HETATM    9  C17 UNL     1      35.823 -21.727   7.982  1.00  0.00     0.048 C
ENDROOT
BRANCH   1  10
HETATM   10  C7  UNL     1      31.828 -22.207   5.615  1.00  0.00     0.172 C
HETATM   11  C8  UNL     1      30.857 -21.025   5.248  1.00  0.00     0.042 C
BRANCH  10  12
HETATM   12  N1  UNL     1      30.978 -23.399   5.653  1.00  0.00    -0.348 N
HETATM   13  C6  UNL     1      31.389 -24.573   5.012  1.00  0.00     0.223 C
HETATM   14  O1  UNL     1      32.481 -24.546   4.395  1.00  0.00    -0.273 OA
ATOM     15  H1  UNL     1      30.086 -23.374   6.147  1.00  0.00     0.163 HD
BRANCH  13  16
HETATM   16  C5  UNL     1      30.541 -25.782   5.096  1.00  0.00     0.085 C
BRANCH  16  17
HETATM   17  C3  UNL     1      30.475 -26.255   6.490  1.00  0.00    -0.006 C
HETATM   18  C4  UNL     1      31.394 -25.596   7.486  1.00  0.00     0.011 C
BRANCH  17  19
HETATM   19  C2  UNL     1      30.470 -27.758   6.685  1.00  0.00     0.000 C
HETATM   20  C1  UNL     1      29.550 -27.969   7.907  1.00  0.00     0.005 C
ENDBRANCH  17  19
ENDBRANCH  16  17
BRANCH  16  21
HETATM   21  C18 UNL     1      29.210 -25.472   4.459  1.00  0.00    -0.009 C
HETATM   22  C19 UNL     1      29.237 -26.015   3.040  1.00  0.00     0.010 C
HETATM   23  C20 UNL     1      28.048 -26.180   5.154  1.00  0.00     0.010 C
ENDBRANCH  16  21
ENDBRANCH  13  16
ENDBRANCH  10  12
ENDBRANCH   1  10
BRANCH   5  24
HETATM   24  C12 UNL     1      37.068 -23.479   6.685  1.00  0.00     0.183 C
HETATM   25  O3  UNL     1      37.310 -23.172   5.470  1.00  0.00    -0.647 OA
HETATM   26  O4  UNL     1      38.046 -24.183   7.353  1.00  0.00    -0.647 OA
ENDBRANCH   5  24
BRANCH   7  27
HETATM   27  C15 UNL     1      35.013 -22.789  10.702  1.00  0.00     0.093 C
HETATM   28  N3  UNL     1      35.500 -23.680  11.462  1.00  0.00    -0.284 N
ATOM     29  H3  UNL     1      35.570 -24.638  11.120  1.00  0.00     0.192 HD
BRANCH  28  30
HETATM   30  O5  UNL     1      35.937 -23.392  12.737  1.00  0.00    -0.291 OA
ATOM     31  H5  UNL     1      36.356 -22.566  12.951  1.00  0.00     0.244 HD
ENDBRANCH  28  30
ENDBRANCH   7  27
TORSDOF 9
ENDMDL