MODEL 4
REMARK VINA RESULT: -7.108547454      2.990      7.303
REMARK  8 active torsions:
REMARK  status: ('A' for Active; 'I' for Inactive)
REMARK       I    between atoms: C2_2  and  N1_4
REMARK    1  A    between atoms: N1_4  and  C3_6
REMARK    2  A    between atoms: C3_6  and  C4_7
REMARK    3  A    between atoms: C4_7  and  C5_8
REMARK    4  A    between atoms: C4_7  and  C7_13
REMARK    5  A    between atoms: C5_8  and  C6_10
REMARK    6  A    between atoms: C7_13  and  O5_14
REMARK    7  A    between atoms: C7_13  and  C8_16
REMARK    8  A    between atoms: C9_17  and  C10_18
ROOT
HETATM    1  C8  UNL     1      32.119 -24.689   6.951  1.00  0.00     0.002 C
HETATM    2  C9  UNL     1      31.339 -25.776   6.966  1.00  0.00    -0.022 C
ENDROOT
BRANCH   1   3
HETATM    3  C7  UNL     1      33.339 -24.650   7.725  1.00  0.00     0.154 C
BRANCH   3   4
HETATM    4  C4  UNL     1      33.527 -23.506   8.699  1.00  0.00     0.117 C
BRANCH   4   5
HETATM    5  C3  UNL     1      35.020 -23.620   9.127  1.00  0.00     0.138 C
BRANCH   5   6
HETATM    6  N1  UNL     1      35.071 -24.201  10.438  1.00  0.00    -0.361 N
HETATM    7  C2  UNL     1      35.794 -25.392  10.646  1.00  0.00     0.213 C
HETATM    8  C1  UNL     1      35.837 -25.980  12.019  1.00  0.00     0.117 C
HETATM    9  O1  UNL     1      36.390 -25.939   9.678  1.00  0.00    -0.274 OA
ATOM     10  H1  UNL     1      34.587 -23.754  11.215  1.00  0.00     0.162 HD
ENDBRANCH   5   6
ENDBRANCH   4   5
BRANCH   4  11
HETATM   11  C5  UNL     1      33.403 -22.173   8.109  1.00  0.00     0.233 C
HETATM   12  O2  UNL     1      34.116 -21.778   7.134  1.00  0.00    -0.285 OA
BRANCH  11  13
HETATM   13  C6  UNL     1      32.441 -21.219   8.616  1.00  0.00     0.247 C
HETATM   14  O3  UNL     1      31.678 -20.601   7.861  1.00  0.00    -0.642 OA
HETATM   15  O4  UNL     1      32.317 -20.940   9.981  1.00  0.00    -0.642 OA
ENDBRANCH  11  13
ENDBRANCH   4  11
ENDBRANCH   3   4
BRANCH   3  16
HETATM   16  O5  UNL     1      33.469 -25.851   8.454  1.00  0.00    -0.391 OA
ATOM     17  H5  UNL     1      32.662 -25.979   8.940  1.00  0.00     0.210 HD
ENDBRANCH   3  16
ENDBRANCH   1   3
BRANCH   2  18
HETATM   18  C10 UNL     1      30.073 -25.857   6.184  1.00  0.00     0.021 C
HETATM   19  C11 UNL     1      30.365 -25.847   4.769  1.00  0.00     0.010 C
HETATM   20  C12 UNL     1      31.055 -27.002   4.140  1.00  0.00     0.014 C
HETATM   21  C15 UNL     1      29.214 -25.607   3.833  1.00  0.00     0.021 C
HETATM   22  C13 UNL     1      31.199 -26.473   2.700  1.00  0.00     0.079 C
HETATM   23  C14 UNL     1      29.812 -25.933   2.505  1.00  0.00     0.135 C
HETATM   24  O6  UNL     1      29.206 -25.761   1.460  1.00  0.00    -0.297 OA
HETATM   25  C16 UNL     1      28.863 -24.158   3.830  1.00  0.00     0.024 C
HETATM   26  C17 UNL     1      28.064 -26.536   4.057  1.00  0.00     0.017 C
HETATM   27  C18 UNL     1      27.300 -26.304   5.295  1.00  0.00     0.002 C
HETATM   28  C19 UNL     1      27.803 -26.948   6.529  1.00  0.00     0.009 C
HETATM   29  C20 UNL     1      29.250 -26.918   6.797  1.00  0.00    -0.040 C
HETATM   30  C21 UNL     1      29.386 -26.643   8.316  1.00  0.00     0.015 C
HETATM   31  C22 UNL     1      29.865 -28.314   6.654  1.00  0.00     0.015 C
ENDBRANCH   2  18
TORSDOF 8
ENDMDL