MODEL 1
REMARK VINA RESULT: -6.990670952      0.000      0.000
REMARK  7 active torsions:
REMARK  status: ('A' for Active; 'I' for Inactive)
REMARK       I    between atoms: N2_9  and  C5_10
REMARK    1  A    between atoms: C5_10  and  C6_12
REMARK    2  A    between atoms: C6_12  and  C7_13
REMARK    3  A    between atoms: C6_12  and  N3_19
REMARK    4  A    between atoms: C7_13  and  S1_14
REMARK    5  A    between atoms: S1_14  and  C8_15
REMARK    6  A    between atoms: C8_15  and  C9_16
REMARK    7  A    between atoms: N3_19  and  C10_21
ROOT
HETATM    1  C6  UNL     1      29.888 -25.248   4.155  1.00  0.00     0.180 C
ENDROOT
BRANCH   1   2
HETATM    2  C5  UNL     1      29.477 -25.317   2.732  1.00  0.00     0.248 C
HETATM    3  N2  UNL     1      29.236 -24.185   1.926  1.00  0.00    -0.302 N
HETATM    4  C1  UNL     1      28.789 -24.385   0.566  1.00  0.00     0.103 C
HETATM    5  C4  UNL     1      29.458 -22.826   2.351  1.00  0.00     0.159 C
HETATM    6  N1  UNL     1      28.056 -25.321   0.199  1.00  0.00    -0.387 N
HETATM    7  C2  UNL     1      29.235 -23.401  -0.497  1.00  0.00     0.243 C
ATOM      8  H12 UNL     1      27.740 -25.462  -0.760  1.00  0.00     0.157 HD
ATOM      9  H11 UNL     1      27.756 -25.984   0.915  1.00  0.00     0.157 HD
HETATM   10  O1  UNL     1      30.206 -22.595   0.068  1.00  0.00    -0.382 OA
HETATM   11  C3  UNL     1      29.666 -21.919   1.133  1.00  0.00     0.188 C
HETATM   12  O2  UNL     1      29.344 -26.446   2.195  1.00  0.00    -0.271 OA
ENDBRANCH   1   2
BRANCH   1  13
HETATM   13  C7  UNL     1      29.473 -26.600   4.827  1.00  0.00     0.108 C
BRANCH  13  14
HETATM   14  S1  UNL     1      27.826 -26.569   5.516  1.00  0.00    -0.156 SA
BRANCH  14  15
HETATM   15  C8  UNL     1      27.754 -27.261   7.209  1.00  0.00     0.186 C
BRANCH  15  16
HETATM   16  C9  UNL     1      27.015 -28.547   7.130  1.00  0.00     0.182 C
HETATM   17  O3  UNL     1      26.258 -28.838   6.193  1.00  0.00    -0.647 OA
HETATM   18  O4  UNL     1      27.182 -29.470   8.161  1.00  0.00    -0.647 OA
ENDBRANCH  15  16
ENDBRANCH  14  15
ENDBRANCH  13  14
ENDBRANCH   1  13
BRANCH   1  19
HETATM   19  N3  UNL     1      31.199 -24.953   4.463  1.00  0.00    -0.400 N
ATOM     20  H3  UNL     1      31.842 -25.381   3.796  1.00  0.00     0.154 HD
BRANCH  19  21
HETATM   21  C10 UNL     1      31.869 -24.249   5.412  1.00  0.00     0.027 C
HETATM   22  C11 UNL     1      31.273 -22.842   5.606  1.00  0.00     0.035 C
HETATM   23  C12 UNL     1      32.245 -21.906   6.299  1.00  0.00    -0.012 C
HETATM   24  C13 UNL     1      33.557 -21.813   5.599  1.00  0.00     0.009 C
HETATM   25  C17 UNL     1      32.466 -22.425   7.695  1.00  0.00     0.009 C
HETATM   26  C14 UNL     1      34.170 -23.182   5.586  1.00  0.00    -0.012 C
HETATM   27  C15 UNL     1      34.365 -23.768   6.971  1.00  0.00     0.009 C
HETATM   28  C19 UNL     1      33.294 -24.086   4.831  1.00  0.00     0.035 C
HETATM   29  C16 UNL     1      32.997 -23.835   7.586  1.00  0.00    -0.012 C
HETATM   30  C18 UNL     1      32.061 -24.755   6.808  1.00  0.00     0.035 C
ENDBRANCH  19  21
ENDBRANCH   1  19
TORSDOF 7
ENDMDL