MODEL 2
REMARK VINA RESULT: -6.805584087      5.088      8.363
REMARK  8 active torsions:
REMARK  status: ('A' for Active; 'I' for Inactive)
REMARK    1  A    between atoms: C4_5  and  C5_6
REMARK    2  A    between atoms: C6_9  and  O4_10
REMARK    3  A    between atoms: O4_10  and  C7_11
REMARK    4  A    between atoms: C7_11  and  C8_12
REMARK       I    between atoms: C8_12  and  N1_14
REMARK    5  A    between atoms: N1_14  and  C9_16
REMARK    6  A    between atoms: C9_16  and  C10_17
REMARK    7  A    between atoms: C10_17  and  S1_18
REMARK    8  A    between atoms: S1_18  and  N2_19
ROOT
HETATM    1  C1  UNL     1      30.576 -21.078   1.888  1.00  0.00     0.077 C
HETATM    2  C2  UNL     1      30.664 -22.191   2.875  1.00  0.00     0.056 A
HETATM    3  O1  UNL     1      30.312 -23.439   2.748  1.00  0.00    -0.313 OA
HETATM    4  C3  UNL     1      30.540 -24.130   3.838  1.00  0.00     0.106 A
HETATM    5  C4  UNL     1      30.348 -25.456   4.198  1.00  0.00     0.109 A
HETATM    6  C6  UNL     1      30.685 -25.935   5.447  1.00  0.00     0.095 A
HETATM    7  C11 UNL     1      31.229 -25.025   6.330  1.00  0.00    -0.021 A
HETATM    8  C12 UNL     1      31.609 -25.498   7.691  1.00  0.00     0.052 C
HETATM    9  C13 UNL     1      31.440 -23.703   6.023  1.00  0.00    -0.040 A
HETATM   10  C14 UNL     1      32.027 -22.750   6.998  1.00  0.00     0.050 C
HETATM   11  C15 UNL     1      31.092 -23.238   4.757  1.00  0.00     0.014 A
HETATM   12  C16 UNL     1      31.179 -21.995   4.163  1.00  0.00    -0.019 A
HETATM   13  C17 UNL     1      31.698 -20.761   4.759  1.00  0.00     0.052 C
ENDROOT
BRANCH   6  14
HETATM   14  O4  UNL     1      30.514 -27.231   5.846  1.00  0.00    -0.340 OA
BRANCH  14  15
HETATM   15  C7  UNL     1      29.898 -27.670   7.012  1.00  0.00     0.278 C
BRANCH  15  16
HETATM   16  C8  UNL     1      28.428 -27.674   6.809  1.00  0.00     0.241 C
HETATM   17  O5  UNL     1      27.847 -26.640   6.436  1.00  0.00    -0.271 OA
HETATM   18  N1  UNL     1      27.696 -28.859   7.045  1.00  0.00    -0.358 N
ATOM     19  H1  UNL     1      28.193 -29.698   7.346  1.00  0.00     0.162 HD
BRANCH  18  20
HETATM   20  C9  UNL     1      26.269 -28.916   6.873  1.00  0.00     0.139 C
BRANCH  20  21
HETATM   21  C10 UNL     1      25.879 -29.943   5.877  1.00  0.00     0.182 C
BRANCH  21  22
HETATM   22  S1  UNL     1      25.308 -29.221   4.349  1.00  0.00     0.226 S
HETATM   23  O6  UNL     1      23.812 -29.088   4.464  1.00  0.00    -0.206 OA
HETATM   24  O7  UNL     1      25.657 -30.137   3.233  1.00  0.00    -0.206 OA
BRANCH  22  25
HETATM   25  N2  UNL     1      26.065 -27.675   4.199  1.00  0.00    -0.328 N
ATOM     26  H22 UNL     1      25.921 -26.880   4.823  1.00  0.00     0.168 HD
ATOM     27  H21 UNL     1      26.671 -27.713   3.380  1.00  0.00     0.168 HD
ENDBRANCH  22  25
ENDBRANCH  21  22
ENDBRANCH  20  21
ENDBRANCH  18  20
ENDBRANCH  15  16
ENDBRANCH  14  15
ENDBRANCH   6  14
BRANCH   5  28
HETATM   28  C5  UNL     1      29.773 -26.354   3.221  1.00  0.00     0.215 C
HETATM   29  O2  UNL     1      30.520 -26.948   2.427  1.00  0.00    -0.644 OA
HETATM   30  O3  UNL     1      28.402 -26.562   3.153  1.00  0.00    -0.644 OA
ENDBRANCH   5  28
TORSDOF 8
ENDMDL