MODEL 3
REMARK VINA RESULT: -7.515306694      2.488      6.675
REMARK  9 active torsions:
REMARK  status: ('A' for Active; 'I' for Inactive)
REMARK    1  A    between atoms: O1_2  and  C2_3
REMARK       I    between atoms: C2_3  and  N1_5
REMARK    2  A    between atoms: C3_7  and  N2_8
REMARK    3  A    between atoms: C3_7  and  C15_27
REMARK    4  A    between atoms: N2_8  and  C4_10
REMARK    5  A    between atoms: C4_10  and  C5_11
REMARK    6  A    between atoms: C4_10  and  C12_24
REMARK       I    between atoms: C5_11  and  N3_13
REMARK    7  A    between atoms: N3_13  and  C6_15
REMARK    8  A    between atoms: C6_15  and  C7_16
REMARK    9  A    between atoms: C6_15  and  C8_19
ROOT
HETATM    1  C4  UNL     1      30.258 -25.454   6.022  1.00  0.00     0.178 C
ENDROOT
BRANCH   1   2
HETATM    2  N2  UNL     1      30.713 -25.403   4.668  1.00  0.00    -0.362 N
ATOM      3  H2  UNL     1      31.424 -26.064   4.354  1.00  0.00     0.162 HD
BRANCH   2   4
HETATM    4  C3  UNL     1      30.185 -24.430   3.734  1.00  0.00     0.116 C
HETATM    5  N1  UNL     1      30.144 -23.254   3.790  1.00  0.00    -0.288 N
HETATM    6  C2  UNL     1      30.328 -22.035   4.301  1.00  0.00     0.365 C
ATOM      7  H1  UNL     1      29.687 -23.032   2.906  1.00  0.00     0.172 HD
HETATM    8  O2  UNL     1      30.615 -21.838   5.520  1.00  0.00    -0.238 OA
BRANCH   6   9
HETATM    9  O1  UNL     1      30.219 -20.858   3.536  1.00  0.00    -0.309 OA
HETATM   10  C1  UNL     1      29.534 -19.687   3.888  1.00  0.00     0.215 C
ENDBRANCH   6   9
BRANCH   4  11
HETATM   11  C15 UNL     1      29.596 -25.029   2.475  1.00  0.00     0.008 A
HETATM   12  C16 UNL     1      29.159 -24.196   1.481  1.00  0.00     0.015 A
HETATM   13  C17 UNL     1      28.682 -24.685   0.299  1.00  0.00     0.001 A
HETATM   14  C18 UNL     1      28.664 -26.045   0.155  1.00  0.00     0.000 A
HETATM   15  C19 UNL     1      29.096 -26.913   1.141  1.00  0.00     0.001 A
HETATM   16  C20 UNL     1      29.564 -26.381   2.315  1.00  0.00     0.015 A
ENDBRANCH   4  11
ENDBRANCH   2   4
ENDBRANCH   1   2
BRANCH   1  17
HETATM   17  C5  UNL     1      31.370 -25.022   6.935  1.00  0.00     0.241 C
HETATM   18  O3  UNL     1      31.432 -25.551   8.087  1.00  0.00    -0.271 OA
HETATM   19  N3  UNL     1      32.338 -24.057   6.606  1.00  0.00    -0.341 N
ATOM     20  H3  UNL     1      32.246 -23.605   5.696  1.00  0.00     0.163 HD
BRANCH  19  21
HETATM   21  C6  UNL     1      33.446 -23.646   7.427  1.00  0.00     0.231 C
BRANCH  21  22
HETATM   22  C7  UNL     1      34.620 -23.421   6.527  1.00  0.00     0.260 C
HETATM   23  N4  UNL     1      34.575 -23.516   5.106  1.00  0.00    -0.060 NA
HETATM   24  O4  UNL     1      35.725 -23.134   7.035  1.00  0.00    -0.274 OA
ENDBRANCH  21  22
BRANCH  21  25
HETATM   25  C8  UNL     1      33.260 -22.488   8.279  1.00  0.00     0.084 A
HETATM   26  C9  UNL     1      33.329 -22.415   9.644  1.00  0.00     0.037 A
HETATM   27  C10 UNL     1      33.079 -21.099  10.045  1.00  0.00     0.027 A
HETATM   28  C11 UNL     1      32.863 -20.430   8.865  1.00  0.00     0.142 A
HETATM   29  O5  UNL     1      32.971 -21.243   7.892  1.00  0.00    -0.324 OA
ENDBRANCH  21  25
ENDBRANCH  19  21
ENDBRANCH   1  17
BRANCH   1  30
HETATM   30  C12 UNL     1      29.502 -26.621   6.473  1.00  0.00     0.009 C
HETATM   31  C13 UNL     1      30.220 -27.946   6.088  1.00  0.00     0.012 C
HETATM   32  C14 UNL     1      28.126 -26.832   5.843  1.00  0.00     0.012 C
ENDBRANCH   1  30
TORSDOF 9
ENDMDL