MODEL 3
REMARK VINA RESULT: -7.164710897      3.572      6.885
REMARK  7 active torsions:
REMARK  status: ('A' for Active; 'I' for Inactive)
REMARK    1  A    between atoms: C4_4  and  C5_5
REMARK       I    between atoms: C5_5  and  N1_7
REMARK    2  A    between atoms: C6_8  and  C7_9
REMARK       I    between atoms: C7_9  and  N2_11
REMARK    3  A    between atoms: N2_11  and  C8_12
REMARK    4  A    between atoms: C8_12  and  C9_13
REMARK    5  A    between atoms: C8_12  and  C13_17
REMARK    6  A    between atoms: C9_13  and  C10_14
REMARK    7  A    between atoms: C16_22  and  C17_23
ROOT
HETATM    1  C5  UNL     1      29.199 -26.162   1.442  1.00  0.00     0.273 C
HETATM    2  O1  UNL     1      29.638 -27.117   2.177  1.00  0.00    -0.266 OA
HETATM    3  N1  UNL     1      29.242 -24.865   2.008  1.00  0.00    -0.326 N
HETATM    4  C6  UNL     1      29.660 -24.322   3.240  1.00  0.00     0.195 C
HETATM    5  C14 UNL     1      30.488 -23.101   2.774  1.00  0.00     0.044 C
HETATM    6  C15 UNL     1      29.597 -22.528   1.717  1.00  0.00     0.028 A
HETATM    7  C16 UNL     1      29.659 -23.011   0.309  1.00  0.00     0.116 A
HETATM    8  C18 UNL     1      28.731 -23.711   1.232  1.00  0.00     0.108 A
ENDROOT
BRANCH   4   9
HETATM    9  C7  UNL     1      30.546 -25.163   4.109  1.00  0.00     0.315 C
HETATM   10  O2  UNL     1      31.791 -25.026   3.772  1.00  0.00    -0.255 OA
HETATM   11  N2  UNL     1      30.069 -25.912   5.080  1.00  0.00    -0.366 NA
BRANCH  11  12
HETATM   12  C8  UNL     1      29.561 -26.714   6.120  1.00  0.00     0.165 C
BRANCH  12  13
HETATM   13  C9  UNL     1      28.052 -26.705   6.307  1.00  0.00     0.084 C
BRANCH  13  14
HETATM   14  C10 UNL     1      27.358 -27.989   6.091  1.00  0.00    -0.016 C
HETATM   15  C11 UNL     1      26.210 -28.045   5.167  1.00  0.00     0.010 C
HETATM   16  C12 UNL     1      26.822 -28.413   7.485  1.00  0.00     0.010 C
ENDBRANCH  13  14
ENDBRANCH  12  13
BRANCH  12  17
HETATM   17  C13 UNL     1      30.287 -26.655   7.400  1.00  0.00     0.237 C
HETATM   18  O3  UNL     1      31.058 -25.692   7.640  1.00  0.00    -0.642 OA
HETATM   19  O4  UNL     1      30.146 -27.639   8.355  1.00  0.00    -0.642 OA
ENDBRANCH  12  17
ENDBRANCH  11  12
ENDBRANCH   4   9
BRANCH   1  20
HETATM   20  C4  UNL     1      28.702 -26.487   0.123  1.00  0.00     0.125 A
HETATM   21  C3  UNL     1      29.491 -26.755  -0.985  1.00  0.00     0.071 A
HETATM   22  C2  UNL     1      28.668 -27.029  -2.050  1.00  0.00     0.075 A
HETATM   23  C1  UNL     1      29.026 -27.378  -3.456  1.00  0.00     0.079 C
HETATM   24  O7  UNL     1      27.416 -26.927  -1.588  1.00  0.00    -0.242 OA
HETATM   25  N3  UNL     1      27.453 -26.610  -0.317  1.00  0.00    -0.256 N
ATOM     26  H3  UNL     1      26.626 -26.474   0.264  1.00  0.00     0.195 HD
ENDBRANCH   1  20
BRANCH   7  27
HETATM   27  C17 UNL     1      29.031 -22.060  -0.645  1.00  0.00     0.179 C
HETATM   28  O5  UNL     1      29.669 -21.423  -1.517  1.00  0.00    -0.648 OA
HETATM   29  O6  UNL     1      27.661 -21.875  -0.558  1.00  0.00    -0.648 OA
ENDBRANCH   7  27
TORSDOF 7
ENDMDL