MODEL 2
REMARK VINA RESULT: -6.790786556      0.583      1.197
REMARK  9 active torsions:
REMARK  status: ('A' for Active; 'I' for Inactive)
REMARK    1  A    between atoms: C2_2  and  C3_3
REMARK    2  A    between atoms: C3_3  and  C5_5
REMARK    3  A    between atoms: C5_5  and  C6_6
REMARK    4  A    between atoms: C6_6  and  C7_7
REMARK    5  A    between atoms: C7_7  and  N1_8
REMARK    6  A    between atoms: C7_7  and  C12_19
REMARK       I    between atoms: N1_8  and  C8_10
REMARK    7  A    between atoms: C8_10  and  C9_12
REMARK    8  A    between atoms: C9_12  and  N2_15
REMARK    9  A    between atoms: C18_28  and  C19_29
ROOT
HETATM    1  C7  UNL     1      29.126 -25.060   3.390  1.00  0.00     0.100 C
ENDROOT
BRANCH   1   2
HETATM    2  C6  UNL     1      29.224 -26.333   4.189  1.00  0.00     0.026 C
BRANCH   2   3
HETATM    3  C5  UNL     1      28.217 -26.467   5.280  1.00  0.00     0.006 C
BRANCH   3   4
HETATM    4  C3  UNL     1      28.798 -26.885   6.605  1.00  0.00    -0.019 C
HETATM    5  C4  UNL     1      27.771 -27.612   7.443  1.00  0.00     0.010 C
BRANCH   4   6
HETATM    6  C2  UNL     1      30.028 -27.729   6.491  1.00  0.00    -0.000 C
HETATM    7  C1  UNL     1      31.000 -27.428   7.635  1.00  0.00     0.005 C
ENDBRANCH   4   6
ENDBRANCH   3   4
ENDBRANCH   2   3
ENDBRANCH   1   2
BRANCH   1   8
HETATM    8  N1  UNL     1      28.711 -25.212   2.033  1.00  0.00    -0.353 N
HETATM    9  C8  UNL     1      29.117 -26.187   1.104  1.00  0.00     0.253 C
HETATM   10  O1  UNL     1      29.948 -27.099   1.371  1.00  0.00    -0.271 OA
ATOM     11  H1  UNL     1      28.035 -24.527   1.693  1.00  0.00     0.163 HD
BRANCH   9  12
HETATM   12  C9  UNL     1      28.573 -26.194  -0.279  1.00  0.00     0.196 C
HETATM   13  C10 UNL     1      28.465 -24.778  -0.825  1.00  0.00     0.056 C
HETATM   14  C11 UNL     1      29.386 -27.036  -1.228  1.00  0.00     0.056 C
BRANCH  12  15
HETATM   15  N2  UNL     1      27.226 -26.716  -0.255  1.00  0.00    -0.062 N
ATOM     16  H23 UNL     1      26.975 -27.181  -1.128  1.00  0.00     0.275 HD
ATOM     17  H22 UNL     1      27.132 -27.518   0.367  1.00  0.00     0.275 HD
ATOM     18  H21 UNL     1      26.581 -25.963  -0.017  1.00  0.00     0.275 HD
ENDBRANCH  12  15
ENDBRANCH   9  12
ENDBRANCH   1   8
BRANCH   1  19
HETATM   19  C12 UNL     1      30.410 -24.308   3.557  1.00  0.00     0.134 C
HETATM   20  C13 UNL     1      30.575 -23.013   2.883  1.00  0.00     0.230 C
HETATM   21  O2  UNL     1      30.165 -22.424   1.845  1.00  0.00    -0.273 OA
HETATM   22  N3  UNL     1      31.439 -22.682   3.954  1.00  0.00    -0.321 N
HETATM   23  C14 UNL     1      30.432 -23.372   4.770  1.00  0.00     0.166 C
HETATM   24  C18 UNL     1      32.527 -22.175   4.650  1.00  0.00     0.207 C
HETATM   25  S1  UNL     1      31.371 -24.033   6.169  1.00  0.00    -0.131 SA
HETATM   26  C15 UNL     1      32.697 -22.766   6.003  1.00  0.00     0.033 C
HETATM   27  C16 UNL     1      34.013 -23.466   6.220  1.00  0.00     0.029 C
HETATM   28  C17 UNL     1      32.479 -21.783   7.141  1.00  0.00     0.029 C
BRANCH  24  29
HETATM   29  C19 UNL     1      32.422 -20.707   4.793  1.00  0.00     0.198 C
HETATM   30  O3  UNL     1      33.453 -20.024   4.859  1.00  0.00    -0.646 OA
HETATM   31  O4  UNL     1      31.189 -20.109   4.852  1.00  0.00    -0.646 OA
ENDBRANCH  24  29
ENDBRANCH   1  19
TORSDOF 9
ENDMDL