MODEL 1
REMARK VINA RESULT: -4.341776079      0.000      0.000
REMARK  0 active torsions:
REMARK  status: ('A' for Active; 'I' for Inactive)
ROOT
HETATM    1  C1  UNL     1      -2.728   6.824 -10.685  1.00  0.00     0.044 C
HETATM    2  C2  UNL     1      -2.454   5.378 -10.945  1.00  0.00     0.165 A
HETATM    3  O1  UNL     1      -2.252   5.126 -12.359  1.00  0.00    -0.358 OA
HETATM    4  C3  UNL     1      -1.199   4.948 -11.476  1.00  0.00     0.137 A
HETATM    5  C4  UNL     1      -0.023   5.853 -11.491  1.00  0.00     0.068 C
HETATM    6  C5  UNL     1       0.990   5.600 -12.539  1.00  0.00     0.115 C
HETATM    7  N1  UNL     1       1.419   4.322 -12.815  1.00  0.00    -0.219 NA
HETATM    8  N2  UNL     1       2.742   4.042 -12.374  1.00  0.00    -0.162 NA
HETATM    9  C6  UNL     1       2.199   3.195 -11.308  1.00  0.00     0.160 C
HETATM   10  C7  UNL     1       0.970   3.185 -12.190  1.00  0.00     0.156 C
HETATM   11  S1  UNL     1      -0.578   3.250 -11.307  1.00  0.00    -0.106 SA
ENDROOT
TORSDOF 0
ENDMDL