MODEL 2
REMARK VINA RESULT: -6.085998027      0.960      1.317
REMARK  3 active torsions:
REMARK  status: ('A' for Active; 'I' for Inactive)
REMARK    1  A    between atoms: O1_1  and  N1_3
REMARK    2  A    between atoms: N1_3  and  N3_8
REMARK    3  A    between atoms: N2_4  and  O2_6
ROOT
HETATM    1  N1  UNL     1       2.392   5.208 -12.511  1.00  0.00    -0.076 N
HETATM    2  N2  UNL     1       3.128   4.177 -12.464  1.00  0.00    -0.168 N
ATOM      3  H2  UNL     1       2.710   3.288 -12.192  1.00  0.00     0.220 HD
ENDROOT
BRANCH   1   4
HETATM    4  O1  UNL     1       2.968   6.389 -12.879  1.00  0.00    -0.252 OA
ATOM      5  H1  UNL     1       3.143   6.530 -13.802  1.00  0.00     0.248 HD
ENDBRANCH   1   4
BRANCH   1   6
HETATM    6  N3  UNL     1       1.050   5.056 -12.184  1.00  0.00    -0.276 N
HETATM    7  C1  UNL     1       0.451   3.758 -12.351  1.00  0.00     0.148 C
HETATM    8  C2  UNL     1      -0.416   3.349 -11.180  1.00  0.00     0.032 C
HETATM    9  C3  UNL     1      -1.746   4.049 -11.331  1.00  0.00     0.077 C
HETATM   10  S1  UNL     1      -1.445   5.825 -11.471  1.00  0.00    -0.147 SA
HETATM   11  C4  UNL     1       0.314   6.191 -11.694  1.00  0.00     0.220 C
ENDBRANCH   1   6
BRANCH   2  12
HETATM   12  O2  UNL     1       4.479   4.213 -12.770  1.00  0.00    -0.271 OA
ATOM     13  H2  UNL     1       5.153   4.242 -12.101  1.00  0.00     0.246 HD
ENDBRANCH   2  12
TORSDOF 3
ENDMDL