MODEL 1
REMARK VINA RESULT: -4.549502973      0.000      0.000
REMARK  1 active torsions:
REMARK  status: ('A' for Active; 'I' for Inactive)
REMARK    1  A    between atoms: C5_5  and  N1_6
ROOT
HETATM    1  C1  UNL     1       0.590   3.601 -13.383  1.00  0.00     0.040 C
HETATM    2  C2  UNL     1       0.487   4.005 -11.912  1.00  0.00     0.050 C
HETATM    3  C3  UNL     1      -0.240   2.964 -11.112  1.00  0.00     0.040 C
HETATM    4  C4  UNL     1       1.880   4.215 -11.338  1.00  0.00     0.077 C
HETATM    5  C5  UNL     1       2.530   5.210 -12.313  1.00  0.00     0.268 C
HETATM    6  S1  UNL     1       1.120   6.392 -12.440  1.00  0.00    -0.009 SA
HETATM    7  N2  UNL     1      -0.126   5.303 -11.843  1.00  0.00    -0.247 N
HETATM    8  C6  UNL     1      -1.398   5.587 -11.405  1.00  0.00     0.191 C
HETATM    9  N3  UNL     1      -2.467   5.835 -11.024  1.00  0.00    -0.171 NA
ENDROOT
BRANCH   5  10
HETATM   10  N1  UNL     1       3.670   5.831 -11.711  1.00  0.00    -0.065 N
ATOM     11  H13 UNL     1       3.678   5.709 -10.698  1.00  0.00     0.275 HD
ATOM     12  H12 UNL     1       4.532   5.333 -11.931  1.00  0.00     0.275 HD
ATOM     13  H11 UNL     1       3.722   6.814 -11.975  1.00  0.00     0.275 HD
ENDBRANCH   5  10
TORSDOF 1
ENDMDL