MODEL 4
REMARK VINA RESULT: -4.915096355      1.749      3.903
REMARK  0 active torsions:
REMARK  status: ('A' for Active; 'I' for Inactive)
ROOT
HETATM    1  N1  UNL     1       3.666   5.020 -12.443  1.00  0.00    -0.073 NA
HETATM    2  C1  UNL     1       2.332   4.740 -12.047  1.00  0.00     0.168 C
HETATM    3  N2  UNL     1       1.363   5.568 -12.162  1.00  0.00    -0.284 N
ATOM      4  H2  UNL     1       1.562   6.485 -12.563  1.00  0.00     0.188 HD
HETATM    5  N3  UNL     1       0.046   5.295 -11.774  1.00  0.00    -0.321 N
HETATM    6  C2  UNL     1      -0.688   6.422 -11.262  1.00  0.00     0.143 C
HETATM    7  C3  UNL     1      -2.155   6.375 -11.438  1.00  0.00     0.021 C
HETATM    8  C4  UNL     1      -2.751   5.028 -11.628  1.00  0.00     0.004 C
HETATM    9  C5  UNL     1      -1.816   4.020 -10.980  1.00  0.00     0.028 C
HETATM   10  C6  UNL     1      -0.560   4.012 -11.867  1.00  0.00     0.112 C
HETATM   11  C7  UNL     1       0.248   2.854 -11.416  1.00  0.00     0.108 C
HETATM   12  S1  UNL     1       2.007   3.149 -11.348  1.00  0.00    -0.094 SA
ENDROOT
TORSDOF 0
ENDMDL