MODEL 3
REMARK VINA RESULT: -4.756957021      2.739      5.519
REMARK  3 active torsions:
REMARK  status: ('A' for Active; 'I' for Inactive)
REMARK    1  A    between atoms: O1_2  and  C2_3
REMARK    2  A    between atoms: N1_5  and  N2_7
REMARK    3  A    between atoms: N2_7  and  C4_9
ROOT
HETATM    1  N2  UNL     1      -2.121   1.713  -9.817  1.00  0.00    -0.278 N
ATOM      2  H2  UNL     1      -2.917   2.316 -10.022  1.00  0.00     0.189 HD
ENDROOT
BRANCH   1   3
HETATM    3  N1  UNL     1      -0.918   1.836 -10.544  1.00  0.00    -0.282 N
HETATM    4  C2  UNL     1      -0.621   2.920 -11.177  1.00  0.00     0.127 C
HETATM    5  C3  UNL     1      -1.560   4.088 -11.149  1.00  0.00     0.099 C
ATOM      6  H1  UNL     1      -0.269   1.049 -10.570  1.00  0.00     0.189 HD
BRANCH   4   7
HETATM    7  O1  UNL     1       0.584   2.946 -11.864  1.00  0.00    -0.343 OA
HETATM    8  C1  UNL     1       1.162   4.158 -12.324  1.00  0.00     0.211 C
ENDBRANCH   4   7
ENDBRANCH   1   3
BRANCH   1   9
HETATM    9  C4  UNL     1      -2.193   0.800  -8.867  1.00  0.00     0.163 A
HETATM   10  N3  UNL     1      -2.474   1.003  -7.580  1.00  0.00    -0.345 N
HETATM   11  C5  UNL     1      -2.500  -0.034  -6.781  1.00  0.00     0.097 A
ATOM     12  H3  UNL     1      -2.665   1.941  -7.227  1.00  0.00     0.167 HD
HETATM   13  C6  UNL     1      -2.237  -1.263  -7.314  1.00  0.00     0.070 A
HETATM   14  S1  UNL     1      -1.959  -0.886  -8.953  1.00  0.00    -0.063 SA
ENDBRANCH   1   9
TORSDOF 3
ENDMDL