MODEL 2
REMARK VINA RESULT: -6.092174303      1.742      3.447
REMARK  2 active torsions:
REMARK  status: ('A' for Active; 'I' for Inactive)
REMARK    1  A    between atoms: N1_1  and  N2_4
REMARK    2  A    between atoms: N2_4  and  C1_6
ROOT
HETATM    1  C1  UNL     1       0.846   5.907 -11.932  1.00  0.00     0.075 A
HETATM    2  C2  UNL     1       1.931   5.081 -12.089  1.00  0.00     0.041 A
HETATM    3  C3  UNL     1       1.954   3.718 -11.950  1.00  0.00     0.071 A
HETATM    4  S1  UNL     1       0.417   3.056 -11.537  1.00  0.00    -0.019 SA
HETATM    5  N3  UNL     1      -0.780   4.226 -11.393  1.00  0.00    -0.291 N
HETATM    6  C4  UNL     1      -2.085   4.106 -11.089  1.00  0.00     0.105 A
HETATM    7  C5  UNL     1      -2.631   5.365 -11.099  1.00  0.00     0.021 A
HETATM    8  C6  UNL     1      -1.582   6.227 -11.423  1.00  0.00     0.034 A
HETATM    9  C7  UNL     1      -0.428   5.492 -11.605  1.00  0.00     0.073 A
ENDROOT
BRANCH   1  10
HETATM   10  N2  UNL     1       1.015   7.181 -12.104  1.00  0.00    -0.305 N
ATOM     11  H2  UNL     1       0.594   7.848 -11.458  1.00  0.00     0.186 HD
BRANCH  10  12
HETATM   12  N1  UNL     1       1.774   7.628 -13.171  1.00  0.00    -0.345 N
ATOM     13  H12 UNL     1       2.460   7.002 -13.593  1.00  0.00     0.176 HD
ATOM     14  H11 UNL     1       1.637   8.577 -13.521  1.00  0.00     0.176 HD
ENDBRANCH  10  12
ENDBRANCH   1  10
TORSDOF 2
ENDMDL