MODEL 2
REMARK VINA RESULT: -4.545534150      0.052      1.357
REMARK  3 active torsions:
REMARK  status: ('A' for Active; 'I' for Inactive)
REMARK    1  A    between atoms: C2_2  and  O1_5
REMARK    2  A    between atoms: O1_5  and  C5_6
REMARK    3  A    between atoms: C5_6  and  N1_8
ROOT
HETATM    1  N1  UNL     1       2.756   4.543 -12.477  1.00  0.00    -0.264 N
ATOM      2  H1  UNL     1       2.758   3.634 -12.940  1.00  0.00     0.181 HD
HETATM    3  C6  UNL     1       3.930   5.306 -12.406  1.00  0.00     0.184 C
HETATM    4  N2  UNL     1       4.894   5.944 -12.329  1.00  0.00    -0.172 NA
ENDROOT
BRANCH   1   5
HETATM    5  C5  UNL     1       1.571   5.051 -11.900  1.00  0.00     0.224 C
HETATM    6  S1  UNL     1       1.186   6.613 -12.155  1.00  0.00    -0.032 SA
BRANCH   5   7
HETATM    7  O1  UNL     1       0.772   4.235 -11.144  1.00  0.00    -0.316 OA
BRANCH   7   8
HETATM    8  C2  UNL     1      -0.389   3.594 -11.596  1.00  0.00     0.059 C
HETATM    9  C1  UNL     1      -0.610   2.318 -10.809  1.00  0.00     0.045 C
HETATM   10  C3  UNL     1      -0.232   3.207 -13.047  1.00  0.00     0.045 C
HETATM   11  C4  UNL     1      -1.551   4.550 -11.400  1.00  0.00     0.045 C
ENDBRANCH   7   8
ENDBRANCH   5   7
ENDBRANCH   1   5
TORSDOF 3
ENDMDL