MODEL 1
REMARK VINA RESULT: -3.809807445      0.000      0.000
REMARK  1 active torsions:
REMARK  status: ('A' for Active; 'I' for Inactive)
REMARK    1  A    between atoms: N1_1  and  C1_5
ROOT
HETATM    1  C1  UNL     1      -0.568   4.986 -11.215  1.00  0.00     0.189 C
HETATM    2  C2  UNL     1       0.361   6.118 -11.383  1.00  0.00     0.040 C
HETATM    3  C3  UNL     1       1.393   6.033 -12.435  1.00  0.00     0.015 C
HETATM    4  C4  UNL     1       2.760   5.707 -11.867  1.00  0.00     0.198 C
HETATM    5  O1  UNL     1       3.166   4.420 -12.132  1.00  0.00    -0.303 OA
HETATM    6  N2  UNL     1       2.183   3.529 -12.185  1.00  0.00    -0.192 NA
HETATM    7  C5  UNL     1       1.391   3.479 -11.006  1.00  0.00     0.128 C
HETATM    8  C6  UNL     1      -0.040   3.627 -11.407  1.00  0.00     0.033 C
HETATM    9  C7  UNL     1      -0.036   3.142 -12.835  1.00  0.00     0.030 C
HETATM   10  C8  UNL     1       1.298   3.724 -13.319  1.00  0.00     0.087 C
HETATM   11  C9  UNL     1       1.037   5.163 -13.610  1.00  0.00     0.029 C
ENDROOT
BRANCH   1  12
HETATM   12  N1  UNL     1      -1.788   5.203 -12.009  1.00  0.00    -0.075 N
ATOM     13  H13 UNL     1      -1.913   6.186 -12.254  1.00  0.00     0.274 HD
ATOM     14  H12 UNL     1      -1.701   4.823 -12.951  1.00  0.00     0.274 HD
ATOM     15  H11 UNL     1      -2.601   4.827 -11.520  1.00  0.00     0.274 HD
ENDBRANCH   1  12
TORSDOF 1
ENDMDL