MODEL 1
REMARK VINA RESULT: -3.279605555      0.000      0.000
REMARK  0 active torsions:
REMARK  status: ('A' for Active; 'I' for Inactive)
ROOT
HETATM    1  C1  UNL     1      -5.202   4.521  -7.093  1.00  0.00     0.004 C
HETATM    2  C2  UNL     1      -6.390   3.695  -6.722  1.00  0.00     0.023 C
HETATM    3  C3  UNL     1      -6.303   3.224  -5.265  1.00  0.00     0.118 C
HETATM    4  S1  UNL     1      -6.404   4.735  -4.219  1.00  0.00    -0.131 SA
HETATM    5  C4  UNL     1      -4.708   5.239  -4.744  1.00  0.00     0.149 C
HETATM    6  C5  UNL     1      -4.855   5.628  -6.182  1.00  0.00     0.036 C
HETATM    7  N1  UNL     1      -4.066   3.945  -4.680  1.00  0.00    -0.340 N
HETATM    8  C6  UNL     1      -2.780   3.380  -4.319  1.00  0.00     0.261 C
HETATM    9  N2  UNL     1      -2.839   2.048  -4.862  1.00  0.00    -0.120 NA
HETATM   10  N3  UNL     1      -4.158   1.793  -5.170  1.00  0.00    -0.290 N
ATOM     11  H3  UNL     1      -4.525   0.882  -5.442  1.00  0.00     0.183 HD
HETATM   12  C7  UNL     1      -4.875   2.887  -5.066  1.00  0.00     0.107 C
ENDROOT
TORSDOF 0
ENDMDL