MODEL 1
REMARK VINA RESULT: -5.946582247      0.000      0.000
REMARK  1 active torsions:
REMARK  status: ('A' for Active; 'I' for Inactive)
REMARK    1  A    between atoms: N3_11  and  O1_12
ROOT
HETATM    1  N1  UNL     1       4.000   6.048 -11.822  1.00  0.00    -0.195 NA
HETATM    2  C1  UNL     1       3.227   5.247 -12.078  1.00  0.00     0.082 C
HETATM    3  C2  UNL     1       2.266   4.232 -12.422  1.00  0.00     0.198 C
HETATM    4  C3  UNL     1       1.076   4.802 -13.159  1.00  0.00     0.022 C
HETATM    5  C4  UNL     1       0.372   5.745 -12.236  1.00  0.00     0.010 C
HETATM    6  C5  UNL     1      -0.382   4.882 -11.215  1.00  0.00     0.043 C
HETATM    7  C6  UNL     1       0.233   3.522 -11.512  1.00  0.00     0.128 C
HETATM    8  C7  UNL     1      -0.445   2.424 -10.938  1.00  0.00     0.087 C
HETATM    9  N2  UNL     1      -0.987   1.522 -10.457  1.00  0.00    -0.195 NA
HETATM   10  C8  UNL     1       0.161   3.567 -13.049  1.00  0.00     0.050 C
HETATM   11  N3  UNL     1       1.631   3.622 -11.280  1.00  0.00    -0.158 NA
ENDROOT
BRANCH  11  12
HETATM   12  O1  UNL     1       2.230   2.535 -10.829  1.00  0.00    -0.310 OA
ATOM     13  H1  UNL     1       2.851   2.685 -10.126  1.00  0.00     0.237 HD
ENDBRANCH  11  12
TORSDOF 1
ENDMDL