MODEL 2
REMARK VINA RESULT: -7.049533221      1.361      3.321
REMARK  2 active torsions:
REMARK  status: ('A' for Active; 'I' for Inactive)
REMARK    1  A    between atoms: N1_3  and  O1_4
REMARK    2  A    between atoms: C9_14  and  O4_16
ROOT
HETATM    1  C1  UNL     1      24.190  33.430  44.099  1.00  0.00     0.034 C
HETATM    2  C2  UNL     1      24.858  33.198  45.401  1.00  0.00     0.151 C
HETATM    3  N1  UNL     1      26.098  33.993  45.419  1.00  0.00    -0.156 NA
HETATM    4  C3  UNL     1      25.786  35.175  46.172  1.00  0.00     0.136 C
HETATM    5  C4  UNL     1      25.947  36.448  45.339  1.00  0.00     0.066 C
HETATM    6  C5  UNL     1      26.631  35.281  47.416  1.00  0.00     0.066 C
HETATM    7  O2  UNL     1      24.430  35.115  46.500  1.00  0.00    -0.324 OA
HETATM    8  C6  UNL     1      24.162  33.729  46.600  1.00  0.00     0.215 C
HETATM    9  O3  UNL     1      24.878  33.296  47.722  1.00  0.00    -0.351 OA
HETATM   10  C7  UNL     1      24.003  33.173  48.760  1.00  0.00     0.174 C
HETATM   11  C8  UNL     1      22.641  32.918  48.212  1.00  0.00     0.069 C
HETATM   12  C9  UNL     1      22.752  33.401  46.769  1.00  0.00     0.114 C
HETATM   13  C10 UNL     1      22.159  32.377  45.891  1.00  0.00     0.052 C
ENDROOT
BRANCH  12  14
HETATM   14  O4  UNL     1      21.983  34.567  46.688  1.00  0.00    -0.385 OA
ATOM     15  H4  UNL     1      21.084  34.376  46.930  1.00  0.00     0.210 HD
ENDBRANCH  12  14
BRANCH   3  16
HETATM   16  O1  UNL     1      27.068  33.240  45.983  1.00  0.00    -0.310 OA
ATOM     17  H1  UNL     1      27.837  33.287  45.426  1.00  0.00     0.237 HD
ENDBRANCH   3  16
TORSDOF 2
ENDMDL