MODEL 4
REMARK VINA RESULT: -6.411112703      3.141      4.512
REMARK  1 active torsions:
REMARK  status: ('A' for Active; 'I' for Inactive)
REMARK    1  A    between atoms: N1_1  and  N2_4
ROOT
HETATM    1  N2  UNL     1      29.632  30.485  45.413  1.00  0.00    -0.298 N
ATOM      2  H2  UNL     1      30.144  30.807  44.592  1.00  0.00     0.187 HD
HETATM    3  C1  UNL     1      28.642  31.181  45.837  1.00  0.00     0.127 C
HETATM    4  S1  UNL     1      28.037  32.711  45.122  1.00  0.00    -0.076 SA
HETATM    5  C2  UNL     1      26.446  32.651  46.043  1.00  0.00     0.086 C
HETATM    6  C3  UNL     1      26.203  33.968  46.656  1.00  0.00     0.043 C
HETATM    7  C4  UNL     1      25.448  34.951  45.827  1.00  0.00     0.003 C
HETATM    8  C5  UNL     1      24.020  34.492  45.578  1.00  0.00     0.000 C
HETATM    9  C6  UNL     1      23.940  33.891  44.213  1.00  0.00     0.000 C
HETATM   10  C7  UNL     1      25.145  33.051  43.929  1.00  0.00     0.003 C
HETATM   11  C8  UNL     1      25.385  32.149  45.117  1.00  0.00     0.043 C
HETATM   12  N3  UNL     1      26.730  31.678  47.021  1.00  0.00    -0.357 N
ATOM     13  H3  UNL     1      26.082  31.552  47.800  1.00  0.00     0.162 HD
HETATM   14  C9  UNL     1      27.746  30.970  46.960  1.00  0.00     0.148 C
HETATM   15  N4  UNL     1      28.023  29.968  47.982  1.00  0.00    -0.080 NA
ENDROOT
BRANCH   1  16
HETATM   16  N1  UNL     1      30.027  29.321  46.025  1.00  0.00    -0.344 N
ATOM     17  H12 UNL     1      29.968  29.274  47.042  1.00  0.00     0.176 HD
ATOM     18  H11 UNL     1      30.371  28.518  45.499  1.00  0.00     0.176 HD
ENDBRANCH   1  16
TORSDOF 1
ENDMDL