MODEL 2
REMARK VINA RESULT: -5.866740743      1.543      1.929
REMARK  1 active torsions:
REMARK  status: ('A' for Active; 'I' for Inactive)
REMARK    1  A    between atoms: O1_1  and  C1_3
ROOT
HETATM    1  C1  UNL     1      25.634  32.959  47.832  1.00  0.00     0.147 C
HETATM    2  C2  UNL     1      24.360  33.790  47.882  1.00  0.00     0.202 C
HETATM    3  O2  UNL     1      23.954  33.947  46.576  1.00  0.00    -0.356 OA
HETATM    4  C3  UNL     1      24.227  35.163  46.033  1.00  0.00     0.321 C
HETATM    5  C4  UNL     1      25.649  35.523  45.880  1.00  0.00     0.062 C
HETATM    6  C5  UNL     1      26.545  35.156  47.015  1.00  0.00     0.012 C
HETATM    7  C6  UNL     1      26.775  33.689  47.187  1.00  0.00     0.027 C
HETATM    8  C7  UNL     1      27.250  33.041  45.909  1.00  0.00     0.093 C
HETATM    9  S1  UNL     1      25.990  32.063  45.094  1.00  0.00    -0.096 SA
HETATM   10  S2  UNL     1      24.948  33.096  43.591  1.00  0.00    -0.070 SA
HETATM   11  C8  UNL     1      23.411  33.841  44.199  1.00  0.00     0.321 C
HETATM   12  N1  UNL     1      23.615  35.190  44.694  1.00  0.00    -0.040 N
ATOM     13  H11 UNL     1      24.159  35.754  44.040  1.00  0.00     0.281 HD
ATOM     14  H12 UNL     1      22.752  35.732  44.683  1.00  0.00     0.281 HD
ENDROOT
BRANCH   1  15
HETATM   15  O1  UNL     1      25.947  32.496  49.121  1.00  0.00    -0.393 OA
ATOM     16  H1  UNL     1      25.355  32.888  49.753  1.00  0.00     0.210 HD
ENDBRANCH   1  15
TORSDOF 1
ENDMDL