MODEL 1
REMARK VINA RESULT: -7.553819873      0.000      0.000
REMARK  2 active torsions:
REMARK  status: ('A' for Active; 'I' for Inactive)
REMARK    1  A    between atoms: C2_2  and  O1_3
REMARK    2  A    between atoms: N1_13  and  O3_15
ROOT
HETATM    1  C1  UNL     1      22.605  32.925  45.084  1.00  0.00     0.081 C
HETATM    2  C2  UNL     1      23.188  33.899  46.081  1.00  0.00     0.179 C
HETATM    3  C3  UNL     1      23.581  35.161  45.347  1.00  0.00     0.237 C
HETATM    4  O2  UNL     1      24.645  34.895  44.500  1.00  0.00    -0.367 OA
HETATM    5  C4  UNL     1      25.784  34.539  45.249  1.00  0.00     0.122 C
HETATM    6  C5  UNL     1      26.863  34.182  44.271  1.00  0.00     0.047 C
HETATM    7  C6  UNL     1      27.652  35.331  43.747  1.00  0.00     0.004 C
HETATM    8  C7  UNL     1      27.928  36.427  44.709  1.00  0.00     0.006 C
HETATM    9  C8  UNL     1      26.760  36.839  45.555  1.00  0.00     0.058 C
HETATM   10  C9  UNL     1      26.174  35.630  46.153  1.00  0.00     0.046 C
HETATM   11  N1  UNL     1      26.006  35.522  47.407  1.00  0.00    -0.274 N
ATOM     12  H1  UNL     1      25.593  34.653  47.748  1.00  0.00     0.193 HD
HETATM   13  C10 UNL     1      25.411  33.276  46.000  1.00  0.00     0.215 C
HETATM   14  O4  UNL     1      24.274  33.411  46.758  1.00  0.00    -0.350 OA
ENDROOT
BRANCH  11  15
HETATM   15  O3  UNL     1      26.328  36.463  48.335  1.00  0.00    -0.290 OA
ATOM     16  H3  UNL     1      26.709  37.315  48.152  1.00  0.00     0.244 HD
ENDBRANCH  11  15
BRANCH   2  17
HETATM   17  O1  UNL     1      22.196  34.214  47.016  1.00  0.00    -0.364 OA
ATOM     18  H1  UNL     1      21.353  33.992  46.639  1.00  0.00     0.213 HD
ENDBRANCH   2  17
TORSDOF 2
ENDMDL