MODEL 5
REMARK VINA RESULT: -6.961357797      1.859      3.737
REMARK  1 active torsions:
REMARK  status: ('A' for Active; 'I' for Inactive)
REMARK    1  A    between atoms: C5_5  and  O1_6
ROOT
HETATM    1  C1  UNL     1      28.642  31.061  45.954  1.00  0.00     0.039 C
HETATM    2  C2  UNL     1      27.465  31.998  45.816  1.00  0.00     0.119 C
HETATM    3  C3  UNL     1      26.200  31.257  45.445  1.00  0.00     0.035 C
HETATM    4  C4  UNL     1      25.107  32.267  45.354  1.00  0.00     0.052 C
HETATM    5  C5  UNL     1      25.450  33.489  44.559  1.00  0.00     0.158 C
HETATM    6  C6  UNL     1      24.645  34.611  45.108  1.00  0.00     0.152 C
HETATM    7  N1  UNL     1      23.541  35.077  44.641  1.00  0.00    -0.381 N
ATOM      8  H11 UNL     1      22.988  35.847  45.018  1.00  0.00     0.158 HD
ATOM      9  H12 UNL     1      23.032  34.757  43.817  1.00  0.00     0.158 HD
HETATM   10  O2  UNL     1      25.332  35.044  46.221  1.00  0.00    -0.302 OA
HETATM   11  C7  UNL     1      26.707  34.931  45.896  1.00  0.00     0.305 C
HETATM   12  O3  UNL     1      27.130  36.180  45.501  1.00  0.00    -0.357 OA
HETATM   13  C8  UNL     1      27.840  36.087  44.340  1.00  0.00     0.174 C
HETATM   14  C9  UNL     1      27.318  34.857  43.633  1.00  0.00     0.073 C
HETATM   15  C10 UNL     1      26.849  33.975  44.772  1.00  0.00     0.151 C
HETATM   16  O4  UNL     1      27.786  32.997  44.945  1.00  0.00    -0.366 OA
ENDROOT
BRANCH   5  17
HETATM   17  O1  UNL     1      25.124  33.355  43.212  1.00  0.00    -0.378 OA
ATOM     18  H1  UNL     1      25.520  34.031  42.674  1.00  0.00     0.211 HD
ENDBRANCH   5  17
TORSDOF 1
ENDMDL