MODEL 4
REMARK VINA RESULT: -7.123352864      1.525      1.782
REMARK  0 active torsions:
REMARK  status: ('A' for Active; 'I' for Inactive)
ROOT
HETATM    1  C1  UNL     1      27.002  32.908  45.046  1.00  0.00     0.002 C
HETATM    2  C2  UNL     1      27.303  34.351  45.139  1.00  0.00     0.003 C
HETATM    3  C3  UNL     1      26.220  35.284  44.796  1.00  0.00     0.037 C
HETATM    4  C4  UNL     1      24.836  34.855  45.085  1.00  0.00     0.191 C
HETATM    5  O1  UNL     1      24.407  35.247  46.376  1.00  0.00    -0.231 OA
HETATM    6  O2  UNL     1      23.102  35.000  46.389  1.00  0.00    -0.198 OA
HETATM    7  C5  UNL     1      22.817  33.654  46.486  1.00  0.00     0.275 C
HETATM    8  C6  UNL     1      22.225  33.365  47.828  1.00  0.00     0.101 C
HETATM    9  C7  UNL     1      21.413  32.095  47.864  1.00  0.00     0.200 C
HETATM   10  O3  UNL     1      20.452  32.025  46.880  1.00  0.00    -0.286 OA
HETATM   11  N1  UNL     1      20.492  33.029  45.996  1.00  0.00    -0.096 NA
HETATM   12  C8  UNL     1      21.826  33.192  45.433  1.00  0.00     0.214 C
HETATM   13  N2  UNL     1      24.052  32.924  46.238  1.00  0.00    -0.032 N
ATOM     14  H21 UNL     1      23.945  31.910  46.282  1.00  0.00     0.281 HD
ATOM     15  H22 UNL     1      24.734  33.005  46.992  1.00  0.00     0.281 HD
HETATM   16  C9  UNL     1      24.543  33.412  44.938  1.00  0.00     0.221 C
HETATM   17  C10 UNL     1      25.669  32.567  44.468  1.00  0.00     0.036 C
ENDROOT
TORSDOF 0
ENDMDL