MODEL 4
REMARK VINA RESULT: -6.164317257      1.741      2.911
REMARK  3 active torsions:
REMARK  status: ('A' for Active; 'I' for Inactive)
REMARK    1  A    between atoms: O1_2  and  C2_3
REMARK       I    between atoms: C2_3  and  N1_5
REMARK    2  A    between atoms: C3_6  and  O3_7
REMARK    3  A    between atoms: N2_12  and  O4_13
ROOT
HETATM    1  C2  UNL     1      23.691  33.636  47.448  1.00  0.00     0.366 C
HETATM    2  O2  UNL     1      23.865  33.093  48.568  1.00  0.00    -0.238 OA
HETATM    3  N1  UNL     1      24.782  33.739  46.537  1.00  0.00    -0.276 N
HETATM    4  C3  UNL     1      26.133  33.264  46.774  1.00  0.00     0.251 C
HETATM    5  C4  UNL     1      26.501  32.726  45.413  1.00  0.00     0.078 C
HETATM    6  C5  UNL     1      26.063  31.268  45.380  1.00  0.00     0.039 C
HETATM    7  C6  UNL     1      27.973  32.801  45.127  1.00  0.00     0.039 C
HETATM    8  N2  UNL     1      25.682  33.442  44.491  1.00  0.00    -0.158 NA
HETATM    9  C7  UNL     1      24.815  34.315  45.212  1.00  0.00     0.112 C
HETATM   10  C8  UNL     1      25.359  35.724  45.328  1.00  0.00     0.058 C
HETATM   11  C9  UNL     1      23.478  34.348  44.546  1.00  0.00     0.058 C
ENDROOT
BRANCH   1  12
HETATM   12  O1  UNL     1      22.429  34.109  47.160  1.00  0.00    -0.309 OA
HETATM   13  C1  UNL     1      21.242  33.394  47.435  1.00  0.00     0.215 C
ENDBRANCH   1  12
BRANCH   4  14
HETATM   14  O3  UNL     1      26.178  32.287  47.766  1.00  0.00    -0.374 OA
ATOM     15  H3  UNL     1      26.534  31.467  47.443  1.00  0.00     0.212 HD
ENDBRANCH   4  14
BRANCH   8  16
HETATM   16  O4  UNL     1      26.373  34.048  43.507  1.00  0.00    -0.310 OA
ATOM     17  H4  UNL     1      27.112  33.542  43.189  1.00  0.00     0.237 HD
ENDBRANCH   8  16
TORSDOF 3
ENDMDL