MODEL 1
REMARK VINA RESULT: -6.051973145      0.000      0.000
REMARK  1 active torsions:
REMARK  status: ('A' for Active; 'I' for Inactive)
REMARK    1  A    between atoms: C3_4  and  O1_5
ROOT
HETATM    1  C1  UNL     1      23.860  32.205  45.885  1.00  0.00     0.146 C
HETATM    2  N1  UNL     1      24.591  33.432  45.903  1.00  0.00    -0.389 N
HETATM    3  C2  UNL     1      24.237  34.296  44.846  1.00  0.00     0.150 C
HETATM    4  C3  UNL     1      25.016  34.081  43.573  1.00  0.00     0.137 C
HETATM    5  C4  UNL     1      26.491  33.981  43.829  1.00  0.00     0.053 C
HETATM    6  C5  UNL     1      26.895  34.005  45.241  1.00  0.00     0.106 C
HETATM    7  S1  UNL     1      26.818  35.698  45.963  1.00  0.00    -0.085 SA
HETATM    8  C6  UNL     1      26.426  35.144  47.609  1.00  0.00     0.138 C
HETATM    9  N2  UNL     1      26.318  35.899  48.611  1.00  0.00    -0.380 N
ATOM     10  H21 UNL     1      26.094  35.582  49.554  1.00  0.00     0.158 HD
ATOM     11  H22 UNL     1      26.426  36.912  48.673  1.00  0.00     0.158 HD
HETATM   12  N3  UNL     1      26.278  33.748  47.523  1.00  0.00    -0.339 N
HETATM   13  C7  UNL     1      26.416  32.873  48.701  1.00  0.00     0.154 C
HETATM   14  C8  UNL     1      25.983  33.299  46.187  1.00  0.00     0.114 C
HETATM   15  C9  UNL     1      26.340  31.813  46.111  1.00  0.00     0.064 C
ENDROOT
BRANCH   4  16
HETATM   16  O1  UNL     1      24.528  32.979  42.843  1.00  0.00    -0.394 OA
ATOM     17  H1  UNL     1      25.235  32.440  42.507  1.00  0.00     0.210 HD
ENDBRANCH   4  16
TORSDOF 1
ENDMDL