MODEL 3
REMARK VINA RESULT: -6.423953305      2.765      4.952
REMARK  1 active torsions:
REMARK  status: ('A' for Active; 'I' for Inactive)
REMARK    1  A    between atoms: C5_6  and  O2_7
ROOT
HETATM    1  C1  UNL     1      25.641  31.515  45.312  1.00  0.00     0.078 C
HETATM    2  C2  UNL     1      25.595  33.018  45.358  1.00  0.00     0.159 C
HETATM    3  C3  UNL     1      26.265  33.499  44.060  1.00  0.00     0.078 C
HETATM    4  O1  UNL     1      26.430  33.433  46.387  1.00  0.00    -0.352 OA
HETATM    5  C4  UNL     1      25.794  34.221  47.322  1.00  0.00     0.224 C
HETATM    6  C5  UNL     1      24.824  33.344  48.093  1.00  0.00     0.241 C
HETATM    7  N1  UNL     1      23.527  33.391  47.512  1.00  0.00    -0.360 N
HETATM    8  C6  UNL     1      22.452  33.078  48.374  1.00  0.00     0.122 C
HETATM    9  C7  UNL     1      21.763  31.785  48.115  1.00  0.00     0.020 C
HETATM   10  C8  UNL     1      20.534  32.086  47.250  1.00  0.00     0.002 C
HETATM   11  C9  UNL     1      21.044  32.203  45.829  1.00  0.00     0.004 C
HETATM   12  C10 UNL     1      22.036  33.320  45.659  1.00  0.00     0.054 C
HETATM   13  C11 UNL     1      23.427  32.918  46.176  1.00  0.00     0.224 C
HETATM   14  O3  UNL     1      24.343  33.552  45.386  1.00  0.00    -0.332 OA
ENDROOT
BRANCH   6  15
HETATM   15  O2  UNL     1      24.730  33.903  49.384  1.00  0.00    -0.375 OA
ATOM     16  H2  UNL     1      24.376  33.221  49.943  1.00  0.00     0.212 HD
ENDBRANCH   6  15
TORSDOF 1
ENDMDL