MODEL 3
REMARK VINA RESULT: -4.274541474      1.562      2.017
REMARK  4 active torsions:
REMARK  status: ('A' for Active; 'I' for Inactive)
REMARK    1  A    between atoms: C2_2  and  N1_3
REMARK    2  A    between atoms: C5_6  and  N2_7
REMARK    3  A    between atoms: N2_7  and  C6_9
REMARK    4  A    between atoms: C6_9  and  S1_10
ROOT
HETATM    1  N1  UNL     1      13.790 101.260 158.955  1.00  0.00     0.090 N
HETATM    2  C3  UNL     1      13.085 100.806 157.746  1.00  0.00     0.274 C
HETATM    3  C4  UNL     1      11.625 100.883 157.991  1.00  0.00     0.057 C
HETATM    4  C5  UNL     1      11.604 100.773 159.526  1.00  0.00     0.111 C
HETATM    5  C8  UNL     1      12.713 101.730 159.840  1.00  0.00     0.297 C
ENDROOT
BRANCH   4   6
HETATM    6  N2  UNL     1      10.333 101.291 160.003  1.00  0.00    -0.387 N
ATOM      7  H2  UNL     1       9.537 100.664 160.122  1.00  0.00     0.159 HD
BRANCH   6   8
HETATM    8  C6  UNL     1      10.205 102.668 160.301  1.00  0.00     0.128 C
BRANCH   8   9
HETATM    9  S1  UNL     1       9.178 103.665 159.530  1.00  0.00    -0.129 SA
HETATM   10  C7  UNL     1       9.433 103.861 157.711  1.00  0.00     0.096 C
ENDBRANCH   8   9
ENDBRANCH   6   8
ENDBRANCH   4   6
BRANCH   1  11
HETATM   11  C2  UNL     1      14.454 100.144 159.590  1.00  0.00     0.268 C
HETATM   12  C1  UNL     1      15.150  99.323 158.522  1.00  0.00     0.037 C
ENDBRANCH   1  11
TORSDOF 4
ENDMDL