MODEL 2
REMARK VINA RESULT: -4.799483788      1.043      1.559
REMARK  3 active torsions:
REMARK  status: ('A' for Active; 'I' for Inactive)
REMARK    1  A    between atoms: C4_5  and  N2_6
REMARK    2  A    between atoms: N2_6  and  C5_9
REMARK    3  A    between atoms: C5_9  and  C6_10
ROOT
HETATM    1  N2  UNL     1      12.259 100.294 159.321  1.00  0.00    -0.069 N
ATOM      2  H21 UNL     1      11.378  99.783 159.380  1.00  0.00     0.277 HD
ATOM      3  H22 UNL     1      12.802  99.759 159.999  1.00  0.00     0.277 HD
ENDROOT
BRANCH   1   4
HETATM    4  C4  UNL     1      12.097 101.664 159.746  1.00  0.00     0.215 C
HETATM    5  C3  UNL     1      12.348 102.552 158.542  1.00  0.00     0.065 C
HETATM    6  C2  UNL     1      11.202 103.534 158.607  1.00  0.00     0.274 C
HETATM    7  N1  UNL     1      10.472 103.278 159.829  1.00  0.00     0.086 N
HETATM    8  C1  UNL     1       9.065 103.601 159.572  1.00  0.00     0.310 C
HETATM    9  C9  UNL     1      10.608 101.863 160.012  1.00  0.00     0.304 C
ENDBRANCH   1   4
BRANCH   1  10
HETATM   10  C5  UNL     1      12.831 100.198 158.001  1.00  0.00     0.237 C
BRANCH  10  11
HETATM   11  C6  UNL     1      13.780  99.010 158.011  1.00  0.00     0.011 A
HETATM   12  C7  UNL     1      15.197  99.303 158.345  1.00  0.00     0.007 A
HETATM   13  C8  UNL     1      14.794  98.978 156.932  1.00  0.00     0.007 A
ENDBRANCH  10  11
ENDBRANCH   1  10
TORSDOF 3
ENDMDL