MODEL 1
REMARK VINA RESULT: -5.334207339      0.000      0.000
REMARK  4 active torsions:
REMARK  status: ('A' for Active; 'I' for Inactive)
REMARK    1  A    between atoms: N1_2  and  C3_4
REMARK    2  A    between atoms: C3_4  and  C4_5
REMARK    3  A    between atoms: C6_7  and  C7_8
REMARK    4  A    between atoms: C10_11  and  N2_12
ROOT
HETATM    1  C4  UNL     1      11.489 101.242 159.890  1.00  0.00     0.045 C
HETATM    2  C5  UNL     1      12.163  99.965 160.253  1.00  0.00     0.015 C
HETATM    3  C6  UNL     1      13.075 100.272 159.039  1.00  0.00     0.021 C
HETATM    4  C10 UNL     1      11.763 100.801 158.430  1.00  0.00     0.193 C
ENDROOT
BRANCH   1   5
HETATM    5  C3  UNL     1      10.100 101.554 160.196  1.00  0.00     0.278 C
BRANCH   5   6
HETATM    6  N1  UNL     1       9.703 102.886 160.476  1.00  0.00     0.080 N
HETATM    7  C1  UNL     1       9.131 103.415 159.212  1.00  0.00     0.309 C
HETATM    8  C2  UNL     1      10.935 103.683 160.695  1.00  0.00     0.309 C
ENDBRANCH   5   6
ENDBRANCH   1   5
BRANCH   4   9
HETATM    9  N2  UNL     1      11.929 101.872 157.510  1.00  0.00    -0.074 N
ATOM     10  H23 UNL     1      11.603 101.596 156.583  1.00  0.00     0.274 HD
ATOM     11  H22 UNL     1      11.267 102.621 157.714  1.00  0.00     0.274 HD
ATOM     12  H21 UNL     1      12.878 102.243 157.456  1.00  0.00     0.274 HD
ENDBRANCH   4   9
BRANCH   3  13
HETATM   13  C7  UNL     1      13.670  99.111 158.356  1.00  0.00    -0.008 A
HETATM   14  C8  UNL     1      15.129  98.937 158.184  1.00  0.00     0.005 A
HETATM   15  C9  UNL     1      14.318  99.240 156.969  1.00  0.00     0.005 A
ENDBRANCH   3  13
TORSDOF 4
ENDMDL