MODEL 2
REMARK VINA RESULT: -4.964495819      1.236      1.636
REMARK  3 active torsions:
REMARK  status: ('A' for Active; 'I' for Inactive)
REMARK    1  A    between atoms: C3_3  and  O1_4
REMARK    2  A    between atoms: O1_4  and  C4_5
REMARK    3  A    between atoms: C4_5  and  C5_6
ROOT
HETATM    1  C1  UNL     1       9.990 104.278 160.704  1.00  0.00     0.014 C
HETATM    2  C2  UNL     1      10.021 103.135 160.303  1.00  0.00    -0.091 C
HETATM    3  C3  UNL     1      10.061 101.752 159.814  1.00  0.00     0.260 C
ENDROOT
BRANCH   3   4
HETATM    4  O1  UNL     1      10.428 101.655 158.493  1.00  0.00    -0.377 OA
BRANCH   4   5
HETATM    5  C4  UNL     1      11.832 101.666 158.353  1.00  0.00     0.193 C
BRANCH   5   6
HETATM    6  C5  UNL     1      12.357 100.228 158.291  1.00  0.00     0.100 C
HETATM    7  C6  UNL     1      13.332 100.076 159.443  1.00  0.00     0.027 C
HETATM    8  C7  UNL     1      14.648 100.652 158.968  1.00  0.00     0.004 C
HETATM    9  C8  UNL     1      15.250  99.588 158.037  1.00  0.00     0.019 C
HETATM   10  C9  UNL     1      14.164  99.186 157.071  1.00  0.00     0.114 C
HETATM   11  N1  UNL     1      13.042 100.060 157.079  1.00  0.00    -0.415 N
ATOM     12  H1  UNL     1      12.746 100.547 156.233  1.00  0.00     0.153 HD
ENDBRANCH   5   6
ENDBRANCH   4   5
ENDBRANCH   3   4
TORSDOF 3
ENDMDL