MODEL 3
REMARK VINA RESULT: -4.742609977      1.066      1.181
REMARK  4 active torsions:
REMARK  status: ('A' for Active; 'I' for Inactive)
REMARK    1  A    between atoms: C3_3  and  C4_4
REMARK    2  A    between atoms: C5_5  and  C6_6
REMARK    3  A    between atoms: C6_6  and  C7_7
REMARK    4  A    between atoms: C8_9  and  C9_10
ROOT
HETATM    1  C1  UNL     1      15.014  98.664 157.548  1.00  0.00     0.112 C
HETATM    2  C2  UNL     1      13.977  99.342 158.326  1.00  0.00    -0.106 C
HETATM    3  C3  UNL     1      13.119  99.886 158.962  1.00  0.00    -0.079 C
ENDROOT
BRANCH   3   4
HETATM    4  C4  UNL     1      12.087 100.544 159.722  1.00  0.00     0.060 C
HETATM    5  C5  UNL     1      11.084 101.136 159.126  1.00  0.00    -0.015 C
BRANCH   5   6
HETATM    6  C6  UNL     1      10.021 101.816 159.912  1.00  0.00     0.062 C
BRANCH   6   7
HETATM    7  C7  UNL     1      10.295 103.260 160.143  1.00  0.00     0.154 A
HETATM    8  O1  UNL     1       9.740 103.923 161.227  1.00  0.00    -0.375 OA
HETATM    9  C8  UNL     1       9.087 104.164 160.042  1.00  0.00     0.154 A
BRANCH   9  10
HETATM   10  C9  UNL     1       9.248 105.450 159.301  1.00  0.00     0.009 C
HETATM   11  C10 UNL     1       8.305 105.579 158.127  1.00  0.00     0.012 C
HETATM   12  C11 UNL     1       9.079 106.646 160.243  1.00  0.00     0.012 C
ENDBRANCH   9  10
ENDBRANCH   6   7
ENDBRANCH   5   6
ENDBRANCH   3   4
TORSDOF 4
ENDMDL