MODEL 1
REMARK VINA RESULT: -5.139030862      0.000      0.000
REMARK  3 active torsions:
REMARK  status: ('A' for Active; 'I' for Inactive)
REMARK    1  A    between atoms: C3_3  and  N1_4
REMARK    2  A    between atoms: N1_4  and  C5_6
REMARK    3  A    between atoms: C5_6  and  C6_7
ROOT
HETATM    1  C1  UNL     1       9.473 105.095 160.372  1.00  0.00     0.013 C
HETATM    2  C2  UNL     1      10.237 104.599 159.578  1.00  0.00    -0.087 C
HETATM    3  C3  UNL     1      11.168 103.970 158.623  1.00  0.00     0.364 C
ENDROOT
BRANCH   3   4
HETATM    4  N1  UNL     1      11.644 102.728 159.204  1.00  0.00     0.095 N
HETATM    5  C4  UNL     1      10.487 101.820 159.150  1.00  0.00     0.310 C
BRANCH   4   6
HETATM    6  C5  UNL     1      12.663 102.097 158.430  1.00  0.00     0.282 C
BRANCH   6   7
HETATM    7  C6  UNL     1      12.521 100.589 158.317  1.00  0.00     0.053 C
HETATM    8  C7  UNL     1      13.561 100.004 159.246  1.00  0.00     0.016 C
HETATM    9  C8  UNL     1      14.883 100.054 158.529  1.00  0.00     0.045 C
HETATM   10  C9  UNL     1      14.770  99.164 157.325  1.00  0.00     0.060 C
HETATM   11  N2  UNL     1      13.671  99.372 156.491  1.00  0.00    -0.382 N
HETATM   12  C10 UNL     1      12.548 100.077 156.944  1.00  0.00     0.066 C
ATOM     13  H2  UNL     1      13.685  99.007 155.539  1.00  0.00     0.164 HD
ENDBRANCH   6   7
ENDBRANCH   4   6
ENDBRANCH   3   4
TORSDOF 3
ENDMDL