MODEL 4
REMARK VINA RESULT: -4.617756514      1.766      2.217
REMARK  4 active torsions:
REMARK  status: ('A' for Active; 'I' for Inactive)
REMARK    1  A    between atoms: C5_5  and  O1_6
REMARK    2  A    between atoms: O1_6  and  C6_7
REMARK    3  A    between atoms: C6_7  and  C7_8
REMARK    4  A    between atoms: C7_8  and  N1_9
ROOT
HETATM    1  C1  UNL     1      14.394  99.996 158.242  1.00  0.00     0.011 C
HETATM    2  C2  UNL     1      13.069  99.704 158.868  1.00  0.00    -0.008 C
HETATM    3  C3  UNL     1      12.935 100.155 160.315  1.00  0.00    -0.007 C
HETATM    4  C4  UNL     1      13.423 101.562 160.253  1.00  0.00     0.037 C
HETATM    5  C5  UNL     1      12.610 102.067 159.044  1.00  0.00     0.126 C
HETATM    6  C8  UNL     1      11.999 100.761 158.632  1.00  0.00     0.019 C
HETATM    7  C9  UNL     1      11.442 100.290 159.983  1.00  0.00     0.012 C
ENDROOT
BRANCH   5   8
HETATM    8  O1  UNL     1      11.589 102.909 159.455  1.00  0.00    -0.384 OA
BRANCH   8   9
HETATM    9  C6  UNL     1      11.195 103.789 158.452  1.00  0.00     0.195 C
BRANCH   9  10
HETATM   10  C7  UNL     1       9.704 103.722 158.203  1.00  0.00     0.255 C
BRANCH  10  11
HETATM   11  N1  UNL     1       9.442 103.859 156.793  1.00  0.00    -0.077 N
ATOM     12  H13 UNL     1       8.778 104.607 156.596  1.00  0.00     0.274 HD
ATOM     13  H12 UNL     1      10.243 104.238 156.289  1.00  0.00     0.274 HD
ATOM     14  H11 UNL     1       9.137 102.963 156.413  1.00  0.00     0.274 HD
ENDBRANCH  10  11
ENDBRANCH   9  10
ENDBRANCH   8   9
ENDBRANCH   5   8
TORSDOF 4
ENDMDL