MODEL 1
REMARK VINA RESULT: -6.195121455      0.000      0.000
REMARK  3 active torsions:
REMARK  status: ('A' for Active; 'I' for Inactive)
REMARK    1  A    between atoms: C2_2  and  C5_5
REMARK    2  A    between atoms: C7_9  and  N2_10
REMARK    3  A    between atoms: N2_10  and  C8_12
ROOT
HETATM    1  C5  UNL     1      11.705  19.269 -14.315  1.00  0.00     0.018 C
HETATM    2  C6  UNL     1      11.914  18.210 -13.290  1.00  0.00     0.126 C
HETATM    3  N1  UNL     1      12.401  18.947 -12.141  1.00  0.00    -0.380 N
ATOM      4  H1  UNL     1      12.924  18.534 -11.368  1.00  0.00     0.160 HD
HETATM    5  C7  UNL     1      12.086  20.194 -12.227  1.00  0.00     0.073 C
HETATM    6  C14 UNL     1      11.326  20.467 -13.477  1.00  0.00     0.082 C
ENDROOT
BRANCH   5   7
HETATM    7  N2  UNL     1      12.438  21.149 -11.235  1.00  0.00    -0.374 N
ATOM      8  H2  UNL     1      12.711  20.811 -10.313  1.00  0.00     0.161 HD
BRANCH   7   9
HETATM    9  C8  UNL     1      12.428  22.573 -11.466  1.00  0.00     0.101 C
HETATM   10  C9  UNL     1      13.824  23.088 -11.565  1.00  0.00     0.026 C
HETATM   11  C10 UNL     1      14.038  24.359 -10.759  1.00  0.00     0.002 C
HETATM   12  C11 UNL     1      13.671  24.017  -9.329  1.00  0.00     0.002 C
HETATM   13  C12 UNL     1      12.219  23.638  -9.200  1.00  0.00     0.022 C
HETATM   14  C13 UNL     1      11.562  23.322 -10.496  1.00  0.00     0.105 C
HETATM   15 CL1  UNL     1      10.859  24.779 -11.255  1.00  0.00    -0.123 Cl
ENDBRANCH   7   9
ENDBRANCH   5   7
BRANCH   1  16
HETATM   16  C2  UNL     1      10.695  18.936 -15.365  1.00  0.00    -0.046 C
HETATM   17  C1  UNL     1      11.239  18.864 -16.748  1.00  0.00     0.015 C
HETATM   18  C3  UNL     1      10.074  17.603 -15.012  1.00  0.00     0.015 C
HETATM   19  C4  UNL     1       9.606  19.974 -15.324  1.00  0.00     0.015 C
ENDBRANCH   1  16
TORSDOF 3
ENDMDL