MODEL 2
REMARK VINA RESULT: -6.319457197      1.659      2.067
REMARK  1 active torsions:
REMARK  status: ('A' for Active; 'I' for Inactive)
REMARK    1  A    between atoms: C13_14  and  C14_16
ROOT
HETATM    1  C1  UNL     1      11.510  18.975 -14.290  1.00  0.00     0.021 C
HETATM    2  C2  UNL     1      11.671  20.027 -13.535  1.00  0.00    -0.042 C
HETATM    3  C3  UNL     1      12.287  19.938 -12.161  1.00  0.00     0.042 C
HETATM    4  C4  UNL     1      11.348  20.534 -11.145  1.00  0.00     0.034 C
HETATM    5  C5  UNL     1      10.734  21.832 -11.555  1.00  0.00     0.136 C
HETATM    6  N1  UNL     1      11.195  22.343 -12.836  1.00  0.00    -0.364 N
HETATM    7  C6  UNL     1      11.290  21.399 -13.895  1.00  0.00     0.027 C
HETATM    8  C7  UNL     1      11.066  21.673 -15.154  1.00  0.00     0.043 C
HETATM    9  C8  UNL     1      11.548  23.711 -13.112  1.00  0.00     0.026 C
HETATM   10  C9  UNL     1      12.721  23.855 -14.054  1.00  0.00     0.038 C
HETATM   11  C10 UNL     1      10.371  24.539 -13.617  1.00  0.00     0.038 C
HETATM   12  C11 UNL     1      11.996  24.391 -11.808  1.00  0.00     0.034 C
HETATM   13  C12 UNL     1      10.843  24.215 -10.830  1.00  0.00     0.060 C
HETATM   14  C13 UNL     1      10.901  22.773 -10.406  1.00  0.00     0.211 C
HETATM   15  F1  UNL     1      12.150  22.587  -9.793  1.00  0.00    -0.229 F
ENDROOT
BRANCH  14  16
HETATM   16  C14 UNL     1       9.854  22.461  -9.387  1.00  0.00     0.216 C
HETATM   17  O1  UNL     1      10.144  22.340  -8.170  1.00  0.00    -0.645 OA
HETATM   18  O2  UNL     1       8.549  22.315  -9.871  1.00  0.00    -0.645 OA
ENDBRANCH  14  16
TORSDOF 1
ENDMDL