MODEL 1
REMARK VINA RESULT: -5.263118704      0.000      0.000
REMARK  2 active torsions:
REMARK  status: ('A' for Active; 'I' for Inactive)
REMARK    1  A    between atoms: N1_1  and  C1_4
REMARK    2  A    between atoms: N3_10  and  C4_11
ROOT
HETATM    1  C1  UNL     1       6.281  18.675 -11.245  1.00  0.00     0.135 A
HETATM    2  C2  UNL     1       7.028  19.798 -11.526  1.00  0.00     0.072 A
HETATM    3 BR1  UNL     1       6.548  21.603 -11.307  1.00  0.00    -0.045 Br
HETATM    4  C3  UNL     1       8.216  19.315 -12.007  1.00  0.00     0.130 A
HETATM    5  N2  UNL     1       8.150  17.995 -12.001  1.00  0.00    -0.306 N
ATOM      6  H2  UNL     1       8.905  17.382 -12.311  1.00  0.00     0.186 HD
HETATM    7  N3  UNL     1       6.991  17.569 -11.545  1.00  0.00    -0.271 N
ENDROOT
BRANCH   7   8
HETATM    8  C4  UNL     1       6.641  16.209 -11.426  1.00  0.00     0.110 C
HETATM    9  C5  UNL     1       7.054  15.494 -10.195  1.00  0.00     0.027 C
HETATM   10  C6  UNL     1       6.871  14.040 -10.615  1.00  0.00     0.002 C
HETATM   11  C7  UNL     1       7.618  14.043 -11.933  1.00  0.00     0.002 C
HETATM   12  C8  UNL     1       7.106  15.321 -12.565  1.00  0.00     0.027 C
ENDBRANCH   7   8
BRANCH   1  13
HETATM   13  N1  UNL     1       5.095  18.753 -10.771  1.00  0.00    -0.383 N
ATOM     14  H12 UNL     1       4.408  19.494 -10.903  1.00  0.00     0.157 HD
ATOM     15  H11 UNL     1       4.706  18.024 -10.173  1.00  0.00     0.157 HD
ENDBRANCH   1  13
TORSDOF 2
ENDMDL