MODEL 1
REMARK VINA RESULT: -5.785256601      0.000      0.000
REMARK  3 active torsions:
REMARK  status: ('A' for Active; 'I' for Inactive)
REMARK    1  A    between atoms: C5_5  and  O1_6
REMARK    2  A    between atoms: C8_10  and  C9_11
REMARK    3  A    between atoms: C12_14  and  O2_15
ROOT
HETATM    1  C1  UNL     1      10.197  21.606  -9.791  1.00  0.00     0.015 C
HETATM    2  C2  UNL     1      11.163  22.335 -10.311  1.00  0.00    -0.084 C
HETATM    3  C3  UNL     1      11.227  23.792 -10.111  1.00  0.00     0.036 C
HETATM    4  C4  UNL     1      12.602  24.143  -9.663  1.00  0.00     0.036 C
HETATM    5  C5  UNL     1      13.703  23.262 -10.094  1.00  0.00     0.122 C
HETATM    6  C6  UNL     1      13.413  22.448 -11.362  1.00  0.00     0.019 C
HETATM    7  C7  UNL     1      13.497  23.380 -12.494  1.00  0.00     0.013 C
HETATM    8  C8  UNL     1      12.209  21.651 -11.117  1.00  0.00     0.025 C
ENDROOT
BRANCH   8   9
HETATM    9  C9  UNL     1      11.539  20.980 -12.264  1.00  0.00     0.013 C
HETATM   10  C10 UNL     1      10.898  21.881 -13.265  1.00  0.00     0.009 C
HETATM   11  C11 UNL     1      11.072  21.413 -14.693  1.00  0.00     0.032 C
HETATM   12  C12 UNL     1      10.814  19.932 -14.794  1.00  0.00     0.119 C
HETATM   13  C13 UNL     1      11.766  19.142 -13.947  1.00  0.00     0.052 C
HETATM   14  C14 UNL     1      12.439  19.929 -12.877  1.00  0.00     0.089 C
HETATM   15 CL1  UNL     1      12.808  18.787 -11.543  1.00  0.00    -0.124 Cl
BRANCH  12  16
HETATM   16  O2  UNL     1       9.487  19.726 -14.370  1.00  0.00    -0.396 OA
ATOM     17  H2  UNL     1       8.940  19.807 -15.143  1.00  0.00     0.210 HD
ENDBRANCH  12  16
ENDBRANCH   8   9
BRANCH   5  18
HETATM   18  O1  UNL     1      14.860  24.013 -10.303  1.00  0.00    -0.395 OA
ATOM     19  H1  UNL     1      14.807  24.468 -11.135  1.00  0.00     0.210 HD
ENDBRANCH   5  18
TORSDOF 3
ENDMDL