MODEL 1
REMARK VINA RESULT: -6.673865031      0.000      0.000
REMARK  1 active torsions:
REMARK  status: ('A' for Active; 'I' for Inactive)
REMARK    1  A    between atoms: N3_8  and  N4_10
ROOT
HETATM    1  C1  UNL     1       6.582  14.450  -9.909  1.00  0.00     0.071 C
HETATM    2  C2  UNL     1       7.313  14.534 -11.222  1.00  0.00     0.047 A
HETATM    3  N1  UNL     1       7.994  13.562 -11.834  1.00  0.00    -0.302 N
ATOM      4  H1  UNL     1       8.103  12.616 -11.470  1.00  0.00     0.186 HD
HETATM    5  N2  UNL     1       8.505  13.984 -12.965  1.00  0.00    -0.283 N
ATOM      6  H2  UNL     1       9.067  13.430 -13.612  1.00  0.00     0.188 HD
HETATM    7  C3  UNL     1       8.158  15.288 -13.126  1.00  0.00     0.158 A
HETATM    8  N3  UNL     1       8.481  16.049 -14.131  1.00  0.00    -0.283 N
ATOM      9  H3  UNL     1       9.047  15.684 -14.897  1.00  0.00     0.188 HD
HETATM   10  C12 UNL     1       7.407  15.643 -12.035  1.00  0.00     0.104 A
HETATM   11 CL1  UNL     1       6.692  17.208 -11.713  1.00  0.00    -0.078 Cl
ENDROOT
BRANCH   8  12
HETATM   12  N4  UNL     1       8.042  17.364 -14.142  1.00  0.00    -0.307 N
HETATM   13  C4  UNL     1       8.863  18.275 -14.603  1.00  0.00     0.004 C
HETATM   14  C5  UNL     1       8.177  19.594 -14.515  1.00  0.00     0.054 C
HETATM   15  C11 UNL     1      10.145  17.734 -15.046  1.00  0.00     0.054 C
HETATM   16  C6  UNL     1       8.855  20.539 -15.471  1.00  0.00     0.006 C
HETATM   17  C7  UNL     1       9.703  21.556 -14.770  1.00  0.00     0.000 C
HETATM   18  C8  UNL     1      11.060  21.126 -14.370  1.00  0.00     0.000 C
HETATM   19  C9  UNL     1      11.182  19.713 -13.859  1.00  0.00     0.000 C
HETATM   20  C10 UNL     1      11.290  18.706 -14.966  1.00  0.00     0.006 C
ATOM     21  H4  UNL     1       7.113  17.614 -13.803  1.00  0.00     0.186 HD
ENDBRANCH   8  12
TORSDOF 1
ENDMDL