MODEL 1
REMARK VINA RESULT: -6.210145980      0.000      0.000
REMARK  2 active torsions:
REMARK  status: ('A' for Active; 'I' for Inactive)
REMARK    1  A    between atoms: C2_2  and  C4_5
REMARK    2  A    between atoms: C8_9  and  N1_10
REMARK       I    between atoms: N1_10  and  C9_12
REMARK       I    between atoms: C9_12  and  N2_14
ROOT
HETATM    1  N1  UNL     1      13.713  23.485  -9.823  1.00  0.00    -0.338 N
ATOM      2  H1  UNL     1      13.980  22.642  -9.314  1.00  0.00     0.164 HD
HETATM    3  C9  UNL     1      14.581  24.589  -9.777  1.00  0.00     0.329 C
HETATM    4  O1  UNL     1      14.273  25.632 -10.392  1.00  0.00    -0.246 OA
HETATM    5  N2  UNL     1      15.783  24.516  -9.044  1.00  0.00    -0.245 N
ATOM      6  H2  UNL     1      16.004  23.650  -8.553  1.00  0.00     0.183 HD
HETATM    7  C10 UNL     1      16.692  25.588  -8.960  1.00  0.00     0.185 C
HETATM    8  N3  UNL     1      17.431  26.484  -8.884  1.00  0.00    -0.172 NA
ENDROOT
BRANCH   1   9
HETATM    9  C8  UNL     1      12.463  23.473 -10.551  1.00  0.00     0.086 C
HETATM   10  C7  UNL     1      12.635  23.276 -12.016  1.00  0.00     0.026 C
HETATM   11  C6  UNL     1      12.497  21.824 -12.449  1.00  0.00     0.013 C
HETATM   12  C4  UNL     1      11.141  21.267 -12.159  1.00  0.00    -0.023 C
HETATM   13  C5  UNL     1      11.328  19.915 -11.509  1.00  0.00     0.017 C
HETATM   14  C12 UNL     1      10.494  22.166 -11.124  1.00  0.00     0.013 C
HETATM   15  C11 UNL     1      11.495  22.451 -10.020  1.00  0.00     0.026 C
BRANCH  12  16
HETATM   16  C2  UNL     1      10.261  21.192 -13.384  1.00  0.00     0.037 C
HETATM   17  C1  UNL     1       9.258  20.064 -13.294  1.00  0.00     0.033 C
HETATM   18  C3  UNL     1      11.057  20.961 -14.645  1.00  0.00     0.033 C
HETATM   19 CL1  UNL     1       9.336  22.693 -13.617  1.00  0.00    -0.119 Cl
ENDBRANCH  12  16
ENDBRANCH   1   9
TORSDOF 2
ENDMDL