MODEL 5
REMARK VINA RESULT: -5.798661821      3.252      4.488
REMARK  5 active torsions:
REMARK  status: ('A' for Active; 'I' for Inactive)
REMARK    1  A    between atoms: C2_2  and  C4_5
REMARK    2  A    between atoms: C4_5  and  C5_6
REMARK    3  A    between atoms: C6_7  and  C7_8
REMARK    4  A    between atoms: C9_10  and  C10_11
REMARK    5  A    between atoms: C10_11  and  O1_12
ROOT
HETATM    1  C7  UNL     1      13.234  23.806 -12.450  1.00  0.00     0.075 C
HETATM    2  C8  UNL     1      14.048  23.271 -11.284  1.00  0.00     0.031 C
HETATM    3  C9  UNL     1      13.890  24.315 -10.202  1.00  0.00    -0.002 C
HETATM    4  C11 UNL     1      12.701  23.918  -9.359  1.00  0.00     0.125 C
HETATM    5  N1  UNL     1      11.491  23.806 -10.108  1.00  0.00    -0.420 N
ATOM      6  H1  UNL     1      10.797  23.085  -9.910  1.00  0.00     0.153 HD
HETATM    7  C12 UNL     1      11.313  24.759 -11.142  1.00  0.00     0.124 C
HETATM    8  C13 UNL     1      12.539  25.042 -11.954  1.00  0.00    -0.013 C
HETATM    9  C14 UNL     1      12.259  25.978 -13.071  1.00  0.00     0.018 C
HETATM   10  C15 UNL     1      13.597  25.584 -10.979  1.00  0.00     0.025 C
ENDROOT
BRANCH   1  11
HETATM   11  C6  UNL     1      12.340  22.816 -13.005  1.00  0.00    -0.101 C
HETATM   12  C5  UNL     1      11.603  21.993 -13.486  1.00  0.00    -0.103 C
BRANCH  12  13
HETATM   13  C4  UNL     1      10.718  20.996 -14.095  1.00  0.00     0.136 C
BRANCH  13  14
HETATM   14  C2  UNL     1      11.291  19.633 -13.778  1.00  0.00     0.106 C
HETATM   15  C1  UNL     1      10.234  18.824 -13.057  1.00  0.00     0.052 C
HETATM   16  C3  UNL     1      11.588  18.907 -15.084  1.00  0.00     0.052 C
HETATM   17  F1  UNL     1      12.426  19.724 -13.017  1.00  0.00    -0.243 F
ENDBRANCH  13  14
ENDBRANCH  12  13
ENDBRANCH   1  11
BRANCH   3  18
HETATM   18  C10 UNL     1      15.120  24.411  -9.362  1.00  0.00     0.175 C
BRANCH  18  19
HETATM   19  O1  UNL     1      15.647  25.693  -9.412  1.00  0.00    -0.400 OA
ATOM     20  H1  UNL     1      16.582  25.678  -9.241  1.00  0.00     0.209 HD
ENDBRANCH  18  19
ENDBRANCH   3  18
TORSDOF 5
ENDMDL