MODEL 4
REMARK VINA RESULT: -6.013693626      2.847      5.734
REMARK  3 active torsions:
REMARK  status: ('A' for Active; 'I' for Inactive)
REMARK    1  A    between atoms: C5_5  and  C6_6
REMARK    2  A    between atoms: C10_10  and  O1_11
REMARK    3  A    between atoms: C12_14  and  O2_15
ROOT
HETATM    1  C1  UNL     1       8.907  19.991 -15.945  1.00  0.00     0.021 C
HETATM    2  C2  UNL     1       9.716  19.278 -14.876  1.00  0.00    -0.005 C
HETATM    3  C3  UNL     1       8.810  18.486 -13.946  1.00  0.00     0.021 C
HETATM    4  C4  UNL     1      10.588  20.208 -14.117  1.00  0.00    -0.042 C
HETATM    5  C5  UNL     1      10.461  21.506 -14.017  1.00  0.00     0.006 C
HETATM    6  C12 UNL     1      11.633  19.382 -13.492  1.00  0.00     0.149 C
HETATM    7  C13 UNL     1      11.735  18.160 -14.358  1.00  0.00     0.057 C
HETATM    8  C14 UNL     1      10.709  18.321 -15.463  1.00  0.00     0.097 C
HETATM    9 CL1  UNL     1      11.444  18.986 -16.947  1.00  0.00    -0.124 Cl
ENDROOT
BRANCH   5  10
HETATM   10  C6  UNL     1      11.388  22.279 -13.241  1.00  0.00     0.003 C
HETATM   11  C7  UNL     1      11.159  22.672 -12.000  1.00  0.00    -0.077 C
HETATM   12  C8  UNL     1      12.112  23.469 -11.194  1.00  0.00     0.037 C
HETATM   13  C11 UNL     1       9.967  22.431 -11.150  1.00  0.00     0.065 C
HETATM   14  C9  UNL     1      11.879  22.865  -9.802  1.00  0.00     0.036 C
HETATM   15  C10 UNL     1      10.356  22.853  -9.772  1.00  0.00     0.122 C
BRANCH  15  16
HETATM   16  O1  UNL     1       9.865  21.939  -8.846  1.00  0.00    -0.395 OA
ATOM     17  H1  UNL     1      10.289  21.093  -8.928  1.00  0.00     0.210 HD
ENDBRANCH  15  16
ENDBRANCH   5  10
BRANCH   6  18
HETATM   18  O2  UNL     1      11.255  19.051 -12.180  1.00  0.00    -0.391 OA
ATOM     19  H2  UNL     1      11.521  18.160 -11.983  1.00  0.00     0.210 HD
ENDBRANCH   6  18
TORSDOF 3
ENDMDL