MODEL 5
REMARK VINA RESULT: -5.786604834      4.133      5.858
REMARK  3 active torsions:
REMARK  status: ('A' for Active; 'I' for Inactive)
REMARK    1  A    between atoms: C2_2  and  C4_4
REMARK    2  A    between atoms: C9_10  and  O1_11
REMARK    3  A    between atoms: C15_18  and  O2_19
ROOT
HETATM    1  C4  UNL     1      11.869  20.903 -12.615  1.00  0.00     0.045 C
HETATM    2  C5  UNL     1      11.778  21.352 -11.197  1.00  0.00     0.056 C
HETATM    3  C6  UNL     1      11.688  22.853 -11.016  1.00  0.00     0.112 C
HETATM    4  F1  UNL     1      10.323  23.150 -11.148  1.00  0.00    -0.242 F
HETATM    5  C7  UNL     1      12.140  23.166  -9.631  1.00  0.00     0.047 C
HETATM    6  C8  UNL     1      13.027  24.336  -9.462  1.00  0.00     0.035 C
HETATM    7  C9  UNL     1      12.867  25.446 -10.425  1.00  0.00     0.122 C
HETATM    8  C10 UNL     1      12.380  25.078 -11.789  1.00  0.00     0.022 C
HETATM    9  C11 UNL     1      11.032  25.698 -11.985  1.00  0.00     0.013 C
HETATM   10  C12 UNL     1      12.453  23.611 -12.080  1.00  0.00     0.000 C
HETATM   11  C13 UNL     1      13.914  23.197 -11.935  1.00  0.00     0.019 C
HETATM   12  C14 UNL     1      12.012  23.250 -13.444  1.00  0.00     0.045 C
HETATM   13  C15 UNL     1      11.245  21.937 -13.521  1.00  0.00     0.127 C
ENDROOT
BRANCH   1  14
HETATM   14  C2  UNL     1      11.159  19.618 -12.797  1.00  0.00    -0.086 C
HETATM   15  C1  UNL     1       9.874  19.551 -12.502  1.00  0.00     0.014 C
HETATM   16  C3  UNL     1      11.831  18.389 -13.302  1.00  0.00     0.043 C
ENDBRANCH   1  14
BRANCH  13  17
HETATM   17  O2  UNL     1      11.387  21.433 -14.837  1.00  0.00    -0.395 OA
ATOM     18  H2  UNL     1      10.832  21.976 -15.384  1.00  0.00     0.210 HD
ENDBRANCH  13  17
BRANCH   7  19
HETATM   19  O1  UNL     1      14.120  26.108 -10.480  1.00  0.00    -0.395 OA
ATOM     20  H1  UNL     1      14.087  26.678 -11.239  1.00  0.00     0.210 HD
ENDBRANCH   7  19
TORSDOF 3
ENDMDL