MODEL 2
REMARK VINA RESULT: -6.921530020      4.631      5.399
REMARK  2 active torsions:
REMARK  status: ('A' for Active; 'I' for Inactive)
REMARK    1  A    between atoms: C4_9  and  N3_10
REMARK    2  A    between atoms: N3_10  and  C5_12
ROOT
HETATM    1  N3  UNL     1      10.992  18.308 -14.438  1.00  0.00    -0.373 N
ATOM      2  H3  UNL     1      10.562  17.389 -14.540  1.00  0.00     0.161 HD
ENDROOT
BRANCH   1   3
HETATM    3  C4  UNL     1      11.846  18.560 -13.301  1.00  0.00     0.104 A
HETATM    4  C2  UNL     1      12.132  19.832 -12.653  1.00  0.00     0.149 A
HETATM    5  C1  UNL     1      10.849  20.463 -12.087  1.00  0.00     0.040 C
HETATM    6  N1  UNL     1      13.035  19.513 -11.582  1.00  0.00    -0.332 N
HETATM    7  C3  UNL     1      13.262  18.112 -11.609  1.00  0.00     0.322 A
ATOM      8  H1  UNL     1      13.441  20.175 -10.920  1.00  0.00     0.165 HD
HETATM    9  O1  UNL     1      14.001  17.469 -10.819  1.00  0.00    -0.247 OA
HETATM   10  N2  UNL     1      12.490  17.634 -12.694  1.00  0.00    -0.297 N
ATOM     11  H2  UNL     1      12.451  16.651 -12.965  1.00  0.00     0.172 HD
ENDBRANCH   1   3
BRANCH   1  12
HETATM   12  C5  UNL     1      10.731  19.316 -15.432  1.00  0.00     0.082 C
HETATM   13  C6  UNL     1      11.092  18.762 -16.807  1.00  0.00     0.025 C
HETATM   14  C7  UNL     1      11.697  19.825 -17.686  1.00  0.00     0.002 C
HETATM   15  C8  UNL     1      10.787  20.189 -18.828  1.00  0.00     0.000 C
HETATM   16  C9  UNL     1      10.313  21.608 -18.611  1.00  0.00     0.000 C
HETATM   17  C10 UNL     1       8.826  21.674 -18.420  1.00  0.00     0.000 C
HETATM   18  C11 UNL     1       8.318  20.879 -17.267  1.00  0.00     0.000 C
HETATM   19  C12 UNL     1       9.045  21.095 -15.985  1.00  0.00     0.002 C
HETATM   20  C13 UNL     1       9.302  19.756 -15.354  1.00  0.00     0.025 C
ENDBRANCH   1  12
TORSDOF 2
ENDMDL