MODEL 3
REMARK VINA RESULT: -7.250614178      0.533      1.113
REMARK  8 active torsions:
REMARK  status: ('A' for Active; 'I' for Inactive)
REMARK    1  A    between atoms: C4_6  and  N2_7
REMARK    2  A    between atoms: N2_7  and  C5_9
REMARK    3  A    between atoms: C5_9  and  C6_10
REMARK    4  A    between atoms: C6_10  and  C7_11
REMARK    5  A    between atoms: C7_11  and  C8_12
REMARK    6  A    between atoms: C8_12  and  C9_13
REMARK    7  A    between atoms: C9_13  and  N3_14
REMARK    8  A    between atoms: N6_24  and  C12_25
ROOT
HETATM    1  C1  UNL     1      -2.226  33.320  81.698  1.00  0.00     0.089 C
HETATM    2  C2  UNL     1      -3.475  33.990  81.267  1.00  0.00     0.082 A
HETATM    3  N1  UNL     1      -4.442  34.433  82.105  1.00  0.00    -0.340 N
ATOM      4  H1  UNL     1      -4.428  34.361  83.122  1.00  0.00     0.167 HD
HETATM    5  C3  UNL     1      -5.421  34.985  81.370  1.00  0.00     0.122 A
HETATM    6  C4  UNL     1      -6.630  35.589  81.667  1.00  0.00     0.133 A
HETATM    7  N4  UNL     1      -7.382  36.041  80.662  1.00  0.00    -0.337 N
ATOM      8  H4  UNL     1      -8.273  36.486  80.883  1.00  0.00     0.168 HD
HETATM    9  C10 UNL     1      -7.017  35.936  79.362  1.00  0.00     0.183 A
HETATM   10  N5  UNL     1      -5.826  35.340  79.091  1.00  0.00    -0.336 N
ATOM     11  H5  UNL     1      -5.532  35.252  78.118  1.00  0.00     0.168 HD
HETATM   12  C11 UNL     1      -5.019  34.862  80.059  1.00  0.00     0.141 A
HETATM   13  N6  UNL     1      -3.810  34.244  79.989  1.00  0.00    -0.316 N
ENDROOT
BRANCH   6  14
HETATM   14  N2  UNL     1      -6.976  35.690  82.873  1.00  0.00    -0.374 N
ATOM     15  H2  UNL     1      -6.499  36.425  83.394  1.00  0.00     0.161 HD
BRANCH  14  16
HETATM   16  C5  UNL     1      -7.922  34.945  83.625  1.00  0.00     0.121 C
BRANCH  16  17
HETATM   17  C6  UNL     1      -9.166  34.567  82.811  1.00  0.00     0.020 C
BRANCH  17  18
HETATM   18  C7  UNL     1     -10.013  35.787  82.709  1.00  0.00     0.003 C
BRANCH  18  19
HETATM   19  C8  UNL     1     -10.195  36.273  81.292  1.00  0.00     0.027 C
BRANCH  19  20
HETATM   20  C9  UNL     1     -10.892  37.585  81.205  1.00  0.00     0.229 C
BRANCH  20  21
HETATM   21  N3  UNL     1     -11.292  37.842  79.828  1.00  0.00    -0.079 N
ATOM     22  H33 UNL     1     -11.687  38.775  79.711  1.00  0.00     0.274 HD
ATOM     23  H32 UNL     1     -10.488  37.943  79.207  1.00  0.00     0.274 HD
ATOM     24  H31 UNL     1     -11.931  37.113  79.511  1.00  0.00     0.274 HD
ENDBRANCH  20  21
ENDBRANCH  19  20
ENDBRANCH  18  19
ENDBRANCH  17  18
ENDBRANCH  16  17
ENDBRANCH  14  16
ENDBRANCH   6  14
BRANCH  13  25
HETATM   25  C12 UNL     1      -3.107  33.959  78.785  1.00  0.00     0.093 C
HETATM   26  C13 UNL     1      -3.446  32.634  78.160  1.00  0.00     0.026 C
HETATM   27  C14 UNL     1      -2.428  32.362  77.082  1.00  0.00     0.002 C
HETATM   28  C15 UNL     1      -1.475  33.482  76.851  1.00  0.00     0.000 C
HETATM   29  C16 UNL     1      -2.109  34.833  76.751  1.00  0.00     0.002 C
HETATM   30  C17 UNL     1      -3.268  35.012  77.710  1.00  0.00     0.026 C
ENDBRANCH  13  25
TORSDOF 8
ENDMDL