MODEL 4
REMARK VINA RESULT: -7.591861892      5.630      7.554
REMARK  6 active torsions:
REMARK  status: ('A' for Active; 'I' for Inactive)
REMARK    1  A    between atoms: C1_2  and  C2_3
REMARK       I    between atoms: C1_2  and  N4_19
REMARK    2  A    between atoms: C2_3  and  S1_4
REMARK    3  A    between atoms: S1_4  and  C3_5
REMARK    4  A    between atoms: C4_8  and  C5_9
REMARK    5  A    between atoms: N4_19  and  C11_21
REMARK    6  A    between atoms: C11_21  and  C12_22
ROOT
HETATM    1  C3  UNL     1      -8.548  34.244  77.740  1.00  0.00     0.160 A
HETATM    2  N1  UNL     1      -9.077  34.602  78.918  1.00  0.00    -0.324 N
ATOM      3  H1  UNL     1     -10.058  34.502  79.181  1.00  0.00     0.169 HD
HETATM    4  C4  UNL     1      -8.096  35.122  79.708  1.00  0.00     0.102 A
HETATM    5  N2  UNL     1      -6.983  35.055  78.957  1.00  0.00    -0.287 N
ATOM      6  H2  UNL     1      -6.060  35.369  79.259  1.00  0.00     0.188 HD
HETATM    7  N3  UNL     1      -7.243  34.535  77.790  1.00  0.00    -0.278 N
ATOM      8  H3  UNL     1      -6.566  34.377  77.043  1.00  0.00     0.189 HD
ENDROOT
BRANCH   1   9
HETATM    9  S1  UNL     1      -9.418  33.520  76.387  1.00  0.00    -0.083 SA
BRANCH   9  10
HETATM   10  C2  UNL     1     -10.320  32.040  76.866  1.00  0.00     0.185 C
BRANCH  10  11
HETATM   11  C1  UNL     1      -9.658  30.799  76.355  1.00  0.00     0.227 C
HETATM   12  O1  UNL     1      -8.915  30.159  77.144  1.00  0.00    -0.273 OA
HETATM   13  N4  UNL     1      -9.851  30.348  75.034  1.00  0.00    -0.358 N
ATOM     14  H4  UNL     1     -10.458  30.883  74.412  1.00  0.00     0.162 HD
BRANCH  13  15
HETATM   15  C11 UNL     1      -9.218  29.157  74.538  1.00  0.00     0.154 C
BRANCH  15  16
HETATM   16  C12 UNL     1      -8.570  29.466  73.180  1.00  0.00     0.139 C
HETATM   17  C13 UNL     1      -7.982  28.172  72.689  1.00  0.00     0.035 C
HETATM   18  C14 UNL     1      -9.026  27.746  71.648  1.00  0.00     0.029 C
HETATM   19  C15 UNL     1      -9.520  29.100  71.182  1.00  0.00     0.168 C
HETATM   20  O2  UNL     1      -9.575  29.844  72.331  1.00  0.00    -0.384 OA
ENDBRANCH  15  16
ENDBRANCH  13  15
ENDBRANCH  10  11
ENDBRANCH   9  10
ENDBRANCH   1   9
BRANCH   4  21
HETATM   21  C5  UNL     1      -8.252  35.645  81.100  1.00  0.00     0.055 C
HETATM   22  C6  UNL     1      -9.263  34.744  81.778  1.00  0.00     0.012 C
HETATM   23  C7  UNL     1      -9.366  34.992  83.247  1.00  0.00     0.001 C
HETATM   24  C8  UNL     1      -8.022  35.215  83.901  1.00  0.00     0.000 C
HETATM   25  C9  UNL     1      -6.888  34.760  83.016  1.00  0.00     0.001 C
HETATM   26  C10 UNL     1      -6.916  35.614  81.765  1.00  0.00     0.012 C
ENDBRANCH   4  21
TORSDOF 6
ENDMDL