MODEL 1
REMARK VINA RESULT: -6.870963852      0.000      0.000
REMARK  6 active torsions:
REMARK  status: ('A' for Active; 'I' for Inactive)
REMARK       I    between atoms: C1_2  and  N1_3
REMARK    1  A    between atoms: C1_2  and  C6_9
REMARK    2  A    between atoms: N1_3  and  C2_5
REMARK    3  A    between atoms: C7_12  and  S1_13
REMARK    4  A    between atoms: S1_13  and  C8_14
REMARK    5  A    between atoms: C8_14  and  C9_15
REMARK    6  A    between atoms: C9_15  and  C10_16
ROOT
HETATM    1  C6  UNL     1      -8.503  34.580  78.436  1.00  0.00     0.191 A
HETATM    2  N2  UNL     1      -7.202  34.900  78.346  1.00  0.00    -0.316 N
ATOM      3  H2  UNL     1      -6.569  34.604  77.603  1.00  0.00     0.169 HD
HETATM    4  C7  UNL     1      -6.873  35.666  79.387  1.00  0.00     0.160 A
HETATM    5  N3  UNL     1      -7.994  35.816  80.124  1.00  0.00    -0.278 N
ATOM      6  H3  UNL     1      -8.065  36.353  80.988  1.00  0.00     0.189 HD
HETATM    7  N4  UNL     1      -8.972  35.168  79.558  1.00  0.00    -0.279 N
ATOM      8  H4  UNL     1      -9.929  35.112  79.904  1.00  0.00     0.189 HD
ENDROOT
BRANCH   1   9
HETATM    9  C1  UNL     1      -9.273  33.763  77.512  1.00  0.00     0.287 C
HETATM   10  O1  UNL     1      -9.514  34.182  76.353  1.00  0.00    -0.264 OA
HETATM   11  N1  UNL     1      -9.769  32.490  77.874  1.00  0.00    -0.350 N
ATOM     12  H1  UNL     1      -9.579  32.138  78.813  1.00  0.00     0.163 HD
BRANCH  11  13
HETATM   13  C2  UNL     1     -10.539  31.660  76.960  1.00  0.00     0.084 C
HETATM   14  C3  UNL     1      -9.662  30.824  76.051  1.00  0.00     0.025 C
HETATM   15  C4  UNL     1      -9.603  29.789  77.161  1.00  0.00     0.004 C
HETATM   16  C5  UNL     1     -10.927  30.357  77.665  1.00  0.00     0.025 C
ENDBRANCH  11  13
ENDBRANCH   1   9
BRANCH   4  17
HETATM   17  S1  UNL     1      -5.300  36.383  79.791  1.00  0.00    -0.092 SA
BRANCH  17  18
HETATM   18  C8  UNL     1      -4.468  35.430  81.070  1.00  0.00     0.083 C
BRANCH  18  19
HETATM   19  C9  UNL     1      -3.977  34.137  80.469  1.00  0.00     0.016 C
BRANCH  19  20
HETATM   20  C10 UNL     1      -3.235  34.386  79.157  1.00  0.00    -0.004 C
HETATM   21  C11 UNL     1      -1.798  34.087  79.403  1.00  0.00     0.015 C
HETATM   22  C12 UNL     1      -1.085  34.079  78.063  1.00  0.00     0.074 C
HETATM   23  S2  UNL     1      -2.339  33.210  77.040  1.00  0.00    -0.169 SA
HETATM   24  C13 UNL     1      -3.781  33.414  78.159  1.00  0.00     0.078 C
ENDBRANCH  19  20
ENDBRANCH  18  19
ENDBRANCH  17  18
ENDBRANCH   4  17
TORSDOF 6
ENDMDL