MODEL 1
REMARK VINA RESULT: -5.726988500      0.000      0.000
REMARK  7 active torsions:
REMARK  status: ('A' for Active; 'I' for Inactive)
REMARK    1  A    between atoms: C2_2  and  C4_4
REMARK    2  A    between atoms: C4_4  and  N1_5
REMARK    3  A    between atoms: N1_5  and  C5_6
REMARK    4  A    between atoms: N1_5  and  C14_21
REMARK    5  A    between atoms: C7_10  and  C8_11
REMARK    6  A    between atoms: C8_11  and  N3_12
REMARK    7  A    between atoms: N3_12  and  C9_14
ROOT
HETATM    1  C5  UNL     1     -10.384  31.617  75.345  1.00  0.00     0.680 A
HETATM    2  N2  UNL     1      -9.881  32.741  74.849  1.00  0.00    -0.201 N
ATOM      3  H2  UNL     1      -9.944  32.900  73.844  1.00  0.00     0.183 HD
HETATM    4  C6  UNL     1      -9.303  33.663  75.596  1.00  0.00     0.116 A
HETATM    5  C7  UNL     1      -9.210  33.460  76.949  1.00  0.00    -0.009 A
HETATM    6  C13 UNL     1      -9.731  32.298  77.477  1.00  0.00     0.116 A
HETATM    7  N4  UNL     1     -10.309  31.392  76.668  1.00  0.00    -0.201 N
ATOM      8  H4  UNL     1     -10.692  30.532  77.060  1.00  0.00     0.183 HD
ENDROOT
BRANCH   1   9
HETATM    9  N1  UNL     1     -11.019  30.689  74.468  1.00  0.00    -0.212 N
BRANCH   9  10
HETATM   10  C4  UNL     1     -10.219  29.995  73.488  1.00  0.00     0.145 C
BRANCH  10  11
HETATM   11  C2  UNL     1      -9.069  29.249  74.075  1.00  0.00    -0.004 C
HETATM   12  C1  UNL     1      -8.195  28.765  72.938  1.00  0.00     0.011 C
HETATM   13  C3  UNL     1      -9.392  28.119  74.979  1.00  0.00     0.011 C
ENDBRANCH  10  11
ENDBRANCH   9  10
BRANCH   9  14
HETATM   14  C14 UNL     1     -12.410  30.426  74.616  1.00  0.00     0.105 C
HETATM   15  C15 UNL     1     -13.160  31.405  75.481  1.00  0.00     0.053 C
HETATM   16  C16 UNL     1     -14.642  31.215  75.110  1.00  0.00     0.234 C
HETATM   17  N5  UNL     1     -14.945  31.848  73.862  1.00  0.00    -0.075 N
HETATM   18  C17 UNL     1     -13.825  31.655  72.954  1.00  0.00     0.234 C
ATOM     19  H52 UNL     1     -15.828  31.525  73.465  1.00  0.00     0.277 HD
ATOM     20  H51 UNL     1     -15.190  32.831  73.974  1.00  0.00     0.277 HD
HETATM   21  C18 UNL     1     -13.096  30.367  73.274  1.00  0.00     0.053 C
ENDBRANCH   9  14
ENDBRANCH   1   9
BRANCH   5  22
HETATM   22  C8  UNL     1      -8.529  34.463  77.811  1.00  0.00     0.156 C
BRANCH  22  23
HETATM   23  N3  UNL     1      -9.035  34.273  79.130  1.00  0.00    -0.410 N
ATOM     24  H3  UNL     1      -9.613  33.464  79.358  1.00  0.00     0.154 HD
BRANCH  23  25
HETATM   25  C9  UNL     1      -8.712  35.236  80.118  1.00  0.00     0.015 C
HETATM   26  C10 UNL     1      -9.315  36.564  79.768  1.00  0.00     0.037 C
HETATM   27  C11 UNL     1      -9.230  34.797  81.484  1.00  0.00     0.037 C
HETATM   28  C12 UNL     1      -7.222  35.467  80.273  1.00  0.00     0.037 C
ENDBRANCH  23  25
ENDBRANCH  22  23
ENDBRANCH   5  22
TORSDOF 7
ENDMDL