MODEL 2
REMARK VINA RESULT: -7.188134256      2.173      2.980
REMARK  8 active torsions:
REMARK  status: ('A' for Active; 'I' for Inactive)
REMARK    1  A    between atoms: C2_2  and  C3_3
REMARK    2  A    between atoms: C2_2  and  C12_22
REMARK    3  A    between atoms: C3_3  and  C4_4
REMARK    4  A    between atoms: C4_4  and  N1_5
REMARK    5  A    between atoms: N1_5  and  O1_6
REMARK    6  A    between atoms: N1_5  and  C5_8
REMARK    7  A    between atoms: N2_11  and  C8_12
REMARK    8  A    between atoms: C12_22  and  C13_23
ROOT
HETATM    1  C5  UNL     1      -6.666  36.038  80.846  1.00  0.00     0.116 C
HETATM    2  C6  UNL     1      -8.075  35.591  81.002  1.00  0.00     0.047 C
HETATM    3  C7  UNL     1      -8.875  35.885  79.710  1.00  0.00     0.126 C
HETATM    4  N2  UNL     1      -8.329  34.988  78.734  1.00  0.00    -0.365 N
HETATM    5  C10 UNL     1      -6.894  35.049  78.538  1.00  0.00     0.126 C
HETATM    6  C11 UNL     1      -6.254  36.092  79.402  1.00  0.00     0.047 C
ENDROOT
BRANCH   1   7
HETATM    7  N1  UNL     1      -5.754  35.246  81.590  1.00  0.00    -0.271 N
BRANCH   7   8
HETATM    8  C4  UNL     1      -4.406  35.393  81.224  1.00  0.00     0.090 C
BRANCH   8   9
HETATM    9  C3  UNL     1      -3.419  34.385  81.632  1.00  0.00     0.051 C
BRANCH   9  10
HETATM   10  C2  UNL     1      -2.845  33.454  80.647  1.00  0.00    -0.013 C
HETATM   11  C1  UNL     1      -2.656  32.038  81.133  1.00  0.00     0.010 C
BRANCH  10  12
HETATM   12  C12 UNL     1      -3.394  33.458  79.262  1.00  0.00     0.013 C
BRANCH  12  13
HETATM   13  C13 UNL     1      -2.518  33.711  78.120  1.00  0.00    -0.051 C
HETATM   14  C14 UNL     1      -2.610  32.677  77.019  1.00  0.00     0.014 C
HETATM   15  C15 UNL     1      -1.091  34.069  78.360  1.00  0.00     0.014 C
HETATM   16  C16 UNL     1      -3.077  34.999  77.379  1.00  0.00     0.014 C
ENDBRANCH  12  13
ENDBRANCH  10  12
ENDBRANCH   9  10
ENDBRANCH   8   9
ENDBRANCH   7   8
BRANCH   7  17
HETATM   17  O1  UNL     1      -6.132  34.628  82.659  1.00  0.00    -0.288 OA
ATOM     18  H1  UNL     1      -6.379  33.710  82.669  1.00  0.00     0.244 HD
ENDBRANCH   7  17
ENDBRANCH   1   7
BRANCH   4  19
HETATM   19  C8  UNL     1      -9.061  34.056  77.963  1.00  0.00     0.136 A
HETATM   20  C9  UNL     1      -9.252  34.042  76.604  1.00  0.00     0.158 A
HETATM   21  N3  UNL     1     -10.000  32.964  76.335  1.00  0.00    -0.294 N
HETATM   22  N4  UNL     1     -10.257  32.345  77.469  1.00  0.00    -0.241 N
ATOM     23  H3  UNL     1     -10.315  32.672  75.411  1.00  0.00     0.187 HD
HETATM   24  N5  UNL     1      -9.698  32.990  78.448  1.00  0.00    -0.270 N
ATOM     25  H4  UNL     1     -10.810  31.492  77.563  1.00  0.00     0.208 HD
ATOM     26  H5  UNL     1      -9.739  32.723  79.432  1.00  0.00     0.190 HD
ENDBRANCH   4  19
TORSDOF 8
ENDMDL