MODEL 3
REMARK VINA RESULT: -7.174664742      0.698      1.424
REMARK  6 active torsions:
REMARK  status: ('A' for Active; 'I' for Inactive)
REMARK    1  A    between atoms: N1_8  and  C8_9
REMARK    2  A    between atoms: C8_9  and  C9_10
REMARK    3  A    between atoms: C9_10  and  C10_11
REMARK    4  A    between atoms: C10_11  and  C11_12
REMARK    5  A    between atoms: C11_12  and  S1_13
REMARK    6  A    between atoms: S1_13  and  C12_14
ROOT
HETATM    1  C1  UNL     1     -13.313  32.041  76.285  1.00  0.00     0.015 C
HETATM    2  C2  UNL     1     -12.152  31.792  76.043  1.00  0.00    -0.076 C
HETATM    3  C3  UNL     1     -10.742  31.506  75.728  1.00  0.00     0.217 C
HETATM    4  C4  UNL     1     -10.266  30.374  76.547  1.00  0.00     0.064 C
HETATM    5  C5  UNL     1     -10.622  31.126  74.252  1.00  0.00     0.056 C
HETATM    6  C6  UNL     1      -9.270  31.703  73.963  1.00  0.00     0.034 C
HETATM    7  C7  UNL     1      -9.372  33.064  74.696  1.00  0.00     0.275 C
HETATM    8  N1  UNL     1     -10.046  32.764  75.886  1.00  0.00     0.109 N
ENDROOT
BRANCH   8   9
HETATM    9  C8  UNL     1      -9.424  32.921  77.141  1.00  0.00     0.275 C
BRANCH   9  10
HETATM   10  C9  UNL     1      -8.879  34.243  77.523  1.00  0.00     0.031 C
BRANCH  10  11
HETATM   11  C10 UNL     1      -8.689  34.621  78.926  1.00  0.00     0.012 C
BRANCH  11  12
HETATM   12  C11 UNL     1      -7.927  35.902  79.191  1.00  0.00     0.082 C
BRANCH  12  13
HETATM   13  S1  UNL     1      -6.635  35.518  80.379  1.00  0.00    -0.094 SA
BRANCH  13  14
HETATM   14  C12 UNL     1      -5.065  35.150  79.609  1.00  0.00     0.145 A
HETATM   15  N2  UNL     1      -4.727  35.456  78.372  1.00  0.00    -0.322 N
HETATM   16  C13 UNL     1      -3.519  35.142  77.886  1.00  0.00     0.123 A
ATOM     17  H2  UNL     1      -5.397  35.941  77.776  1.00  0.00     0.169 HD
HETATM   18  N3  UNL     1      -3.154  35.445  76.666  1.00  0.00    -0.384 N
HETATM   19  C14 UNL     1      -2.588  34.482  78.671  1.00  0.00     0.103 A
ATOM     20  H32 UNL     1      -3.840  35.931  76.088  1.00  0.00     0.157 HD
ATOM     21  H31 UNL     1      -2.234  35.206  76.296  1.00  0.00     0.157 HD
HETATM   22  C15 UNL     1      -1.282  34.123  78.188  1.00  0.00     0.104 C
HETATM   23  C16 UNL     1      -2.965  34.174  79.957  1.00  0.00     0.116 A
HETATM   24  N4  UNL     1      -0.230  33.814  77.807  1.00  0.00    -0.191 NA
HETATM   25  N5  UNL     1      -4.176  34.504  80.407  1.00  0.00    -0.345 N
ATOM     26  H5  UNL     1      -4.438  34.267  81.364  1.00  0.00     0.167 HD
ENDBRANCH  13  14
ENDBRANCH  12  13
ENDBRANCH  11  12
ENDBRANCH  10  11
ENDBRANCH   9  10
ENDBRANCH   8   9
TORSDOF 6
ENDMDL