MODEL 2
REMARK VINA RESULT: -7.483136914      1.450      2.562
REMARK  6 active torsions:
REMARK  status: ('A' for Active; 'I' for Inactive)
REMARK    1  A    between atoms: N3_11  and  C7_12
REMARK    2  A    between atoms: C7_12  and  C8_13
REMARK    3  A    between atoms: C8_13  and  C9_14
REMARK    4  A    between atoms: C9_14  and  C10_15
REMARK    5  A    between atoms: C10_15  and  C11_16
REMARK    6  A    between atoms: C11_16  and  C12_17
ROOT
HETATM    1  C7  UNL     1      -4.099  35.159  81.562  1.00  0.00     0.124 C
ENDROOT
BRANCH   1   2
HETATM    2  N3  UNL     1      -5.211  35.174  80.682  1.00  0.00    -0.366 N
HETATM    3  C6  UNL     1      -6.585  35.224  81.154  1.00  0.00     0.113 A
HETATM    4  C5  UNL     1      -7.380  35.837  80.202  1.00  0.00     0.010 A
HETATM    5  N2  UNL     1      -7.188  34.805  82.283  1.00  0.00    -0.332 N
HETATM    6  C3  UNL     1      -8.741  35.999  80.430  1.00  0.00     0.016 A
HETATM    7  C17 UNL     1      -6.469  36.198  79.080  1.00  0.00     0.064 C
HETATM    8  N1  UNL     1      -9.279  35.557  81.580  1.00  0.00    -0.349 N
HETATM    9  C4  UNL     1      -9.594  36.653  79.419  1.00  0.00     0.069 C
HETATM   10  C2  UNL     1      -8.503  34.966  82.495  1.00  0.00     0.078 A
ATOM     11  H1  UNL     1     -10.277  35.672  81.755  1.00  0.00     0.167 HD
HETATM   12  C1  UNL     1      -9.086  34.470  83.771  1.00  0.00     0.089 C
HETATM   13  C16 UNL     1      -5.371  35.157  79.245  1.00  0.00     0.129 C
ATOM     14  H2  UNL     1      -6.625  34.350  83.002  1.00  0.00     0.168 HD
ENDBRANCH   1   2
BRANCH   1  15
HETATM   15  C8  UNL     1      -3.995  34.040  82.527  1.00  0.00     0.020 C
BRANCH  15  16
HETATM   16  C9  UNL     1      -2.887  33.073  82.341  1.00  0.00     0.002 C
BRANCH  16  17
HETATM   17  C10 UNL     1      -2.172  33.235  81.015  1.00  0.00     0.001 C
BRANCH  17  18
HETATM   18  C11 UNL     1      -2.783  32.420  79.929  1.00  0.00     0.008 C
BRANCH  18  19
HETATM   19  C12 UNL     1      -1.946  32.447  78.676  1.00  0.00     0.028 C
HETATM   20  C13 UNL     1      -2.703  32.213  77.407  1.00  0.00     0.130 C
HETATM   21  N4  UNL     1      -3.343  33.420  76.928  1.00  0.00    -0.356 N
HETATM   22  C14 UNL     1      -2.560  34.599  76.888  1.00  0.00     0.212 C
ATOM     23  H4  UNL     1      -4.318  33.421  76.630  1.00  0.00     0.163 HD
HETATM   24  N5  UNL     1      -2.924  35.650  76.229  1.00  0.00    -0.366 N
HETATM   25  O1  UNL     1      -1.362  34.570  77.607  1.00  0.00    -0.322 OA
ATOM     26  H52 UNL     1      -3.799  35.672  75.705  1.00  0.00     0.159 HD
ATOM     27  H51 UNL     1      -2.361  36.500  76.200  1.00  0.00     0.159 HD
HETATM   28  C15 UNL     1      -1.051  33.651  78.607  1.00  0.00     0.185 C
ENDBRANCH  18  19
ENDBRANCH  17  18
ENDBRANCH  16  17
ENDBRANCH  15  16
ENDBRANCH   1  15
TORSDOF 6
ENDMDL