MODEL 1
REMARK VINA RESULT: -7.125110875      0.000      0.000
REMARK  7 active torsions:
REMARK  status: ('A' for Active; 'I' for Inactive)
REMARK    1  A    between atoms: C2_2  and  N1_4
REMARK    2  A    between atoms: N1_4  and  C4_6
REMARK    3  A    between atoms: C4_6  and  C5_7
REMARK    4  A    between atoms: C4_6  and  C8_13
REMARK    5  A    between atoms: C8_13  and  O1_14
REMARK    6  A    between atoms: C8_13  and  C9_16
REMARK    7  A    between atoms: C9_16  and  N3_17
ROOT
HETATM    1  C4  UNL     1      -3.964  34.034  78.495  1.00  0.00     0.165 C
ENDROOT
BRANCH   1   2
HETATM    2  N1  UNL     1      -3.036  34.923  77.901  1.00  0.00    -0.406 N
ATOM      3  H1  UNL     1      -3.108  35.936  78.002  1.00  0.00     0.154 HD
BRANCH   2   4
HETATM    4  C2  UNL     1      -1.978  34.295  77.142  1.00  0.00     0.069 C
HETATM    5  C1  UNL     1      -2.302  32.896  76.678  1.00  0.00     0.031 C
HETATM    6  C3  UNL     1      -0.689  34.219  77.946  1.00  0.00     0.031 C
ENDBRANCH   2   4
ENDBRANCH   1   2
BRANCH   1   7
HETATM    7  C5  UNL     1      -3.586  33.760  79.930  1.00  0.00     0.075 A
HETATM    8  N2  UNL     1      -3.698  34.509  81.013  1.00  0.00    -0.361 N
HETATM    9  C6  UNL     1      -3.285  34.077  82.160  1.00  0.00     0.096 A
ATOM     10  H2  UNL     1      -4.115  35.438  80.943  1.00  0.00     0.165 HD
HETATM   11  C7  UNL     1      -2.734  32.818  82.205  1.00  0.00     0.068 A
HETATM   12  S1  UNL     1      -2.845  32.335  80.572  1.00  0.00    -0.085 SA
ENDBRANCH   1   7
BRANCH   1  13
HETATM   13  C8  UNL     1      -5.373  34.535  78.541  1.00  0.00     0.164 C
BRANCH  13  14
HETATM   14  O1  UNL     1      -6.062  34.218  77.378  1.00  0.00    -0.391 OA
ATOM     15  H1  UNL     1      -5.991  33.292  77.175  1.00  0.00     0.210 HD
ENDBRANCH  13  14
BRANCH  13  16
HETATM   16  C9  UNL     1      -5.573  35.967  78.855  1.00  0.00     0.156 C
BRANCH  16  17
HETATM   17  N3  UNL     1      -6.691  36.057  79.747  1.00  0.00    -0.391 N
HETATM   18  C10 UNL     1      -7.926  35.647  79.229  1.00  0.00     0.059 C
HETATM   19  C11 UNL     1      -8.786  34.794  80.102  1.00  0.00     0.054 C
HETATM   20  C12 UNL     1      -8.556  35.053  81.561  1.00  0.00    -0.035 A
HETATM   21  C13 UNL     1      -7.067  35.047  81.875  1.00  0.00     0.029 C
HETATM   22  C15 UNL     1      -9.451  35.922  82.332  1.00  0.00     0.010 A
HETATM   23  C16 UNL     1      -9.459  34.431  82.546  1.00  0.00     0.010 A
HETATM   24  C14 UNL     1      -6.486  36.240  81.102  1.00  0.00     0.122 C
ENDBRANCH  16  17
ENDBRANCH  13  16
ENDBRANCH   1  13
TORSDOF 7
ENDMDL