MODEL 4
REMARK VINA RESULT: -6.469650574      1.934      2.631
REMARK  6 active torsions:
REMARK  status: ('A' for Active; 'I' for Inactive)
REMARK    1  A    between atoms: C2_2  and  C4_4
REMARK    2  A    between atoms: C5_9  and  S1_10
REMARK    3  A    between atoms: S1_10  and  C6_11
REMARK    4  A    between atoms: C6_11  and  C7_12
REMARK       I    between atoms: C7_12  and  N3_14
REMARK    5  A    between atoms: N3_14  and  C8_16
REMARK    6  A    between atoms: N4_21  and  C13_22
ROOT
HETATM    1  C4  UNL     1      -5.919  35.382  79.908  1.00  0.00     0.104 A
HETATM    2  N1  UNL     1      -5.395  34.959  78.728  1.00  0.00    -0.286 N
ATOM      3  H1  UNL     1      -4.407  34.904  78.480  1.00  0.00     0.188 HD
HETATM    4  N2  UNL     1      -6.415  34.635  77.973  1.00  0.00    -0.278 N
ATOM      5  H2  UNL     1      -6.345  34.280  77.019  1.00  0.00     0.189 HD
HETATM    6  C5  UNL     1      -7.558  34.836  78.629  1.00  0.00     0.163 A
HETATM    7  N4  UNL     1      -7.254  35.309  79.856  1.00  0.00    -0.310 N
ENDROOT
BRANCH   6   8
HETATM    8  S1  UNL     1      -9.193  34.531  78.006  1.00  0.00    -0.083 SA
BRANCH   8   9
HETATM    9  C6  UNL     1      -9.262  33.785  76.395  1.00  0.00     0.185 C
BRANCH   9  10
HETATM   10  C7  UNL     1      -9.853  32.436  76.329  1.00  0.00     0.227 C
HETATM   11  O1  UNL     1      -9.239  31.507  75.674  1.00  0.00    -0.273 OA
HETATM   12  N3  UNL     1     -11.071  32.054  76.937  1.00  0.00    -0.356 N
ATOM     13  H3  UNL     1     -11.610  32.731  77.477  1.00  0.00     0.162 HD
BRANCH  12  14
HETATM   14  C8  UNL     1     -11.548  30.688  76.788  1.00  0.00     0.084 C
HETATM   15  C9  UNL     1     -11.330  29.865  78.034  1.00  0.00     0.025 C
HETATM   16  C10 UNL     1     -12.246  28.670  77.769  1.00  0.00     0.002 C
HETATM   17  C11 UNL     1     -13.470  29.288  77.126  1.00  0.00     0.002 C
HETATM   18  C12 UNL     1     -13.083  30.681  76.711  1.00  0.00     0.025 C
ENDBRANCH  12  14
ENDBRANCH   9  10
ENDBRANCH   8   9
ENDBRANCH   6   8
BRANCH   7  19
HETATM   19  C13 UNL     1      -8.201  35.643  80.859  1.00  0.00     0.093 A
HETATM   20  C14 UNL     1      -9.254  34.737  81.356  1.00  0.00     0.028 A
HETATM   21  C15 UNL     1      -8.000  34.899  82.206  1.00  0.00     0.028 A
ENDBRANCH   7  19
BRANCH   1  22
HETATM   22  C2  UNL     1      -5.096  35.852  81.060  1.00  0.00     0.047 C
HETATM   23  C1  UNL     1      -4.076  34.800  81.438  1.00  0.00     0.017 C
HETATM   24  C3  UNL     1      -4.319  37.079  80.563  1.00  0.00     0.017 C
ENDBRANCH   1  22
TORSDOF 6
ENDMDL