MODEL 2
REMARK VINA RESULT: -6.950730043      1.325      2.193
REMARK  8 active torsions:
REMARK  status: ('A' for Active; 'I' for Inactive)
REMARK    1  A    between atoms: C2_2  and  C3_3
REMARK    2  A    between atoms: C3_3  and  C4_4
REMARK    3  A    between atoms: C4_4  and  C5_5
REMARK    4  A    between atoms: C5_5  and  S1_7
REMARK    5  A    between atoms: S1_7  and  C7_8
REMARK    6  A    between atoms: C8_11  and  N2_12
REMARK    7  A    between atoms: N2_12  and  C9_14
REMARK    8  A    between atoms: C12_20  and  N4_21
ROOT
HETATM    1  C7  UNL     1      -5.348  35.178  78.892  1.00  0.00     0.174 A
HETATM    2  N1  UNL     1      -6.508  34.835  78.309  1.00  0.00    -0.169 N
ATOM      3  H1  UNL     1      -6.495  34.558  77.327  1.00  0.00     0.186 HD
HETATM    4  C8  UNL     1      -7.702  34.837  78.966  1.00  0.00     0.695 A
HETATM    5  N3  UNL     1      -7.733  35.199  80.260  1.00  0.00    -0.022 N
ATOM      6  H3  UNL     1      -8.612  35.210  80.776  1.00  0.00     0.203 HD
HETATM    7  C12 UNL     1      -6.581  35.547  80.862  1.00  0.00     0.694 A
HETATM    8  N5  UNL     1      -5.416  35.536  80.192  1.00  0.00    -0.169 N
ATOM      9  H5  UNL     1      -4.560  35.805  80.679  1.00  0.00     0.186 HD
ENDROOT
BRANCH   1  10
HETATM   10  S1  UNL     1      -3.797  35.165  78.002  1.00  0.00    -0.088 SA
BRANCH  10  11
HETATM   11  C5  UNL     1      -2.599  34.187  78.992  1.00  0.00     0.051 C
HETATM   12  C6  UNL     1      -1.330  33.985  78.240  1.00  0.00     0.022 C
BRANCH  11  13
HETATM   13  C4  UNL     1      -3.291  32.892  79.351  1.00  0.00     0.015 C
BRANCH  13  14
HETATM   14  C3  UNL     1      -2.591  32.155  80.463  1.00  0.00     0.001 C
BRANCH  14  15
HETATM   15  C2  UNL     1      -2.306  33.193  81.553  1.00  0.00    -0.005 C
HETATM   16  C1  UNL     1      -3.486  33.410  82.450  1.00  0.00     0.005 C
ENDBRANCH  14  15
ENDBRANCH  13  14
ENDBRANCH  11  13
ENDBRANCH  10  11
ENDBRANCH   1  10
BRANCH   4  17
HETATM   17  N2  UNL     1      -8.784  34.493  78.344  1.00  0.00    -0.212 N
ATOM     18  H2  UNL     1      -9.683  34.799  78.715  1.00  0.00     0.179 HD
BRANCH  17  19
HETATM   19  C9  UNL     1      -8.763  33.692  77.141  1.00  0.00     0.162 C
HETATM   20  C10 UNL     1      -9.730  34.111  76.059  1.00  0.00     0.047 C
HETATM   21  C11 UNL     1      -9.717  32.659  75.563  1.00  0.00     0.079 C
HETATM   22  S2  UNL     1      -9.737  32.159  77.305  1.00  0.00    -0.143 SA
ENDBRANCH  17  19
ENDBRANCH   4  17
BRANCH   7  23
HETATM   23  N4  UNL     1      -6.621  35.890  82.100  1.00  0.00    -0.230 N
HETATM   24  C13 UNL     1      -7.188  34.994  83.075  1.00  0.00     0.165 C
ATOM     25  H4  UNL     1      -6.252  36.795  82.391  1.00  0.00     0.177 HD
ENDBRANCH   7  23
TORSDOF 8
ENDMDL