MODEL 2
REMARK VINA RESULT: -6.714927538      0.948      1.311
REMARK  10 active torsions:
REMARK  status: ('A' for Active; 'I' for Inactive)
REMARK    1  A    between atoms: C3_3  and  C4_4
REMARK       I    between atoms: C4_4  and  N1_6
REMARK    2  A    between atoms: C17_19  and  C18_20
REMARK    3  A    between atoms: C18_20  and  C19_22
REMARK    4  A    between atoms: C19_22  and  O3_23
REMARK    5  A    between atoms: C19_22  and  C20_25
REMARK    6  A    between atoms: C21_26  and  C22_27
REMARK    7  A    between atoms: C22_27  and  O4_28
REMARK    8  A    between atoms: C22_27  and  C23_30
REMARK    9  A    between atoms: C23_30  and  C25_32
REMARK   10  A    between atoms: C29_36  and  O5_37
ROOT
HETATM    1  C1  UNL     1      27.869  29.938  16.060  1.00  0.00     0.015 C
HETATM    2  C2  UNL     1      28.916  30.557  16.590  1.00  0.00    -0.072 C
HETATM    3  C3  UNL     1      29.584  29.968  17.778  1.00  0.00     0.106 C
HETATM    4  C7  UNL     1      30.087  31.220  18.551  1.00  0.00     0.019 C
HETATM    5  C8  UNL     1      31.181  31.812  17.744  1.00  0.00     0.006 C
HETATM    6  C9  UNL     1      30.806  32.156  16.349  1.00  0.00    -0.006 C
HETATM    7  C10 UNL     1      31.156  33.563  16.039  1.00  0.00     0.006 C
HETATM    8  C11 UNL     1      30.219  34.309  15.165  1.00  0.00     0.015 C
HETATM    9  C12 UNL     1      30.006  33.800  13.798  1.00  0.00    -0.007 C
HETATM   10  C13 UNL     1      31.227  33.252  13.122  1.00  0.00     0.021 C
HETATM   11  C14 UNL     1      29.439  34.827  12.884  1.00  0.00    -0.033 C
HETATM   12  C15 UNL     1      29.586  36.111  12.652  1.00  0.00    -0.019 C
HETATM   13  C16 UNL     1      28.761  36.743  11.584  1.00  0.00     0.040 C
HETATM   14  C17 UNL     1      28.823  35.932  10.337  1.00  0.00     0.065 C
HETATM   15  C28 UNL     1      28.761  34.432  10.556  1.00  0.00     0.063 C
HETATM   16  C29 UNL     1      28.427  34.135  11.993  1.00  0.00     0.143 C
HETATM   17  C30 UNL     1      28.592  32.692  12.354  1.00  0.00     0.170 C
HETATM   18  O6  UNL     1      28.521  31.751  11.617  1.00  0.00    -0.294 OA
HETATM   19  C31 UNL     1      28.859  32.780  13.830  1.00  0.00     0.072 C
HETATM   20  C32 UNL     1      29.401  31.541  14.437  1.00  0.00     0.023 C
HETATM   21  C33 UNL     1      29.391  31.792  15.954  1.00  0.00     0.019 C
ENDROOT
BRANCH  14  22
HETATM   22  C18 UNL     1      27.766  36.377   9.395  1.00  0.00     0.163 C
HETATM   23  O2  UNL     1      26.610  36.197   9.737  1.00  0.00    -0.294 OA
BRANCH  22  24
HETATM   24  C19 UNL     1      28.086  37.005   8.103  1.00  0.00     0.210 C
BRANCH  24  25
HETATM   25  O3  UNL     1      26.859  37.173   7.406  1.00  0.00    -0.384 OA
ATOM     26  H3  UNL     1      26.488  37.999   7.694  1.00  0.00     0.211 HD
ENDBRANCH  24  25
BRANCH  24  27
HETATM   27  C20 UNL     1      28.665  38.370   8.200  1.00  0.00     0.011 C
HETATM   28  C21 UNL     1      29.952  38.604   7.888  1.00  0.00     0.004 C
BRANCH  28  29
HETATM   29  C22 UNL     1      30.529  39.975   7.987  1.00  0.00     0.144 C
BRANCH  29  30
HETATM   30  O4  UNL     1      31.033  40.323   6.756  1.00  0.00    -0.391 OA
ATOM     31  H4  UNL     1      31.525  39.586   6.414  1.00  0.00     0.210 HD
ENDBRANCH  29  30
BRANCH  29  32
HETATM   32  C23 UNL     1      31.574  39.975   9.078  1.00  0.00     0.017 C
HETATM   33  C24 UNL     1      32.692  40.892   8.610  1.00  0.00     0.013 C
BRANCH  32  34
HETATM   34  C25 UNL     1      32.188  38.607   9.270  1.00  0.00    -0.016 C
HETATM   35  C26 UNL     1      32.172  38.180  10.722  1.00  0.00     0.010 C
HETATM   36  C27 UNL     1      33.632  38.694   8.824  1.00  0.00     0.010 C
ENDBRANCH  32  34
ENDBRANCH  29  32
ENDBRANCH  28  29
ENDBRANCH  24  27
ENDBRANCH  22  24
ENDBRANCH  14  22
BRANCH  16  37
HETATM   37  O5  UNL     1      27.130  34.499  12.339  1.00  0.00    -0.377 OA
ATOM     38  H5  UNL     1      26.881  34.116  13.172  1.00  0.00     0.211 HD
ENDBRANCH  16  37
BRANCH   3  39
HETATM   39  C4  UNL     1      28.678  29.216  18.682  1.00  0.00     0.227 C
HETATM   40  O1  UNL     1      27.896  29.830  19.420  1.00  0.00    -0.273 OA
HETATM   41  N1  UNL     1      28.741  27.786  18.677  1.00  0.00    -0.360 N
HETATM   42  C5  UNL     1      29.647  27.061  17.820  1.00  0.00     0.152 C
HETATM   43  C6  UNL     1      27.857  27.038  19.565  1.00  0.00     0.152 C
ENDBRANCH   3  39
TORSDOF 10
ENDMDL