MODEL 3
REMARK VINA RESULT: -5.879087271      3.040      6.603
REMARK  9 active torsions:
REMARK  status: ('A' for Active; 'I' for Inactive)
REMARK    1  A    between atoms: C2_2  and  C3_3
REMARK    2  A    between atoms: C2_2  and  C4_6
REMARK    3  A    between atoms: C3_3  and  O1_4
REMARK    4  A    between atoms: C4_6  and  C5_7
REMARK    5  A    between atoms: C9_11  and  O2_12
REMARK    6  A    between atoms: N1_19  and  C15_20
REMARK    7  A    between atoms: C15_20  and  C16_21
REMARK    8  A    between atoms: N2_28  and  C23_29
REMARK    9  A    between atoms: C23_29  and  C24_30
ROOT
HETATM    1  C5  UNL     1      30.340  28.701  12.909  1.00  0.00    -0.016 C
HETATM    2  C6  UNL     1      29.525  29.031  14.056  1.00  0.00    -0.018 A
HETATM    3  C7  UNL     1      28.837  28.080  14.779  1.00  0.00     0.015 A
HETATM    4  C8  UNL     1      28.065  28.514  15.848  1.00  0.00     0.040 A
HETATM    5  C9  UNL     1      27.966  29.838  16.204  1.00  0.00     0.099 A
HETATM    6  C10 UNL     1      28.670  30.769  15.459  1.00  0.00     0.111 A
HETATM    7  C11 UNL     1      29.418  30.362  14.429  1.00  0.00     0.002 A
HETATM    8  C12 UNL     1      30.122  31.523  13.844  1.00  0.00     0.040 C
HETATM    9  C13 UNL     1      31.523  31.427  14.491  1.00  0.00     0.049 C
HETATM   10  C14 UNL     1      32.395  30.362  13.973  1.00  0.00     0.274 C
HETATM   11  N1  UNL     1      32.236  30.153  12.570  1.00  0.00     0.099 N
HETATM   12  C19 UNL     1      30.880  29.915  12.228  1.00  0.00     0.271 C
HETATM   13  C20 UNL     1      30.152  31.239  12.403  1.00  0.00     0.053 C
HETATM   14  C21 UNL     1      30.886  32.147  11.479  1.00  0.00     0.005 C
HETATM   15  C22 UNL     1      31.025  33.574  11.745  1.00  0.00     0.087 C
HETATM   16  N2  UNL     1      29.933  34.430  11.825  1.00  0.00    -0.361 N
HETATM   17  C27 UNL     1      28.739  34.072  12.426  1.00  0.00     0.028 C
HETATM   18  C28 UNL     1      27.857  33.137  11.588  1.00  0.00     0.285 C
HETATM   19  N3  UNL     1      27.765  31.920  12.367  1.00  0.00    -0.069 N
ATOM     20  H31 UNL     1      26.831  31.512  12.371  1.00  0.00     0.277 HD
ATOM     21  H32 UNL     1      27.838  32.075  13.372  1.00  0.00     0.277 HD
HETATM   22  C29 UNL     1      28.777  31.033  11.847  1.00  0.00     0.250 C
HETATM   23  C30 UNL     1      28.669  33.651  13.839  1.00  0.00     0.139 C
HETATM   24  C31 UNL     1      28.708  34.881  14.698  1.00  0.00     0.139 C
HETATM   25  O3  UNL     1      28.309  35.994  14.474  1.00  0.00    -0.297 OA
HETATM   26  C32 UNL     1      29.368  34.460  15.958  1.00  0.00     0.082 C
HETATM   27  C33 UNL     1      30.443  33.552  15.329  1.00  0.00     0.048 C
HETATM   28  C34 UNL     1      29.517  32.681  14.443  1.00  0.00     0.097 C
HETATM   29  O4  UNL     1      28.772  32.107  15.556  1.00  0.00    -0.334 OA
ENDROOT
BRANCH   1  30
HETATM   30  C4  UNL     1      29.946  27.642  11.936  1.00  0.00    -0.010 C
BRANCH  30  31
HETATM   31  C2  UNL     1      28.601  27.563  11.351  1.00  0.00     0.028 C
HETATM   32  C1  UNL     1      27.923  26.225  11.390  1.00  0.00     0.016 C
BRANCH  31  33
HETATM   33  C3  UNL     1      28.862  27.761   9.797  1.00  0.00     0.172 C
BRANCH  33  34
HETATM   34  O1  UNL     1      27.995  28.707   9.315  1.00  0.00    -0.400 OA
ATOM     35  H1  UNL     1      27.106  28.384   9.401  1.00  0.00     0.209 HD
ENDBRANCH  33  34
ENDBRANCH  31  33
ENDBRANCH  30  31
ENDBRANCH   1  30
BRANCH  11  36
HETATM   36  C15 UNL     1      33.208  29.279  11.989  1.00  0.00     0.278 C
BRANCH  36  37
HETATM   37  C16 UNL     1      33.090  29.322  10.483  1.00  0.00     0.014 A
HETATM   38  C17 UNL     1      32.972  27.962   9.796  1.00  0.00     0.007 A
HETATM   39  C18 UNL     1      34.267  28.749   9.667  1.00  0.00     0.007 A
ENDBRANCH  36  37
ENDBRANCH  11  36
BRANCH   5  40
HETATM   40  O2  UNL     1      27.181  30.200  17.276  1.00  0.00    -0.358 OA
ATOM     41  H2  UNL     1      26.294  30.507  17.127  1.00  0.00     0.217 HD
ENDBRANCH   5  40
BRANCH  16  42
HETATM   42  C23 UNL     1      29.734  35.219  10.628  1.00  0.00     0.132 C
BRANCH  42  43
HETATM   43  C24 UNL     1      30.411  36.533  10.589  1.00  0.00     0.004 A
HETATM   44  C25 UNL     1      29.486  37.663  10.112  1.00  0.00     0.007 A
HETATM   45  C26 UNL     1      30.124  37.680  11.450  1.00  0.00     0.007 A
ENDBRANCH  42  43
ENDBRANCH  16  42
TORSDOF 9
ENDMDL