MODEL 4
REMARK VINA RESULT: -6.158970612      2.416      9.539
REMARK  10 active torsions:
REMARK  status: ('A' for Active; 'I' for Inactive)
REMARK    1  A    between atoms: C2_2  and  C3_3
REMARK    2  A    between atoms: C3_3  and  N2_10
REMARK    3  A    between atoms: N1_4  and  C4_6
REMARK    4  A    between atoms: C4_6  and  C6_8
REMARK    5  A    between atoms: N2_10  and  C8_12
REMARK    6  A    between atoms: C13_19  and  O3_20
REMARK    7  A    between atoms: C20_29  and  C21_30
REMARK    8  A    between atoms: C21_30  and  C23_32
REMARK    9  A    between atoms: C23_32  and  C24_33
REMARK       I    between atoms: C24_33  and  N3_35
REMARK   10  A    between atoms: C30_41  and  O6_42
ROOT
HETATM    1  C8  UNL     1      28.979  29.882  14.670  1.00  0.00     0.127 C
HETATM    2  C9  UNL     1      29.679  31.001  15.393  1.00  0.00     0.032 C
HETATM    3  C10 UNL     1      29.407  32.370  14.853  1.00  0.00     0.044 C
HETATM    4  C11 UNL     1      30.175  32.730  13.601  1.00  0.00     0.100 C
HETATM    5  O1  UNL     1      31.188  31.691  13.554  1.00  0.00    -0.305 OA
HETATM    6  C12 UNL     1      30.876  30.366  13.290  1.00  0.00     0.296 C
HETATM    7  O2  UNL     1      31.891  29.646  13.026  1.00  0.00    -0.262 OA
HETATM    8  C13 UNL     1      29.531  29.683  13.274  1.00  0.00     0.165 C
HETATM    9  C14 UNL     1      28.677  30.239  12.207  1.00  0.00     0.051 C
HETATM   10  C15 UNL     1      28.244  31.672  12.346  1.00  0.00     0.011 C
HETATM   11  C16 UNL     1      29.409  32.644  12.331  1.00  0.00     0.029 C
HETATM   12  C17 UNL     1      29.019  33.903  11.669  1.00  0.00     0.008 C
HETATM   13  C18 UNL     1      27.611  34.098  11.266  1.00  0.00     0.084 C
HETATM   14  C19 UNL     1      27.478  35.607  11.274  1.00  0.00     0.132 C
HETATM   15  O4  UNL     1      26.414  36.159  11.162  1.00  0.00    -0.298 OA
HETATM   16  C20 UNL     1      28.850  36.181  11.441  1.00  0.00     0.068 C
HETATM   17  C27 UNL     1      29.326  35.184  12.434  1.00  0.00    -0.026 C
HETATM   18  C28 UNL     1      28.382  35.372  13.632  1.00  0.00     0.016 C
HETATM   19  C29 UNL     1      30.713  35.107  12.844  1.00  0.00     0.045 C
HETATM   20  C30 UNL     1      30.911  33.992  13.836  1.00  0.00     0.154 C
ENDROOT
BRANCH   1  21
HETATM   21  N2  UNL     1      29.218  28.673  15.447  1.00  0.00    -0.372 N
ATOM     22  H2  UNL     1      30.056  28.125  15.252  1.00  0.00     0.161 HD
BRANCH  21  23
HETATM   23  C3  UNL     1      28.331  28.224  16.465  1.00  0.00     0.073 C
HETATM   24  N1  UNL     1      28.622  28.560  17.672  1.00  0.00    -0.376 N
ATOM     25  H1  UNL     1      29.466  29.119  17.795  1.00  0.00     0.161 HD
BRANCH  23  26
HETATM   26  C2  UNL     1      27.130  27.413  16.153  1.00  0.00     0.071 C
HETATM   27  C1  UNL     1      27.600  26.254  15.297  1.00  0.00     0.013 C
ENDBRANCH  23  26
BRANCH  24  28
HETATM   28  C4  UNL     1      27.897  28.238  18.856  1.00  0.00     0.078 C
HETATM   29  C5  UNL     1      28.468  27.036  19.580  1.00  0.00     0.032 C
BRANCH  28  30
HETATM   30  C6  UNL     1      27.897  29.456  19.790  1.00  0.00     0.020 C
HETATM   31  C7  UNL     1      29.156  30.253  19.532  1.00  0.00     0.007 C
ENDBRANCH  28  30
ENDBRANCH  24  28
ENDBRANCH  21  23
ENDBRANCH   1  21
BRANCH   8  32
HETATM   32  O3  UNL     1      29.750  28.350  13.042  1.00  0.00    -0.377 OA
ATOM     33  H3  UNL     1      30.229  28.235  12.230  1.00  0.00     0.211 HD
ENDBRANCH   8  32
BRANCH  20  34
HETATM   34  O6  UNL     1      32.321  33.818  13.899  1.00  0.00    -0.392 OA
ATOM     35  H6  UNL     1      32.741  34.383  14.537  1.00  0.00     0.210 HD
ENDBRANCH  20  34
BRANCH  16  36
HETATM   36  C21 UNL     1      29.472  36.380  10.156  1.00  0.00     0.002 C
HETATM   37  C22 UNL     1      30.918  36.830  10.169  1.00  0.00     0.011 C
BRANCH  36  38
HETATM   38  C23 UNL     1      28.741  37.569   9.497  1.00  0.00     0.108 C
BRANCH  38  39
HETATM   39  C24 UNL     1      28.435  37.286   8.094  1.00  0.00     0.219 C
HETATM   40  O5  UNL     1      27.629  36.384   7.791  1.00  0.00    -0.273 OA
HETATM   41  N3  UNL     1      29.046  38.027   7.049  1.00  0.00    -0.361 N
HETATM   42  C25 UNL     1      28.730  37.733   5.653  1.00  0.00     0.152 C
HETATM   43  C26 UNL     1      30.003  39.097   7.355  1.00  0.00     0.152 C
ENDBRANCH  38  39
ENDBRANCH  36  38
ENDBRANCH  16  36
TORSDOF 10
ENDMDL