MODEL 5
REMARK VINA RESULT: -5.736991792      2.413      6.589
REMARK  9 active torsions:
REMARK  status: ('A' for Active; 'I' for Inactive)
REMARK    1  A    between atoms: C2_2  and  C3_3
REMARK    2  A    between atoms: C3_3  and  C4_4
REMARK    3  A    between atoms: C4_4  and  N1_5
REMARK    4  A    between atoms: N1_5  and  C6_7
REMARK    5  A    between atoms: C9_11  and  O2_12
REMARK    6  A    between atoms: N2_21  and  C17_22
REMARK    7  A    between atoms: C17_22  and  C18_23
REMARK    8  A    between atoms: C25_34  and  C26_35
REMARK    9  A    between atoms: C33_42  and  O3_43
ROOT
HETATM    1  C6  UNL     1      29.083  34.270  11.244  1.00  0.00     0.288 C
HETATM    2  C7  UNL     1      28.321  35.569  11.188  1.00  0.00     0.182 C
HETATM    3  O1  UNL     1      27.500  35.565  10.045  1.00  0.00    -0.339 OA
HETATM    4  C8  UNL     1      27.896  36.679   9.294  1.00  0.00     0.110 A
HETATM    5  C9  UNL     1      27.245  37.355   8.260  1.00  0.00     0.099 A
HETATM    6  C10 UNL     1      27.842  38.438   7.670  1.00  0.00     0.040 A
HETATM    7  C11 UNL     1      29.090  38.884   8.081  1.00  0.00     0.011 A
HETATM    8  C12 UNL     1      29.736  38.227   9.094  1.00  0.00    -0.042 A
HETATM    9  C13 UNL     1      29.135  37.122   9.701  1.00  0.00    -0.001 A
HETATM   10  C14 UNL     1      29.613  36.284  10.795  1.00  0.00     0.057 C
HETATM   11  C15 UNL     1      30.154  37.154  11.877  1.00  0.00     0.065 C
HETATM   12  C16 UNL     1      31.526  37.637  11.811  1.00  0.00     0.065 C
HETATM   13  N2  UNL     1      32.359  37.412  10.706  1.00  0.00    -0.363 N
HETATM   14  C21 UNL     1      32.151  37.853   9.425  1.00  0.00     0.017 C
HETATM   15  C22 UNL     1      31.038  38.934   9.293  1.00  0.00     0.096 C
HETATM   16  C23 UNL     1      32.053  36.961   8.257  1.00  0.00     0.057 C
HETATM   17  C24 UNL     1      32.537  35.608   8.287  1.00  0.00     0.058 A
HETATM   18  N3  UNL     1      33.762  35.146   7.884  1.00  0.00    -0.300 N
ATOM     19  H3  UNL     1      34.512  35.745   7.536  1.00  0.00     0.187 HD
HETATM   20  N4  UNL     1      33.855  33.867   7.996  1.00  0.00    -0.303 N
ATOM     21  H4  UNL     1      34.673  33.308   7.755  1.00  0.00     0.186 HD
HETATM   22  C25 UNL     1      32.676  33.383   8.492  1.00  0.00     0.038 A
HETATM   23  C31 UNL     1      31.848  34.471   8.676  1.00  0.00    -0.003 A
HETATM   24  C32 UNL     1      30.439  34.533   9.162  1.00  0.00     0.084 C
HETATM   25  C33 UNL     1      30.256  35.009  10.567  1.00  0.00     0.110 C
ENDROOT
BRANCH   1  26
HETATM   26  N1  UNL     1      29.344  33.841  12.613  1.00  0.00     0.094 N
HETATM   27  C5  UNL     1      28.970  32.451  12.808  1.00  0.00     0.310 C
BRANCH  26  28
HETATM   28  C4  UNL     1      28.615  34.651  13.585  1.00  0.00     0.272 C
BRANCH  28  29
HETATM   29  C3  UNL     1      29.589  35.036  14.674  1.00  0.00     0.030 C
BRANCH  29  30
HETATM   30  C2  UNL     1      28.868  35.013  16.024  1.00  0.00    -0.003 C
HETATM   31  C1  UNL     1      29.738  34.262  16.997  1.00  0.00     0.005 C
ENDBRANCH  29  30
ENDBRANCH  28  29
ENDBRANCH  26  28
ENDBRANCH   1  26
BRANCH  25  32
HETATM   32  O3  UNL     1      31.375  34.704  11.362  1.00  0.00    -0.386 OA
ATOM     33  H3  UNL     1      31.674  33.860  11.045  1.00  0.00     0.210 HD
ENDBRANCH  25  32
BRANCH   5  34
HETATM   34  O2  UNL     1      25.988  36.887   7.864  1.00  0.00    -0.358 OA
ATOM     35  H2  UNL     1      25.750  36.977   6.949  1.00  0.00     0.217 HD
ENDBRANCH   5  34
BRANCH  22  36
HETATM   36  C26 UNL     1      32.433  31.927   8.767  1.00  0.00     0.037 C
HETATM   37  C27 UNL     1      32.475  31.773  10.293  1.00  0.00     0.011 C
HETATM   38  C28 UNL     1      31.462  30.737  10.660  1.00  0.00     0.001 C
HETATM   39  C29 UNL     1      30.335  31.059   9.691  1.00  0.00     0.001 C
HETATM   40  C30 UNL     1      31.011  31.547   8.442  1.00  0.00     0.011 C
ENDBRANCH  22  36
BRANCH  13  41
HETATM   41  C17 UNL     1      33.792  37.468  11.098  1.00  0.00     0.132 C
BRANCH  41  42
HETATM   42  C18 UNL     1      34.126  36.271  11.955  1.00  0.00     0.004 A
HETATM   43  C19 UNL     1      34.833  35.097  11.338  1.00  0.00     0.007 A
HETATM   44  C20 UNL     1      35.623  36.059  12.140  1.00  0.00     0.007 A
ENDBRANCH  41  42
ENDBRANCH  13  41
TORSDOF 9
ENDMDL