MODEL 2
REMARK VINA RESULT: -5.589934509      2.129     11.750
REMARK  7 active torsions:
REMARK  status: ('A' for Active; 'I' for Inactive)
REMARK    1  A    between atoms: O1_2  and  C2_3
REMARK    2  A    between atoms: C5_6  and  N1_7
REMARK       I    between atoms: N1_7  and  C6_9
REMARK       I    between atoms: C6_9  and  N2_11
REMARK    3  A    between atoms: N2_11  and  C7_13
REMARK    4  A    between atoms: C10_16  and  N3_17
REMARK    5  A    between atoms: N3_17  and  S1_19
REMARK    6  A    between atoms: S1_19  and  C11_22
REMARK    7  A    between atoms: C23_35  and  O5_36
ROOT
HETATM    1  N1  UNL     1      28.051  30.421  16.224  1.00  0.00    -0.338 N
ATOM      2  H1  UNL     1      27.035  30.478  16.157  1.00  0.00     0.164 HD
HETATM    3  C6  UNL     1      28.810  31.169  15.321  1.00  0.00     0.316 C
HETATM    4  O2  UNL     1      30.079  31.108  15.392  1.00  0.00    -0.247 OA
HETATM    5  N2  UNL     1      28.239  31.985  14.340  1.00  0.00    -0.339 N
ATOM      6  H2  UNL     1      27.221  32.031  14.289  1.00  0.00     0.164 HD
ENDROOT
BRANCH   5   7
HETATM    7  C7  UNL     1      29.003  32.772  13.390  1.00  0.00     0.086 C
HETATM    8  C8  UNL     1      29.120  34.173  13.954  1.00  0.00     0.027 C
HETATM    9  C9  UNL     1      28.260  35.148  13.230  1.00  0.00     0.028 C
HETATM   10  C10 UNL     1      28.695  35.235  11.792  1.00  0.00     0.093 C
HETATM   11  C18 UNL     1      28.615  33.868  11.170  1.00  0.00     0.028 C
HETATM   12  C19 UNL     1      28.226  32.767  12.091  1.00  0.00     0.027 C
BRANCH  10  13
HETATM   13  N3  UNL     1      29.970  35.835  11.624  1.00  0.00    -0.314 N
ATOM     14  H3  UNL     1      30.776  35.547  12.178  1.00  0.00     0.172 HD
BRANCH  13  15
HETATM   15  S1  UNL     1      30.086  37.069  10.445  1.00  0.00     0.231 S
HETATM   16  O3  UNL     1      31.431  36.857   9.759  1.00  0.00    -0.206 OA
HETATM   17  O4  UNL     1      30.114  38.388  11.204  1.00  0.00    -0.206 OA
BRANCH  15  18
HETATM   18  C11 UNL     1      28.776  37.116   9.296  1.00  0.00     0.133 C
HETATM   19  C12 UNL     1      28.988  36.360   8.017  1.00  0.00     0.026 C
HETATM   20  C13 UNL     1      28.380  37.217   6.923  1.00  0.00    -0.013 C
HETATM   21  C14 UNL     1      29.415  38.272   6.592  1.00  0.00     0.005 C
HETATM   22  C17 UNL     1      27.405  38.074   7.719  1.00  0.00     0.010 C
HETATM   23  C15 UNL     1      29.524  39.033   7.923  1.00  0.00     0.006 C
HETATM   24  C16 UNL     1      28.441  38.515   8.787  1.00  0.00     0.006 C
ENDBRANCH  15  18
ENDBRANCH  13  15
ENDBRANCH  10  13
ENDBRANCH   5   7
BRANCH   1  25
HETATM   25  C5  UNL     1      28.621  29.559  17.262  1.00  0.00     0.091 C
HETATM   26  C4  UNL     1      28.274  30.004  18.591  1.00  0.00     0.028 C
HETATM   27  C3  UNL     1      27.488  29.164  19.520  1.00  0.00     0.041 C
HETATM   28  C2  UNL     1      28.209  27.998  20.154  1.00  0.00     0.078 C
HETATM   29  C22 UNL     1      27.850  26.731  19.420  1.00  0.00     0.116 C
HETATM   30  C26 UNL     1      29.628  27.798  19.780  1.00  0.00     0.078 C
HETATM   31  S2  UNL     1      26.474  26.868  18.294  1.00  0.00    -0.158 SA
HETATM   32  C23 UNL     1      29.203  26.741  18.783  1.00  0.00     0.079 C
HETATM   33  C21 UNL     1      26.912  27.745  16.794  1.00  0.00     0.081 C
HETATM   34  C20 UNL     1      28.350  28.153  16.837  1.00  0.00     0.020 C
HETATM   35  C25 UNL     1      29.286  27.135  17.386  1.00  0.00     0.047 C
BRANCH  28  36
HETATM   36  O1  UNL     1      28.048  27.953  21.528  1.00  0.00    -0.384 OA
HETATM   37  C1  UNL     1      26.839  28.262  22.045  1.00  0.00     0.202 C
ENDBRANCH  28  36
BRANCH  32  38
HETATM   38  O5  UNL     1      29.909  25.558  19.022  1.00  0.00    -0.384 OA
HETATM   39  C24 UNL     1      30.352  24.973  17.863  1.00  0.00     0.202 C
ENDBRANCH  32  38
ENDBRANCH   1  25
TORSDOF 7
ENDMDL