MODEL 4
REMARK VINA RESULT: -5.471290358      1.960      2.855
REMARK  12 active torsions:
REMARK  status: ('A' for Active; 'I' for Inactive)
REMARK    1  A    between atoms: C2_2  and  O1_5
REMARK    2  A    between atoms: O1_5  and  C5_6
REMARK       I    between atoms: C5_6  and  N1_8
REMARK    3  A    between atoms: N1_8  and  C6_10
REMARK    4  A    between atoms: C6_10  and  C7_11
REMARK    5  A    between atoms: C6_10  and  C25_39
REMARK    6  A    between atoms: C7_11  and  O3_12
REMARK    7  A    between atoms: C7_11  and  N2_14
REMARK    8  A    between atoms: C11_18  and  C12_19
REMARK       I    between atoms: C12_19  and  N3_21
REMARK    9  A    between atoms: N3_21  and  C13_23
REMARK   10  A    between atoms: C13_23  and  C15_25
REMARK   11  A    between atoms: C13_23  and  C24_36
REMARK   12  A    between atoms: C15_25  and  C16_26
REMARK       I    between atoms: C16_26  and  N4_28
ROOT
HETATM    1  N2  UNL     1      29.738  34.198  10.892  1.00  0.00    -0.350 N
HETATM    2  C8  UNL     1      29.730  32.818  10.517  1.00  0.00     0.126 C
HETATM    3  C9  UNL     1      30.469  32.055  11.610  1.00  0.00     0.022 C
HETATM    4  C10 UNL     1      31.444  33.102  12.070  1.00  0.00     0.037 C
HETATM    5  C11 UNL     1      30.637  34.351  12.067  1.00  0.00     0.178 C
ENDROOT
BRANCH   5   6
HETATM    6  C12 UNL     1      29.837  34.406  13.333  1.00  0.00     0.241 C
HETATM    7  O4  UNL     1      28.605  34.525  13.197  1.00  0.00    -0.271 OA
HETATM    8  N3  UNL     1      30.430  34.329  14.594  1.00  0.00    -0.337 N
ATOM      9  H3  UNL     1      31.447  34.251  14.556  1.00  0.00     0.164 HD
BRANCH   8  10
HETATM   10  C13 UNL     1      29.923  34.337  15.903  1.00  0.00     0.141 C
HETATM   11  C14 UNL     1      28.779  35.355  16.051  1.00  0.00     0.055 C
BRANCH  10  12
HETATM   12  C15 UNL     1      29.659  33.135  16.675  1.00  0.00     0.089 C
BRANCH  12  13
HETATM   13  C16 UNL     1      29.209  31.890  16.132  1.00  0.00     0.242 C
HETATM   14  O5  UNL     1      28.651  31.676  15.036  1.00  0.00    -0.269 OA
HETATM   15  N4  UNL     1      29.408  30.700  16.922  1.00  0.00    -0.349 N
HETATM   16  C17 UNL     1      28.922  29.489  16.306  1.00  0.00     0.126 C
HETATM   17  C23 UNL     1      30.064  30.958  18.176  1.00  0.00     0.126 C
HETATM   18  C18 UNL     1      27.509  29.157  16.722  1.00  0.00     0.020 C
HETATM   19  C19 UNL     1      27.509  28.533  18.104  1.00  0.00     0.002 C
HETATM   20  C20 UNL     1      27.487  29.667  19.103  1.00  0.00     0.000 C
HETATM   21  C21 UNL     1      28.741  29.741  19.916  1.00  0.00     0.002 C
HETATM   22  C22 UNL     1      29.999  29.752  19.099  1.00  0.00     0.020 C
ENDBRANCH  12  13
ENDBRANCH  10  12
BRANCH  10  23
HETATM   23  C24 UNL     1      31.009  35.065  16.793  1.00  0.00     0.206 C
HETATM   24  O6  UNL     1      30.690  35.568  17.870  1.00  0.00    -0.646 OA
HETATM   25  O7  UNL     1      32.270  35.094  16.302  1.00  0.00    -0.646 OA
ENDBRANCH  10  23
ENDBRANCH   8  10
ENDBRANCH   5   6
BRANCH   1  26
HETATM   26  C7  UNL     1      29.072  35.287  10.313  1.00  0.00     0.138 C
BRANCH  26  27
HETATM   27  C6  UNL     1      29.383  36.527   9.666  1.00  0.00     0.168 C
BRANCH  27  28
HETATM   28  N1  UNL     1      29.651  36.173   8.234  1.00  0.00    -0.324 N
HETATM   29  C5  UNL     1      28.697  36.206   7.232  1.00  0.00     0.362 C
HETATM   30  O2  UNL     1      27.508  36.540   7.445  1.00  0.00    -0.238 OA
ATOM     31  H1  UNL     1      30.598  35.889   7.981  1.00  0.00     0.165 HD
BRANCH  29  32
HETATM   32  O1  UNL     1      29.034  35.867   5.952  1.00  0.00    -0.294 OA
BRANCH  32  33
HETATM   33  C2  UNL     1      29.777  36.586   5.039  1.00  0.00     0.061 C
HETATM   34  C1  UNL     1      29.824  38.074   5.269  1.00  0.00     0.046 C
HETATM   35  C3  UNL     1      31.208  36.077   5.062  1.00  0.00     0.046 C
HETATM   36  C4  UNL     1      29.247  36.333   3.642  1.00  0.00     0.046 C
ENDBRANCH  32  33
ENDBRANCH  29  32
ENDBRANCH  27  28
BRANCH  27  37
HETATM   37  C25 UNL     1      30.423  37.452  10.129  1.00  0.00    -0.023 C
HETATM   38  C26 UNL     1      31.839  37.110   9.824  1.00  0.00     0.017 C
HETATM   39  C27 UNL     1      30.156  38.781   9.299  1.00  0.00     0.017 C
HETATM   40  C28 UNL     1      30.256  37.911  11.533  1.00  0.00     0.017 C
ENDBRANCH  27  37
ENDBRANCH  26  27
BRANCH  26  41
HETATM   41  O3  UNL     1      27.744  35.102  10.394  1.00  0.00    -0.348 OA
ATOM     42  H3  UNL     1      27.437  35.201  11.288  1.00  0.00     0.219 HD
ENDBRANCH  26  41
ENDBRANCH   1  26
TORSDOF 12
ENDMDL