MODEL 2
REMARK VINA RESULT: -6.001870042      2.928      5.154
REMARK  7 active torsions:
REMARK  status: ('A' for Active; 'I' for Inactive)
REMARK       I    between atoms: N1_2  and  C2_4
REMARK    1  A    between atoms: C2_4  and  C3_6
REMARK    2  A    between atoms: C3_6  and  C4_7
REMARK    3  A    between atoms: C18_24  and  O2_25
REMARK    4  A    between atoms: O2_25  and  S1_26
REMARK    5  A    between atoms: S1_26  and  C19_29
REMARK    6  A    between atoms: C19_29  and  C20_30
REMARK    7  A    between atoms: C20_30  and  O5_33
ROOT
HETATM    1  C4  UNL     1      28.386  34.264  12.183  1.00  0.00     0.200 C
HETATM    2  N2  UNL     1      28.153  35.248  13.296  1.00  0.00    -0.070 N
ATOM      3  H21 UNL     1      27.785  34.868  14.168  1.00  0.00     0.277 HD
ATOM      4  H22 UNL     1      27.380  35.901  13.171  1.00  0.00     0.277 HD
HETATM    5  C5  UNL     1      29.463  35.817  13.355  1.00  0.00     0.238 C
HETATM    6  C6  UNL     1      30.467  34.661  13.087  1.00  0.00     0.023 C
HETATM    7  C7  UNL     1      31.459  34.808  14.238  1.00  0.00    -0.004 C
HETATM    8  C8  UNL     1      32.885  34.465  13.870  1.00  0.00     0.006 C
HETATM    9  C9  UNL     1      33.370  33.140  14.307  1.00  0.00     0.006 C
HETATM   10  C10 UNL     1      32.298  32.163  14.833  1.00  0.00    -0.006 C
HETATM   11  C11 UNL     1      31.927  31.329  13.691  1.00  0.00     0.006 C
HETATM   12  C12 UNL     1      31.393  31.927  12.465  1.00  0.00     0.014 C
HETATM   13  C13 UNL     1      29.900  32.219  12.452  1.00  0.00    -0.015 C
HETATM   14  C14 UNL     1      29.616  32.278  10.912  1.00  0.00     0.020 C
HETATM   15  C15 UNL     1      29.256  31.002  13.013  1.00  0.00    -0.076 C
HETATM   16  C16 UNL     1      29.198  29.926  11.891  1.00  0.00     0.044 C
HETATM   17  C17 UNL     1      28.756  30.613  14.120  1.00  0.00     0.009 C
HETATM   18  C18 UNL     1      28.497  31.081  15.497  1.00  0.00     0.165 C
HETATM   19  C23 UNL     1      29.664  31.109  16.456  1.00  0.00     0.043 C
HETATM   20  C24 UNL     1      30.318  32.449  16.455  1.00  0.00    -0.003 C
HETATM   21  C25 UNL     1      29.893  33.529  17.141  1.00  0.00     0.006 C
HETATM   22  C26 UNL     1      30.854  34.699  16.816  1.00  0.00     0.006 C
HETATM   23  C27 UNL     1      31.006  34.233  15.428  1.00  0.00    -0.001 C
HETATM   24  C28 UNL     1      31.529  32.835  15.795  1.00  0.00    -0.033 C
HETATM   25  C29 UNL     1      32.537  33.039  16.976  1.00  0.00     0.016 C
HETATM   26  C30 UNL     1      29.540  33.557  12.928  1.00  0.00     0.035 C
ENDROOT
BRANCH  18  27
HETATM   27  O2  UNL     1      27.461  30.343  16.131  1.00  0.00    -0.266 OA
BRANCH  27  28
HETATM   28  S1  UNL     1      27.702  28.802  16.491  1.00  0.00     0.268 S
HETATM   29  O3  UNL     1      28.490  28.168  15.342  1.00  0.00    -0.199 OA
HETATM   30  O4  UNL     1      26.496  27.936  16.648  1.00  0.00    -0.199 OA
BRANCH  28  31
HETATM   31  C19 UNL     1      28.710  28.566  17.931  1.00  0.00     0.207 C
BRANCH  31  32
HETATM   32  C20 UNL     1      28.050  29.070  19.200  1.00  0.00     0.066 C
HETATM   33  C21 UNL     1      27.493  27.982  20.053  1.00  0.00     0.046 C
HETATM   34  C22 UNL     1      28.964  30.006  19.939  1.00  0.00     0.046 C
BRANCH  32  35
HETATM   35  O5  UNL     1      26.970  29.864  18.749  1.00  0.00    -0.390 OA
ATOM     36  H5  UNL     1      26.211  29.296  18.812  1.00  0.00     0.210 HD
ENDBRANCH  32  35
ENDBRANCH  31  32
ENDBRANCH  28  31
ENDBRANCH  27  28
ENDBRANCH  18  27
BRANCH   1  37
HETATM   37  C3  UNL     1      28.677  35.139  11.049  1.00  0.00     0.136 C
BRANCH  37  38
HETATM   38  C2  UNL     1      27.421  35.854  10.564  1.00  0.00     0.219 C
HETATM   39  N1  UNL     1      27.420  36.586   9.357  1.00  0.00    -0.365 N
HETATM   40  C1  UNL     1      26.211  37.256   8.923  1.00  0.00     0.149 C
ATOM     41  H1  UNL     1      28.267  36.644   8.792  1.00  0.00     0.161 HD
HETATM   42  O1  UNL     1      26.360  35.812  11.220  1.00  0.00    -0.274 OA
ENDBRANCH  37  38
ENDBRANCH   1  37
TORSDOF 7
ENDMDL