MODEL 2
REMARK VINA RESULT: -5.818754297      1.842      5.101
REMARK  11 active torsions:
REMARK  status: ('A' for Active; 'I' for Inactive)
REMARK    1  A    between atoms: C2_2  and  O1_5
REMARK    2  A    between atoms: O1_5  and  C5_6
REMARK       I    between atoms: C5_6  and  N1_8
REMARK    3  A    between atoms: N1_8  and  C6_10
REMARK    4  A    between atoms: C6_10  and  C7_11
REMARK    5  A    between atoms: C6_10  and  C31_39
REMARK    6  A    between atoms: C7_11  and  C8_12
REMARK    7  A    between atoms: C8_12  and  O4_14
REMARK    8  A    between atoms: O4_14  and  C9_15
REMARK    9  A    between atoms: C9_15  and  C10_16
REMARK   10  A    between atoms: C12_18  and  C13_19
REMARK   11  A    between atoms: C28_34  and  C30_36
ROOT
HETATM    1  C10 UNL     1      30.217  33.489  16.775  1.00  0.00    -0.042 C
HETATM    2  C11 UNL     1      29.718  32.232  16.752  1.00  0.00    -0.015 C
HETATM    3  C12 UNL     1      30.578  31.108  17.286  1.00  0.00     0.013 C
HETATM    4  C26 UNL     1      31.096  31.698  18.578  1.00  0.00     0.010 C
HETATM    5  C27 UNL     1      32.102  32.742  18.266  1.00  0.00     0.024 C
HETATM    6  C28 UNL     1      31.551  33.792  17.333  1.00  0.00     0.060 C
HETATM    7  C29 UNL     1      31.414  35.058  18.214  1.00  0.00     0.030 C
ENDROOT
BRANCH   1   8
HETATM    8  C9  UNL     1      29.378  34.613  16.256  1.00  0.00     0.214 C
BRANCH   8   9
HETATM    9  O4  UNL     1      28.692  34.375  15.074  1.00  0.00    -0.317 OA
BRANCH   9  10
HETATM   10  C8  UNL     1      29.169  34.869  13.876  1.00  0.00     0.261 C
HETATM   11  O3  UNL     1      30.398  34.725  13.628  1.00  0.00    -0.265 OA
BRANCH  10  12
HETATM   12  C7  UNL     1      28.241  35.528  12.962  1.00  0.00     0.145 C
BRANCH  12  13
HETATM   13  C6  UNL     1      28.468  35.116  11.549  1.00  0.00     0.185 C
BRANCH  13  14
HETATM   14  N1  UNL     1      28.218  33.674  11.424  1.00  0.00    -0.324 N
HETATM   15  C5  UNL     1      29.220  32.843  10.891  1.00  0.00     0.362 C
HETATM   16  O2  UNL     1      30.318  33.286  10.519  1.00  0.00    -0.238 OA
ATOM     17  H1  UNL     1      27.326  33.279  11.722  1.00  0.00     0.165 HD
BRANCH  15  18
HETATM   18  O1  UNL     1      29.000  31.485  10.768  1.00  0.00    -0.294 OA
BRANCH  18  19
HETATM   19  C2  UNL     1      29.293  30.529  11.751  1.00  0.00     0.061 C
HETATM   20  C1  UNL     1      30.742  30.080  11.692  1.00  0.00     0.046 C
HETATM   21  C3  UNL     1      28.448  29.301  11.488  1.00  0.00     0.046 C
HETATM   22  C4  UNL     1      29.001  30.987  13.160  1.00  0.00     0.046 C
ENDBRANCH  18  19
ENDBRANCH  15  18
ENDBRANCH  13  14
BRANCH  13  23
HETATM   23  C31 UNL     1      27.534  35.823  10.646  1.00  0.00     0.254 C
HETATM   24  N3  UNL     1      27.889  36.144   9.314  1.00  0.00    -0.060 NA
HETATM   25  O6  UNL     1      26.387  36.137  11.095  1.00  0.00    -0.275 OA
ENDBRANCH  13  23
ENDBRANCH  12  13
ENDBRANCH  10  12
ENDBRANCH   9  10
ENDBRANCH   8   9
ENDBRANCH   1   8
BRANCH   6  26
HETATM   26  C30 UNL     1      32.574  34.132  16.290  1.00  0.00     0.243 C
HETATM   27  N2  UNL     1      33.121  35.442  16.226  1.00  0.00    -0.061 NA
HETATM   28  O5  UNL     1      32.971  33.281  15.455  1.00  0.00    -0.276 OA
ENDBRANCH   6  26
BRANCH   3  29
HETATM   29  C13 UNL     1      29.616  29.966  17.474  1.00  0.00     0.002 C
HETATM   30  C14 UNL     1      28.252  30.564  17.085  1.00  0.00     0.006 C
HETATM   31  C15 UNL     1      27.506  29.492  16.375  1.00  0.00     0.006 C
HETATM   32  C16 UNL     1      28.545  28.600  15.784  1.00  0.00     0.003 C
HETATM   33  C17 UNL     1      28.170  27.164  15.794  1.00  0.00    -0.043 C
HETATM   34  C24 UNL     1      29.817  28.762  16.634  1.00  0.00    -0.029 C
HETATM   35  C18 UNL     1      28.237  26.518  14.411  1.00  0.00     0.015 C
HETATM   36  C19 UNL     1      26.748  26.925  16.290  1.00  0.00     0.015 C
HETATM   37  C20 UNL     1      29.107  26.427  16.679  1.00  0.00     0.018 C
HETATM   38  C21 UNL     1      29.852  27.521  17.454  1.00  0.00    -0.039 C
HETATM   39  C22 UNL     1      29.146  27.628  18.788  1.00  0.00     0.015 C
HETATM   40  C23 UNL     1      31.211  26.949  17.726  1.00  0.00     0.015 C
HETATM   41  C25 UNL     1      30.948  28.817  15.658  1.00  0.00     0.016 C
ENDBRANCH   3  29
TORSDOF 11
ENDMDL