MODEL 5
REMARK VINA RESULT: -6.445330305      2.359      4.838
REMARK  10 active torsions:
REMARK  status: ('A' for Active; 'I' for Inactive)
REMARK    1  A    between atoms: C3_3  and  C4_4
REMARK    2  A    between atoms: C4_4  and  N1_5
REMARK    3  A    between atoms: C12_13  and  O1_14
REMARK    4  A    between atoms: C16_19  and  O2_20
REMARK    5  A    between atoms: C22_28  and  C23_29
REMARK    6  A    between atoms: C23_29  and  C25_31
REMARK    7  A    between atoms: C25_31  and  N2_32
REMARK    8  A    between atoms: N2_32  and  C26_34
REMARK    9  A    between atoms: C26_34  and  C27_35
REMARK   10  A    between atoms: C27_35  and  N3_36
ROOT
HETATM    1  C1  UNL     1      29.365  34.342  16.737  1.00  0.00     0.044 C
HETATM    2  C2  UNL     1      29.527  34.427  15.265  1.00  0.00    -0.076 C
HETATM    3  C3  UNL     1      30.374  33.589  14.592  1.00  0.00    -0.034 C
HETATM    4  C11 UNL     1      30.593  33.752  13.162  1.00  0.00     0.054 C
HETATM    5  C12 UNL     1      31.682  34.843  12.925  1.00  0.00     0.132 C
HETATM    6  C13 UNL     1      31.382  35.163  11.510  1.00  0.00     0.025 C
HETATM    7  C14 UNL     1      29.886  35.425  11.569  1.00  0.00    -0.000 C
HETATM    8  C15 UNL     1      29.408  35.570  10.189  1.00  0.00     0.038 C
HETATM    9  C16 UNL     1      30.435  35.726   9.102  1.00  0.00     0.128 C
HETATM   10  C17 UNL     1      31.725  36.329   9.411  1.00  0.00    -0.003 C
HETATM   11  C18 UNL     1      32.849  35.407   8.912  1.00  0.00     0.019 C
HETATM   12  C19 UNL     1      32.009  36.353  10.942  1.00  0.00     0.011 C
HETATM   13  C20 UNL     1      31.451  37.684  11.291  1.00  0.00     0.084 C
HETATM   14  C21 UNL     1      32.180  38.512  10.252  1.00  0.00     0.132 C
HETATM   15  O3  UNL     1      32.694  39.564  10.545  1.00  0.00    -0.298 OA
HETATM   16  C22 UNL     1      32.051  37.715   9.011  1.00  0.00     0.071 C
HETATM   17  C32 UNL     1      29.408  34.245  12.360  1.00  0.00     0.001 C
HETATM   18  C33 UNL     1      28.264  34.710  13.242  1.00  0.00     0.010 C
HETATM   19  C34 UNL     1      28.769  35.413  14.476  1.00  0.00     0.034 C
ENDROOT
BRANCH  16  20
HETATM   20  C23 UNL     1      31.276  38.368   7.943  1.00  0.00     0.011 C
HETATM   21  C24 UNL     1      32.137  39.285   7.113  1.00  0.00     0.012 C
BRANCH  20  22
HETATM   22  C25 UNL     1      30.147  39.232   8.472  1.00  0.00     0.118 C
BRANCH  22  23
HETATM   23  N2  UNL     1      29.203  39.640   7.478  1.00  0.00    -0.419 N
ATOM     24  H2  UNL     1      29.297  40.529   6.987  1.00  0.00     0.153 HD
BRANCH  23  25
HETATM   25  C26 UNL     1      28.128  38.749   7.204  1.00  0.00     0.144 C
BRANCH  25  26
HETATM   26  C27 UNL     1      27.733  38.109   8.518  1.00  0.00     0.291 C
BRANCH  26  27
HETATM   27  N3  UNL     1      26.406  37.601   8.547  1.00  0.00     0.090 N
HETATM   28  C28 UNL     1      26.118  36.681   9.586  1.00  0.00     0.272 C
HETATM   29  C29 UNL     1      24.699  36.921  10.046  1.00  0.00     0.032 C
HETATM   30  C30 UNL     1      24.245  38.161   9.347  1.00  0.00     0.032 C
HETATM   31  C31 UNL     1      25.394  38.611   8.483  1.00  0.00     0.272 C
ENDBRANCH  26  27
ENDBRANCH  25  26
ENDBRANCH  23  25
ENDBRANCH  22  23
ENDBRANCH  20  22
ENDBRANCH  16  20
BRANCH   9  32
HETATM   32  O2  UNL     1      30.610  34.412   8.587  1.00  0.00    -0.395 OA
ATOM     33  H2  UNL     1      31.547  34.262   8.630  1.00  0.00     0.210 HD
ENDBRANCH   9  32
BRANCH   5  34
HETATM   34  O1  UNL     1      32.899  34.196  13.114  1.00  0.00    -0.394 OA
ATOM     35  H1  UNL     1      33.473  34.847  13.503  1.00  0.00     0.210 HD
ENDBRANCH   5  34
BRANCH   3  36
HETATM   36  C4  UNL     1      31.083  32.632  15.421  1.00  0.00     0.093 C
BRANCH  36  37
HETATM   37  N1  UNL     1      30.623  31.358  15.722  1.00  0.00    -0.389 N
HETATM   38  C5  UNL     1      30.493  30.810  16.995  1.00  0.00     0.122 C
HETATM   39  C6  UNL     1      30.755  29.295  16.904  1.00  0.00     0.020 C
HETATM   40  C7  UNL     1      29.692  28.669  16.069  1.00  0.00     0.002 C
HETATM   41  C8  UNL     1      28.378  29.338  16.281  1.00  0.00     0.002 C
HETATM   42  C9  UNL     1      28.256  30.671  15.617  1.00  0.00     0.020 C
HETATM   43  C10 UNL     1      29.470  31.084  14.858  1.00  0.00     0.122 C
ENDBRANCH  36  37
ENDBRANCH   3  36
TORSDOF 10
ENDMDL