MODEL 1
REMARK VINA RESULT: -7.111439524      0.000      0.000
REMARK  10 active torsions:
REMARK  status: ('A' for Active; 'I' for Inactive)
REMARK    1  A    between atoms: C2_2  and  C3_3
REMARK    2  A    between atoms: C6_8  and  C7_9
REMARK    3  A    between atoms: C7_9  and  N2_10
REMARK    4  A    between atoms: C10_14  and  C11_15
REMARK    5  A    between atoms: C11_15  and  C12_16
REMARK    6  A    between atoms: C12_16  and  C14_18
REMARK    7  A    between atoms: C16_23  and  O3_24
REMARK    8  A    between atoms: C19_30  and  O4_31
REMARK    9  A    between atoms: C21_34  and  O5_35
REMARK   10  A    between atoms: C22_37  and  C24_39
ROOT
HETATM    1  C14 UNL     1      30.040  35.074  10.958  1.00  0.00     0.157 C
HETATM    2  O2  UNL     1      30.112  36.224  11.736  1.00  0.00    -0.356 OA
HETATM    3  C15 UNL     1      30.347  35.766  13.065  1.00  0.00     0.231 C
HETATM    4  N3  UNL     1      29.152  35.288  13.621  1.00  0.00    -0.342 N
ATOM      5  H3  UNL     1      28.426  35.101  12.930  1.00  0.00     0.164 HD
HETATM    6  C16 UNL     1      28.753  35.014  14.957  1.00  0.00     0.160 C
HETATM    7  C17 UNL     1      29.242  34.003  15.901  1.00  0.00     0.058 C
HETATM    8  C18 UNL     1      29.906  34.614  17.147  1.00  0.00     0.072 C
HETATM    9  N4  UNL     1      29.187  32.757  15.862  1.00  0.00    -0.341 N
ATOM     10  H4  UNL     1      29.646  32.438  16.715  1.00  0.00     0.167 HD
HETATM   11  C19 UNL     1      28.806  31.639  15.222  1.00  0.00     0.118 C
HETATM   12  C20 UNL     1      28.740  31.467  13.754  1.00  0.00     0.116 C
HETATM   13  C21 UNL     1      29.886  30.714  13.153  1.00  0.00     0.137 C
HETATM   14  C22 UNL     1      29.756  30.761  11.644  1.00  0.00    -0.001 C
HETATM   15  C23 UNL     1      30.680  29.787  10.968  1.00  0.00     0.022 C
HETATM   16  C26 UNL     1      29.893  32.164  11.079  1.00  0.00     0.016 C
HETATM   17  C27 UNL     1      31.176  32.833  11.372  1.00  0.00     0.009 C
HETATM   18  C28 UNL     1      31.242  34.296  11.443  1.00  0.00     0.031 C
HETATM   19  C29 UNL     1      31.515  34.930  12.774  1.00  0.00     0.003 C
HETATM   20  C30 UNL     1      32.674  35.949  12.496  1.00  0.00     0.020 C
HETATM   21  C31 UNL     1      32.111  34.091  13.819  1.00  0.00     0.020 C
ENDROOT
BRANCH   1  22
HETATM   22  C12 UNL     1      30.171  35.474   9.519  1.00  0.00    -0.057 C
HETATM   23  C13 UNL     1      31.404  35.466   8.996  1.00  0.00     0.017 C
BRANCH  22  24
HETATM   24  C11 UNL     1      29.078  35.948   8.682  1.00  0.00     0.074 C
BRANCH  24  25
HETATM   25  C10 UNL     1      28.278  37.110   9.169  1.00  0.00     0.175 C
HETATM   26  C4  UNL     1      27.108  37.406   8.280  1.00  0.00     0.034 C
HETATM   27  C3  UNL     1      25.848  37.336   8.543  1.00  0.00     0.026 C
HETATM   28  N1  UNL     1      27.537  37.826   6.957  1.00  0.00    -0.389 N
HETATM   29  C5  UNL     1      28.756  38.618   6.837  1.00  0.00     0.153 C
ATOM     30  H1  UNL     1      26.998  37.572   6.129  1.00  0.00     0.159 HD
HETATM   31  C6  UNL     1      29.647  38.577   8.023  1.00  0.00     0.168 C
HETATM   32  O1  UNL     1      29.079  38.269   9.234  1.00  0.00    -0.371 OA
BRANCH  27  33
HETATM   33  C2  UNL     1      25.256  36.941   9.812  1.00  0.00    -0.008 C
HETATM   34  C1  UNL     1      24.187  37.483  10.322  1.00  0.00     0.011 C
ENDBRANCH  27  33
BRANCH  31  35
HETATM   35  C7  UNL     1      30.214  39.997   8.173  1.00  0.00     0.304 C
BRANCH  35  36
HETATM   36  N2  UNL     1      31.475  40.000   8.855  1.00  0.00     0.082 N
HETATM   37  C8  UNL     1      32.427  39.050   8.368  1.00  0.00     0.309 C
HETATM   38  C9  UNL     1      32.020  41.340   8.943  1.00  0.00     0.309 C
ENDBRANCH  35  36
ENDBRANCH  31  35
ENDBRANCH  24  25
ENDBRANCH  22  24
ENDBRANCH   1  22
BRANCH   6  39
HETATM   39  O3  UNL     1      27.802  35.740  15.493  1.00  0.00    -0.345 OA
ATOM     40  H3  UNL     1      27.231  35.341  16.139  1.00  0.00     0.219 HD
ENDBRANCH   6  39
BRANCH  14  41
HETATM   41  C24 UNL     1      28.360  30.244  11.374  1.00  0.00    -0.025 C
HETATM   42  C25 UNL     1      28.105  29.186  10.656  1.00  0.00     0.008 C
ENDBRANCH  14  41
BRANCH  13  43
HETATM   43  O5  UNL     1      29.769  29.335  13.475  1.00  0.00    -0.394 OA
ATOM     44  H5  UNL     1      30.435  28.842  13.009  1.00  0.00     0.210 HD
ENDBRANCH  13  43
BRANCH  11  45
HETATM   45  O4  UNL     1      28.427  30.519  15.780  1.00  0.00    -0.349 OA
ATOM     46  H4  UNL     1      27.702  29.970  15.504  1.00  0.00     0.219 HD
ENDBRANCH  11  45
TORSDOF 10
ENDMDL