MODEL 5
REMARK VINA RESULT: -6.260024261      1.998      2.693
REMARK  5 active torsions:
REMARK  status: ('A' for Active; 'I' for Inactive)
REMARK    1  A    between atoms: C2_2  and  C8_17
REMARK    2  A    between atoms: N1_3  and  N2_5
REMARK    3  A    between atoms: N2_5  and  C3_7
REMARK    4  A    between atoms: C3_7  and  C4_12
REMARK    5  A    between atoms: N3_8  and  O1_10
ROOT
HETATM    1  N2  UNL     1       3.194  -4.138  -0.777  1.00  0.00    -0.282 N
ATOM      2  H2  UNL     1       3.913  -4.277  -1.488  1.00  0.00     0.188 HD
ENDROOT
BRANCH   1   3
HETATM    3  N1  UNL     1       2.851  -5.162   0.073  1.00  0.00    -0.307 N
HETATM    4  C2  UNL     1       3.377  -6.334   0.091  1.00  0.00     0.007 C
HETATM    5  C1  UNL     1       4.445  -6.624  -0.883  1.00  0.00     0.066 C
ATOM      6  H1  UNL     1       2.112  -4.975   0.751  1.00  0.00     0.186 HD
BRANCH   4   7
HETATM    7  C8  UNL     1       2.865  -7.294   1.089  1.00  0.00    -0.012 C
HETATM    8  C9  UNL     1       1.739  -8.056   0.428  1.00  0.00     0.021 C
HETATM    9  C10 UNL     1       3.925  -8.199   1.642  1.00  0.00     0.021 C
HETATM   10  C11 UNL     1       2.276  -6.528   2.248  1.00  0.00     0.021 C
ENDBRANCH   4   7
ENDBRANCH   1   3
BRANCH   1  11
HETATM   11  C3  UNL     1       2.537  -2.884  -0.657  1.00  0.00     0.174 C
HETATM   12  N3  UNL     1       3.185  -1.759  -0.833  1.00  0.00    -0.249 N
ATOM     13  H3  UNL     1       2.682  -0.876  -0.740  1.00  0.00     0.196 HD
BRANCH  12  14
HETATM   14  O1  UNL     1       4.513  -1.739  -1.136  1.00  0.00    -0.288 OA
ATOM     15  H1  UNL     1       5.031  -0.947  -1.053  1.00  0.00     0.244 HD
ENDBRANCH  12  14
BRANCH  11  16
HETATM   16  C4  UNL     1       1.116  -2.873  -0.332  1.00  0.00     0.121 A
HETATM   17  C5  UNL     1       0.580  -2.652   0.930  1.00  0.00     0.043 A
HETATM   18  C6  UNL     1      -0.802  -2.732   0.777  1.00  0.00     0.027 A
HETATM   19  C7  UNL     1      -1.022  -2.996  -0.566  1.00  0.00     0.142 A
HETATM   20  O2  UNL     1       0.145  -3.069  -1.166  1.00  0.00    -0.319 OA
ENDBRANCH  11  16
ENDBRANCH   1  11
TORSDOF 5
ENDMDL