MODEL 3
REMARK VINA RESULT: -5.585328196      1.961      2.567
REMARK  3 active torsions:
REMARK  status: ('A' for Active; 'I' for Inactive)
REMARK       I    between atoms: C2_2  and  N1_4
REMARK    1  A    between atoms: N2_6  and  C3_8
REMARK    2  A    between atoms: C6_14  and  N4_15
REMARK    3  A    between atoms: N4_15  and  O2_17
ROOT
HETATM    1  C3  UNL     1      -1.094  -3.859   0.185  1.00  0.00     0.150 A
HETATM    2  N3  UNL     1      -0.799  -4.537  -0.917  1.00  0.00    -0.348 N
ATOM      3  H3  UNL     1      -1.419  -5.209  -1.372  1.00  0.00     0.167 HD
HETATM    4  C4  UNL     1       0.448  -4.209  -1.356  1.00  0.00     0.111 A
HETATM    5  C5  UNL     1       0.979  -3.269  -0.487  1.00  0.00     0.058 A
HETATM    6 BR1  UNL     1       2.700  -2.451  -0.613  1.00  0.00    -0.047 Br
HETATM    7  C6  UNL     1       0.002  -3.064   0.467  1.00  0.00     0.118 A
ENDROOT
BRANCH   1   8
HETATM    8  N2  UNL     1      -2.274  -3.901   0.955  1.00  0.00    -0.281 N
HETATM    9  N1  UNL     1      -2.359  -4.443   2.093  1.00  0.00    -0.269 N
HETATM   10  C2  UNL     1      -3.632  -4.401   2.749  1.00  0.00     0.232 C
ATOM     11  H1  UNL     1      -1.553  -4.892   2.529  1.00  0.00     0.190 HD
HETATM   12  C1  UNL     1      -4.625  -3.329   2.402  1.00  0.00     0.119 C
HETATM   13  O1  UNL     1      -3.939  -5.265   3.629  1.00  0.00    -0.272 OA
ATOM     14  H2  UNL     1      -3.112  -3.466   0.569  1.00  0.00     0.188 HD
ENDBRANCH   1   8
BRANCH   7  15
HETATM   15  N4  UNL     1       0.101  -2.182   1.561  1.00  0.00    -0.264 N
ATOM     16  H4  UNL     1      -0.590  -1.439   1.670  1.00  0.00     0.194 HD
BRANCH  15  17
HETATM   17  O2  UNL     1       1.095  -2.304   2.469  1.00  0.00    -0.289 OA
ATOM     18  H2  UNL     1       1.832  -1.706   2.473  1.00  0.00     0.244 HD
ENDBRANCH  15  17
ENDBRANCH   7  15
TORSDOF 3
ENDMDL