MODEL 5
REMARK VINA RESULT: -5.926356123      3.566      5.352
REMARK  3 active torsions:
REMARK  status: ('A' for Active; 'I' for Inactive)
REMARK    1  A    between atoms: C2_5  and  O2_6
REMARK    2  A    between atoms: C3_8  and  S1_9
REMARK    3  A    between atoms: S1_9  and  C4_10
ROOT
HETATM    1  O1  UNL     1       4.166  -6.742  -0.159  1.00  0.00    -0.260 OA
HETATM    2  C1  UNL     1       3.348  -5.753  -0.131  1.00  0.00     0.291 A
HETATM    3  N1  UNL     1       3.405  -4.620  -0.835  1.00  0.00    -0.296 N
ATOM      4  H1  UNL     1       4.164  -4.450  -1.495  1.00  0.00     0.171 HD
HETATM    5  C2  UNL     1       2.462  -3.735  -0.654  1.00  0.00     0.167 A
HETATM    6  C3  UNL     1       1.474  -4.021   0.244  1.00  0.00     0.097 A
HETATM    7  S2  UNL     1       1.938  -5.565   0.802  1.00  0.00    -0.018 SA
ENDROOT
BRANCH   6   8
HETATM    8  S1  UNL     1       0.059  -2.989   0.702  1.00  0.00    -0.111 SA
BRANCH   8   9
HETATM    9  C4  UNL     1      -1.012  -2.862  -0.754  1.00  0.00     0.087 C
HETATM   10  C5  UNL     1      -2.286  -2.172  -0.331  1.00  0.00     0.018 C
HETATM   11  C6  UNL     1      -2.967  -3.137   0.625  1.00  0.00     0.001 C
HETATM   12  C7  UNL     1      -3.319  -4.418  -0.025  1.00  0.00     0.003 C
HETATM   13  C8  UNL     1      -2.475  -4.878  -1.136  1.00  0.00     0.038 C
HETATM   14  C9  UNL     1      -1.202  -4.189  -1.387  1.00  0.00     0.184 C
HETATM   15  F1  UNL     1      -1.006  -4.009  -2.767  1.00  0.00    -0.248 F
ENDBRANCH   8   9
ENDBRANCH   6   8
BRANCH   5  16
HETATM   16  O2  UNL     1       2.437  -2.502  -1.356  1.00  0.00    -0.345 OA
ATOM     17  H2  UNL     1       1.972  -1.742  -1.028  1.00  0.00     0.219 HD
ENDBRANCH   5  16
TORSDOF 3
ENDMDL