MODEL 2
REMARK VINA RESULT: -6.625004601      1.657      1.902
REMARK  3 active torsions:
REMARK  status: ('A' for Active; 'I' for Inactive)
REMARK       I    between atoms: C1_2  and  N1_3
REMARK    1  A    between atoms: C1_2  and  C8_13
REMARK    2  A    between atoms: N1_3  and  N2_5
REMARK    3  A    between atoms: C11_17  and  O3_18
ROOT
HETATM    1  O1  UNL     1      -2.046  -2.572   1.062  1.00  0.00    -0.264 OA
HETATM    2  C1  UNL     1      -1.407  -3.098   0.141  1.00  0.00     0.296 C
HETATM    3  N1  UNL     1      -2.077  -3.903  -0.805  1.00  0.00    -0.264 N
ATOM      4  H1  UNL     1      -1.556  -4.339  -1.566  1.00  0.00     0.190 HD
ENDROOT
BRANCH   3   5
HETATM    5  N2  UNL     1      -3.455  -4.101  -0.699  1.00  0.00    -0.306 N
HETATM    6  C2  UNL     1      -3.928  -5.220  -0.313  1.00  0.00     0.004 C
HETATM    7  C3  UNL     1      -3.029  -6.332   0.031  1.00  0.00     0.054 C
HETATM    8  C7  UNL     1      -5.384  -5.401  -0.210  1.00  0.00     0.054 C
HETATM    9  C4  UNL     1      -3.865  -7.601   0.247  1.00  0.00     0.006 C
HETATM   10  C5  UNL     1      -4.807  -7.694  -0.918  1.00  0.00     0.001 C
HETATM   11  C6  UNL     1      -5.893  -6.641  -0.870  1.00  0.00     0.006 C
ATOM     12  H2  UNL     1      -4.092  -3.339  -0.933  1.00  0.00     0.186 HD
ENDBRANCH   3   5
BRANCH   2  13
HETATM   13  C8  UNL     1       0.033  -2.904   0.013  1.00  0.00     0.177 A
HETATM   14  O2  UNL     1       0.755  -3.114  -1.084  1.00  0.00    -0.314 OA
HETATM   15  C9  UNL     1       2.015  -2.851  -0.887  1.00  0.00     0.145 A
HETATM   16  C10 UNL     1       2.194  -2.436   0.404  1.00  0.00     0.064 A
HETATM   17  C11 UNL     1       0.920  -2.472   0.974  1.00  0.00     0.107 A
BRANCH  17  18
HETATM   18  O3  UNL     1       0.655  -2.121   2.289  1.00  0.00    -0.358 OA
ATOM     19  H3  UNL     1       0.623  -2.686   3.052  1.00  0.00     0.217 HD
ENDBRANCH  17  18
ENDBRANCH   2  13
TORSDOF 3
ENDMDL