MODEL 4
REMARK VINA RESULT: -5.853377674      1.433      1.749
REMARK  2 active torsions:
REMARK  status: ('A' for Active; 'I' for Inactive)
REMARK    1  A    between atoms: C4_5  and  O1_6
REMARK    2  A    between atoms: N1_8  and  C5_9
ROOT
HETATM    1  C1  UNL     1      -5.852  -4.913  -0.130  1.00  0.00     0.062 C
HETATM    2  C2  UNL     1      -4.821  -5.325   0.832  1.00  0.00     0.025 C
HETATM    3  S1  UNL     1      -5.041  -6.674   1.704  1.00  0.00    -0.084 SA
HETATM    4  C3  UNL     1      -3.621  -4.539   1.004  1.00  0.00     0.102 A
HETATM    5  C4  UNL     1      -2.356  -4.783   0.458  1.00  0.00     0.175 A
HETATM    6  N1  UNL     1      -1.521  -3.821   0.860  1.00  0.00    -0.263 N
HETATM    7  N2  UNL     1      -2.197  -2.978   1.636  1.00  0.00    -0.261 N
ATOM      8  H2  UNL     1      -1.801  -2.149   2.079  1.00  0.00     0.190 HD
HETATM    9  C10 UNL     1      -3.471  -3.371   1.752  1.00  0.00     0.276 A
HETATM   10  O2  UNL     1      -4.382  -2.804   2.412  1.00  0.00    -0.266 OA
ENDROOT
BRANCH   6  11
HETATM   11  C5  UNL     1      -0.148  -3.681   0.540  1.00  0.00     0.110 C
HETATM   12  C6  UNL     1       0.551  -2.561   1.282  1.00  0.00     0.027 C
HETATM   13  C7  UNL     1       1.930  -2.632   0.610  1.00  0.00     0.002 C
HETATM   14  C8  UNL     1       1.667  -3.124  -0.800  1.00  0.00     0.002 C
HETATM   15  C9  UNL     1       0.144  -3.317  -0.882  1.00  0.00     0.027 C
ENDBRANCH   6  11
BRANCH   5  16
HETATM   16  O1  UNL     1      -2.110  -5.866  -0.351  1.00  0.00    -0.344 OA
ATOM     17  H1  UNL     1      -2.560  -5.988  -1.178  1.00  0.00     0.219 HD
ENDBRANCH   5  16
TORSDOF 2
ENDMDL