MODEL 1
REMARK VINA RESULT: -6.102763755      0.000      0.000
REMARK  5 active torsions:
REMARK  status: ('A' for Active; 'I' for Inactive)
REMARK    1  A    between atoms: C4_4  and  N1_5
REMARK    2  A    between atoms: C9_12  and  C10_13
REMARK    3  A    between atoms: C10_13  and  O1_14
REMARK    4  A    between atoms: C10_13  and  N2_16
REMARK    5  A    between atoms: N2_16  and  O2_18
ROOT
HETATM    1  C1  UNL     1       2.820  -2.149  -0.608  1.00  0.00     0.050 C
HETATM    2  C2  UNL     1       2.337  -3.573  -0.334  1.00  0.00    -0.038 A
HETATM    3  C3  UNL     1       3.145  -4.655  -0.444  1.00  0.00     0.045 A
HETATM    4  C4  UNL     1       2.591  -5.876  -0.171  1.00  0.00     0.073 A
HETATM    5  S1  UNL     1       0.986  -5.499   0.227  1.00  0.00    -0.068 SA
HETATM    6  C9  UNL     1       1.042  -3.804   0.041  1.00  0.00     0.065 A
ENDROOT
BRANCH   6   7
HETATM    7  C10 UNL     1      -0.036  -2.831   0.238  1.00  0.00     0.178 C
BRANCH   7   8
HETATM    8  O1  UNL     1      -0.839  -2.454  -0.838  1.00  0.00    -0.344 OA
ATOM      9  H1  UNL     1      -1.776  -2.355  -0.720  1.00  0.00     0.219 HD
ENDBRANCH   7   8
BRANCH   7  10
HETATM   10  N2  UNL     1      -0.227  -2.342   1.387  1.00  0.00    -0.246 N
ATOM     11  H2  UNL     1      -1.189  -2.104   1.628  1.00  0.00     0.196 HD
BRANCH  10  12
HETATM   12  O2  UNL     1       0.713  -2.101   2.330  1.00  0.00    -0.288 OA
ATOM     13  H2  UNL     1       1.626  -1.883   2.180  1.00  0.00     0.244 HD
ENDBRANCH  10  12
ENDBRANCH   7  10
ENDBRANCH   6   7
BRANCH   4  14
HETATM   14  N1  UNL     1       3.228  -7.168  -0.215  1.00  0.00    -0.372 N
HETATM   15  C5  UNL     1       4.629  -7.356  -0.404  1.00  0.00     0.126 C
HETATM   16  C6  UNL     1       4.926  -8.507   0.561  1.00  0.00     0.058 C
HETATM   17  C7  UNL     1       3.702  -9.389   0.311  1.00  0.00     0.189 C
HETATM   18  F1  UNL     1       4.048 -10.229  -0.732  1.00  0.00    -0.248 F
HETATM   19  C8  UNL     1       2.592  -8.441  -0.082  1.00  0.00     0.160 C
ENDBRANCH   4  14
TORSDOF 5
ENDMDL