MODEL 1
REMARK VINA RESULT: -6.669728550      0.000      0.000
REMARK  4 active torsions:
REMARK  status: ('A' for Active; 'I' for Inactive)
REMARK    1  A    between atoms: O1_1  and  N1_3
REMARK    2  A    between atoms: C1_5  and  O2_6
REMARK    3  A    between atoms: C1_5  and  C2_8
REMARK    4  A    between atoms: C6_15  and  N3_16
ROOT
HETATM    1  C2  UNL     1       2.320  -4.402  -0.393  1.00  0.00     0.049 A
HETATM    2  C3  UNL     1       3.446  -5.240  -0.388  1.00  0.00     0.079 A
HETATM    3  C4  UNL     1       3.253  -6.582  -0.341  1.00  0.00     0.189 A
HETATM    4  F1  UNL     1       4.325  -7.433  -0.334  1.00  0.00    -0.186 F
HETATM    5  N2  UNL     1       2.026  -7.148  -0.300  1.00  0.00    -0.341 N
ATOM      6  H2  UNL     1       1.938  -8.164  -0.265  1.00  0.00     0.167 HD
HETATM    7  C5  UNL     1       0.947  -6.399  -0.303  1.00  0.00     0.120 A
HETATM    8  C6  UNL     1       1.092  -5.001  -0.353  1.00  0.00     0.060 A
ENDROOT
BRANCH   1   9
HETATM    9  C1  UNL     1       2.525  -2.960  -0.375  1.00  0.00     0.172 C
HETATM   10  N1  UNL     1       3.066  -2.417  -1.430  1.00  0.00    -0.247 N
ATOM     11  H1  UNL     1       3.314  -3.024  -2.210  1.00  0.00     0.196 HD
BRANCH  10  12
HETATM   12  O1  UNL     1       3.318  -1.078  -1.545  1.00  0.00    -0.288 OA
ATOM     13  H1  UNL     1       2.900  -0.519  -2.190  1.00  0.00     0.244 HD
ENDBRANCH  10  12
BRANCH   9  14
HETATM   14  O2  UNL     1       2.207  -2.106   0.652  1.00  0.00    -0.344 OA
ATOM     15  H2  UNL     1       2.929  -1.824   1.202  1.00  0.00     0.219 HD
ENDBRANCH   9  14
ENDBRANCH   1   9
BRANCH   8  16
HETATM   16  N3  UNL     1      -0.116  -4.241  -0.426  1.00  0.00    -0.379 N
HETATM   17  C7  UNL     1      -0.820  -3.836   0.753  1.00  0.00     0.123 C
HETATM   18  C8  UNL     1      -1.369  -2.429   0.561  1.00  0.00     0.020 C
HETATM   19  C9  UNL     1      -2.240  -2.316  -0.636  1.00  0.00     0.003 C
HETATM   20  C10 UNL     1      -1.993  -3.334  -1.715  1.00  0.00     0.020 C
HETATM   21  C11 UNL     1      -0.594  -3.871  -1.727  1.00  0.00     0.123 C
ENDBRANCH   8  16
TORSDOF 4
ENDMDL