MODEL 5
REMARK VINA RESULT: -6.175026241      3.729      5.861
REMARK  2 active torsions:
REMARK  status: ('A' for Active; 'I' for Inactive)
REMARK    1  A    between atoms: C2_2  and  C3_3
REMARK    2  A    between atoms: C2_2  and  C6_10
ROOT
HETATM    1  C6  UNL     1      -2.425  -3.515   0.412  1.00  0.00     0.093 C
HETATM    2  C7  UNL     1      -2.325  -3.411  -1.074  1.00  0.00     0.036 C
HETATM    3  C8  UNL     1      -0.953  -3.439  -1.654  1.00  0.00     0.084 C
HETATM    4  S2  UNL     1       0.331  -3.713  -0.381  1.00  0.00    -0.095 SA
HETATM    5  C9  UNL     1      -0.211  -2.757   1.022  1.00  0.00     0.134 C
HETATM    6  N2  UNL     1       0.619  -2.219   1.791  1.00  0.00    -0.380 N
ATOM      7  H21 UNL     1       0.310  -1.672   2.595  1.00  0.00     0.158 HD
ATOM      8  H22 UNL     1       1.629  -2.296   1.669  1.00  0.00     0.158 HD
HETATM    9  N3  UNL     1      -1.630  -2.649   1.194  1.00  0.00    -0.366 N
ATOM     10  H3  UNL     1      -2.043  -1.981   1.846  1.00  0.00     0.162 HD
ENDROOT
BRANCH   1  11
HETATM   11  C2  UNL     1      -3.886  -3.648   0.795  1.00  0.00     0.058 C
HETATM   12  C1  UNL     1      -3.976  -3.327   2.321  1.00  0.00     0.018 C
BRANCH  11  13
HETATM   13  C3  UNL     1      -4.395  -5.067   0.629  1.00  0.00     0.061 A
HETATM   14  N1  UNL     1      -3.692  -6.077   1.068  1.00  0.00    -0.360 N
HETATM   15  C4  UNL     1      -4.089  -7.304   0.901  1.00  0.00     0.141 A
ATOM     16  H1  UNL     1      -2.812  -5.900   1.553  1.00  0.00     0.165 HD
HETATM   17  S1  UNL     1      -5.558  -7.104   0.071  1.00  0.00    -0.053 SA
HETATM   18  C5  UNL     1      -5.565  -5.369  -0.009  1.00  0.00     0.181 A
HETATM   19  F1  UNL     1      -6.533  -4.575  -0.561  1.00  0.00    -0.196 F
ENDBRANCH  11  13
ENDBRANCH   1  11
TORSDOF 2
ENDMDL