MODEL 4
REMARK VINA RESULT: -6.574049462      5.037      7.696
REMARK  4 active torsions:
REMARK  status: ('A' for Active; 'I' for Inactive)
REMARK    1  A    between atoms: C2_2  and  C3_3
REMARK    2  A    between atoms: C4_4  and  C5_5
REMARK    3  A    between atoms: C10_11  and  O1_12
REMARK    4  A    between atoms: N1_18  and  O3_20
ROOT
HETATM    1  C5  UNL     1       1.882  -5.695   0.807  1.00  0.00     0.003 A
HETATM    2  C6  UNL     1       2.775  -5.444  -0.242  1.00  0.00     0.057 A
HETATM    3  C7  UNL     1       3.873  -6.235  -0.475  1.00  0.00     0.126 A
HETATM    4  F1  UNL     1       4.726  -5.968  -1.501  1.00  0.00    -0.205 F
HETATM    5  C8  UNL     1       4.116  -7.320   0.351  1.00  0.00     0.017 A
HETATM    6  C9  UNL     1       3.266  -7.607   1.394  1.00  0.00     0.112 A
HETATM    7  C10 UNL     1       2.153  -6.779   1.605  1.00  0.00     0.110 A
HETATM    8  O2  UNL     1       3.551  -8.695   2.185  1.00  0.00    -0.348 OA
HETATM    9  C11 UNL     1       4.859  -9.210   2.408  1.00  0.00     0.176 C
HETATM   10  C12 UNL     1       5.871  -8.693   1.448  1.00  0.00     0.031 C
HETATM   11  C13 UNL     1       5.284  -8.209   0.147  1.00  0.00     0.047 C
ENDROOT
BRANCH   1  12
HETATM   12  C4  UNL     1       0.764  -4.821   0.977  1.00  0.00     0.016 C
HETATM   13  C3  UNL     1      -0.031  -4.376   0.063  1.00  0.00     0.027 C
BRANCH  13  14
HETATM   14  C2  UNL     1      -1.136  -3.469   0.474  1.00  0.00     0.028 C
HETATM   15  C1  UNL     1      -1.651  -2.457  -0.463  1.00  0.00     0.070 C
HETATM   16  N1  UNL     1      -1.650  -3.557   1.648  1.00  0.00    -0.274 N
ATOM     17  H1  UNL     1      -1.300  -4.255   2.305  1.00  0.00     0.193 HD
BRANCH  16  18
HETATM   18  O3  UNL     1      -2.664  -2.720   2.018  1.00  0.00    -0.290 OA
ATOM     19  H3  UNL     1      -3.567  -2.953   1.834  1.00  0.00     0.244 HD
ENDBRANCH  16  18
ENDBRANCH  13  14
ENDBRANCH   1  12
BRANCH   7  20
HETATM   20  O1  UNL     1       1.357  -7.129   2.660  1.00  0.00    -0.357 OA
ATOM     21  H1  UNL     1       0.487  -7.493   2.543  1.00  0.00     0.217 HD
ENDBRANCH   7  20
TORSDOF 4
ENDMDL